MODEL 1
REMARK VINA RESULT:      -7.6      0.000      0.000
REMARK  3 active torsions:
REMARK  status: ('A' for Active; 'I' for Inactive)
REMARK    1  A    between atoms: C_2  and  C_3 
REMARK    2  A    between atoms: C_3  and  C_4 
REMARK    3  A    between atoms: C_24  and  N_25 
ROOT
HETATM    1  C   UNL     1      43.768 -15.798   6.842  1.00  0.00     0.067 A 
HETATM    2  N   UNL     1      44.426 -14.913   7.612  1.00  0.00    -0.177 NA
HETATM    3  N   UNL     1      43.916 -13.717   7.265  1.00  0.00    -0.256 N 
HETATM    4  H   UNL     1      44.256 -12.885   7.733  1.00  0.00     0.191 HD
HETATM    5  C   UNL     1      42.959 -13.815   6.311  1.00  0.00     0.176 A 
HETATM    6  C   UNL     1      42.843 -15.144   5.984  1.00  0.00     0.049 A 
HETATM    7  C   UNL     1      41.835 -15.551   4.965  1.00  0.00     0.145 A 
HETATM    8  C   UNL     1      40.836 -16.589   5.549  1.00  0.00     0.246 A 
HETATM    9  O   UNL     1      40.025 -16.426   6.447  1.00  0.00    -0.271 OA
HETATM   10  N   UNL     1      41.014 -17.774   4.841  1.00  0.00    -0.325 N 
HETATM   11  C   UNL     1      42.003 -17.647   3.876  1.00  0.00     0.043 A 
HETATM   12  C   UNL     1      42.551 -16.354   3.893  1.00  0.00     0.003 A 
HETATM   13  C   UNL     1      42.416 -18.629   3.002  1.00  0.00     0.030 A 
HETATM   14  C   UNL     1      43.424 -18.298   2.100  1.00  0.00     0.003 A 
HETATM   15  C   UNL     1      43.984 -17.009   2.091  1.00  0.00     0.007 A 
HETATM   16  C   UNL     1      43.552 -16.010   2.982  1.00  0.00    -0.051 A 
HETATM   17  C   UNL     1      44.190 -14.653   2.944  1.00  0.00     0.049 C 
HETATM   18  C   UNL     1      41.050 -14.348   4.443  1.00  0.00     0.095 A 
HETATM   19  C   UNL     1      40.036 -14.596   3.470  1.00  0.00     0.101 C 
HETATM   20  N   UNL     1      39.202 -14.801   2.690  1.00  0.00    -0.191 NA
HETATM   21  C   UNL     1      41.284 -13.079   4.876  1.00  0.00     0.141 A 
HETATM   22  O   UNL     1      42.274 -12.786   5.829  1.00  0.00    -0.279 OA
HETATM   23  H   UNL     1      40.467 -18.604   5.018  1.00  0.00     0.169 HD
ENDROOT
BRANCH  21  24
HETATM   24  N   UNL     1      40.614 -11.953   4.451  1.00  0.00    -0.282 NA
HETATM   25  H   UNL     1      40.700 -11.743   3.459  1.00  0.00     0.126 HD
HETATM   26  H   UNL     1      39.647 -11.947   4.768  1.00  0.00     0.126 HD
ENDBRANCH  21  24
BRANCH   1  27
HETATM   27  C   UNL     1      44.050 -17.256   7.018  1.00  0.00     0.061 C 
BRANCH  27  28
HETATM   28  C   UNL     1      45.260 -17.769   6.235  1.00  0.00     0.002 C 
HETATM   29  C   UNL     1      44.997 -19.065   5.481  1.00  0.00     0.005 C 
ENDBRANCH  27  28
ENDBRANCH   1  27
TORSDOF 3
ENDMDL
MODEL 2
REMARK VINA RESULT:      -7.3      1.838      4.382
REMARK  3 active torsions:
REMARK  status: ('A' for Active; 'I' for Inactive)
REMARK    1  A    between atoms: C_2  and  C_3 
REMARK    2  A    between atoms: C_3  and  C_4 
REMARK    3  A    between atoms: C_24  and  N_25 
ROOT
HETATM    1  C   UNL     1      42.039 -16.694   2.515  1.00  0.00     0.067 A 
HETATM    2  N   UNL     1      41.145 -17.101   1.595  1.00  0.00    -0.177 NA
HETATM    3  N   UNL     1      40.098 -16.271   1.750  1.00  0.00    -0.256 N 
HETATM    4  H   UNL     1      39.293 -16.379   1.144  1.00  0.00     0.191 HD
HETATM    5  C   UNL     1      40.299 -15.354   2.727  1.00  0.00     0.176 A 
HETATM    6  C   UNL     1      41.535 -15.602   3.271  1.00  0.00     0.049 A 
HETATM    7  C   UNL     1      42.032 -14.719   4.364  1.00  0.00     0.145 A 
HETATM    8  C   UNL     1      43.389 -14.063   3.980  1.00  0.00     0.246 A 
HETATM    9  O   UNL     1      43.607 -13.263   3.085  1.00  0.00    -0.271 OA
HETATM   10  N   UNL     1      44.344 -14.543   4.871  1.00  0.00    -0.325 N 
HETATM   11  C   UNL     1      43.790 -15.432   5.781  1.00  0.00     0.043 A 
HETATM   12  C   UNL     1      42.418 -15.601   5.539  1.00  0.00     0.003 A 
HETATM   13  C   UNL     1      44.462 -16.077   6.797  1.00  0.00     0.030 A 
HETATM   14  C   UNL     1      43.721 -16.930   7.610  1.00  0.00     0.003 A 
HETATM   15  C   UNL     1      42.343 -17.111   7.395  1.00  0.00     0.007 A 
HETATM   16  C   UNL     1      41.664 -16.442   6.359  1.00  0.00    -0.051 A 
HETATM   17  C   UNL     1      40.197 -16.678   6.159  1.00  0.00     0.049 C 
HETATM   18  C   UNL     1      41.026 -13.618   4.695  1.00  0.00     0.095 A 
HETATM   19  C   UNL     1      41.382 -12.687   5.716  1.00  0.00     0.101 C 
HETATM   20  N   UNL     1      41.679 -11.922   6.537  1.00  0.00    -0.191 NA
HETATM   21  C   UNL     1      39.831 -13.503   4.054  1.00  0.00     0.141 A 
HETATM   22  O   UNL     1      39.436 -14.398   3.046  1.00  0.00    -0.279 OA
HETATM   23  H   UNL     1      45.310 -14.252   4.845  1.00  0.00     0.169 HD
ENDROOT
BRANCH  21  24
HETATM   24  N   UNL     1      38.881 -12.536   4.300  1.00  0.00    -0.282 NA
HETATM   25  H   UNL     1      39.066 -11.938   5.103  1.00  0.00     0.126 HD
HETATM   26  H   UNL     1      38.658 -12.004   3.462  1.00  0.00     0.126 HD
ENDBRANCH  21  24
BRANCH   1  27
HETATM   27  C   UNL     1      43.370 -17.373   2.576  1.00  0.00     0.061 C 
BRANCH  27  28
HETATM   28  C   UNL     1      43.329 -18.805   3.114  1.00  0.00     0.002 C 
HETATM   29  C   UNL     1      43.972 -18.963   4.484  1.00  0.00     0.005 C 
ENDBRANCH  27  28
ENDBRANCH   1  27
TORSDOF 3
ENDMDL
MODEL 3
REMARK VINA RESULT:      -7.2      2.191      5.415
REMARK  3 active torsions:
REMARK  status: ('A' for Active; 'I' for Inactive)
REMARK    1  A    between atoms: C_2  and  C_3 
REMARK    2  A    between atoms: C_3  and  C_4 
REMARK    3  A    between atoms: C_24  and  N_25 
ROOT
HETATM    1  C   UNL     1      41.030 -16.808   2.284  1.00  0.00     0.067 A 
HETATM    2  N   UNL     1      41.497 -17.434   1.189  1.00  0.00    -0.177 NA
HETATM    3  N   UNL     1      42.646 -18.006   1.590  1.00  0.00    -0.256 N 
HETATM    4  H   UNL     1      43.179 -18.554   0.925  1.00  0.00     0.191 HD
HETATM    5  C   UNL     1      42.918 -17.770   2.896  1.00  0.00     0.176 A 
HETATM    6  C   UNL     1      41.911 -16.975   3.386  1.00  0.00     0.049 A 
HETATM    7  C   UNL     1      41.941 -16.576   4.821  1.00  0.00     0.145 A 
HETATM    8  C   UNL     1      40.647 -17.027   5.555  1.00  0.00     0.246 A 
HETATM    9  O   UNL     1      40.264 -18.167   5.767  1.00  0.00    -0.271 OA
HETATM   10  N   UNL     1      39.982 -15.874   5.962  1.00  0.00    -0.325 N 
HETATM   11  C   UNL     1      40.668 -14.729   5.583  1.00  0.00     0.043 A 
HETATM   12  C   UNL     1      41.842 -15.061   4.887  1.00  0.00     0.003 A 
HETATM   13  C   UNL     1      40.284 -13.431   5.838  1.00  0.00     0.030 A 
HETATM   14  C   UNL     1      41.119 -12.417   5.376  1.00  0.00     0.003 A 
HETATM   15  C   UNL     1      42.305 -12.722   4.684  1.00  0.00     0.007 A 
HETATM   16  C   UNL     1      42.692 -14.051   4.434  1.00  0.00    -0.051 A 
HETATM   17  C   UNL     1      43.958 -14.327   3.679  1.00  0.00     0.049 C 
HETATM   18  C   UNL     1      43.152 -17.168   5.542  1.00  0.00     0.095 A 
HETATM   19  C   UNL     1      43.296 -16.878   6.931  1.00  0.00     0.101 C 
HETATM   20  N   UNL     1      43.404 -16.654   8.065  1.00  0.00    -0.191 NA
HETATM   21  C   UNL     1      44.068 -17.949   4.909  1.00  0.00     0.141 A 
HETATM   22  O   UNL     1      43.970 -18.258   3.542  1.00  0.00    -0.279 OA
HETATM   23  H   UNL     1      39.116 -15.898   6.480  1.00  0.00     0.169 HD
ENDROOT
BRANCH  21  24
HETATM   24  N   UNL     1      45.178 -18.516   5.497  1.00  0.00    -0.282 NA
HETATM   25  H   UNL     1      45.984 -18.631   4.886  1.00  0.00     0.126 HD
HETATM   26  H   UNL     1      45.416 -18.059   6.374  1.00  0.00     0.126 HD
ENDBRANCH  21  24
BRANCH   1  27
HETATM   27  C   UNL     1      39.710 -16.109   2.207  1.00  0.00     0.061 C 
BRANCH  27  28
HETATM   28  C   UNL     1      39.734 -14.788   1.435  1.00  0.00     0.002 C 
HETATM   29  C   UNL     1      39.312 -13.585   2.267  1.00  0.00     0.005 C 
ENDBRANCH  27  28
ENDBRANCH   1  27
TORSDOF 3
ENDMDL
MODEL 4
REMARK VINA RESULT:      -7.0      7.349      9.342
REMARK  3 active torsions:
REMARK  status: ('A' for Active; 'I' for Inactive)
REMARK    1  A    between atoms: C_2  and  C_3 
REMARK    2  A    between atoms: C_3  and  C_4 
REMARK    3  A    between atoms: C_24  and  N_25 
ROOT
HETATM    1  C   UNL     1      43.120 -10.286  12.465  1.00  0.00     0.067 A 
HETATM    2  N   UNL     1      43.969  -9.734  13.351  1.00  0.00    -0.177 NA
HETATM    3  N   UNL     1      43.221  -8.843  14.026  1.00  0.00    -0.256 N 
HETATM    4  H   UNL     1      43.652  -8.305  14.770  1.00  0.00     0.191 HD
HETATM    5  C   UNL     1      41.934  -8.816  13.605  1.00  0.00     0.176 A 
HETATM    6  C   UNL     1      41.823  -9.717  12.575  1.00  0.00     0.049 A 
HETATM    7  C   UNL     1      40.494  -9.915  11.930  1.00  0.00     0.145 A 
HETATM    8  C   UNL     1      40.047 -11.402  12.013  1.00  0.00     0.246 A 
HETATM    9  O   UNL     1      39.781 -12.050  13.013  1.00  0.00    -0.271 OA
HETATM   10  N   UNL     1      39.980 -11.884  10.710  1.00  0.00    -0.325 N 
HETATM   11  C   UNL     1      40.332 -10.909   9.787  1.00  0.00     0.043 A 
HETATM   12  C   UNL     1      40.664  -9.708  10.435  1.00  0.00     0.003 A 
HETATM   13  C   UNL     1      40.361 -11.060   8.418  1.00  0.00     0.030 A 
HETATM   14  C   UNL     1      40.738  -9.953   7.662  1.00  0.00     0.003 A 
HETATM   15  C   UNL     1      41.068  -8.736   8.286  1.00  0.00     0.007 A 
HETATM   16  C   UNL     1      41.028  -8.589   9.684  1.00  0.00    -0.051 A 
HETATM   17  C   UNL     1      41.402  -7.276  10.304  1.00  0.00     0.049 C 
HETATM   18  C   UNL     1      39.422  -9.039  12.578  1.00  0.00     0.095 A 
HETATM   19  C   UNL     1      38.094  -9.140  12.067  1.00  0.00     0.101 C 
HETATM   20  N   UNL     1      37.010  -9.235  11.661  1.00  0.00    -0.191 NA
HETATM   21  C   UNL     1      39.695  -8.190  13.606  1.00  0.00     0.141 A 
HETATM   22  O   UNL     1      40.987  -8.054  14.138  1.00  0.00    -0.279 OA
HETATM   23  H   UNL     1      39.694 -12.827  10.490  1.00  0.00     0.169 HD
ENDROOT
BRANCH  21  24
HETATM   24  N   UNL     1      38.778  -7.376  14.236  1.00  0.00    -0.282 NA
HETATM   25  H   UNL     1      38.459  -6.577  13.692  1.00  0.00     0.126 HD
HETATM   26  H   UNL     1      38.008  -7.910  14.631  1.00  0.00     0.126 HD
ENDBRANCH  21  24
BRANCH   1  27
HETATM   27  C   UNL     1      43.616 -11.383  11.578  1.00  0.00     0.061 C 
BRANCH  27  28
HETATM   28  C   UNL     1      44.085 -10.921  10.197  1.00  0.00     0.002 C 
HETATM   29  C   UNL     1      45.593 -10.997  10.006  1.00  0.00     0.005 C 
ENDBRANCH  27  28
ENDBRANCH   1  27
TORSDOF 3
ENDMDL
MODEL 5
REMARK VINA RESULT:      -7.0      1.692      2.417
REMARK  3 active torsions:
REMARK  status: ('A' for Active; 'I' for Inactive)
REMARK    1  A    between atoms: C_2  and  C_3 
REMARK    2  A    between atoms: C_3  and  C_4 
REMARK    3  A    between atoms: C_24  and  N_25 
ROOT
HETATM    1  C   UNL     1      44.025 -18.114   5.435  1.00  0.00     0.067 A 
HETATM    2  N   UNL     1      45.187 -18.178   6.110  1.00  0.00    -0.177 NA
HETATM    3  N   UNL     1      45.323 -16.959   6.663  1.00  0.00    -0.256 N 
HETATM    4  H   UNL     1      46.135 -16.771   7.240  1.00  0.00     0.191 HD
HETATM    5  C   UNL     1      44.291 -16.133   6.367  1.00  0.00     0.176 A 
HETATM    6  C   UNL     1      43.433 -16.828   5.552  1.00  0.00     0.049 A 
HETATM    7  C   UNL     1      42.182 -16.163   5.087  1.00  0.00     0.145 A 
HETATM    8  C   UNL     1      40.926 -16.979   5.505  1.00  0.00     0.246 A 
HETATM    9  O   UNL     1      40.519 -17.201   6.634  1.00  0.00    -0.271 OA
HETATM   10  N   UNL     1      40.311 -17.413   4.336  1.00  0.00    -0.325 N 
HETATM   11  C   UNL     1      41.005 -16.995   3.209  1.00  0.00     0.043 A 
HETATM   12  C   UNL     1      42.140 -16.254   3.571  1.00  0.00     0.003 A 
HETATM   13  C   UNL     1      40.656 -17.250   1.900  1.00  0.00     0.030 A 
HETATM   14  C   UNL     1      41.486 -16.734   0.907  1.00  0.00     0.003 A 
HETATM   15  C   UNL     1      42.625 -15.981   1.243  1.00  0.00     0.007 A 
HETATM   16  C   UNL     1      42.969 -15.720   2.583  1.00  0.00    -0.051 A 
HETATM   17  C   UNL     1      44.201 -14.924   2.892  1.00  0.00     0.049 C 
HETATM   18  C   UNL     1      42.061 -14.746   5.646  1.00  0.00     0.095 A 
HETATM   19  C   UNL     1      40.899 -13.998   5.292  1.00  0.00     0.101 C 
HETATM   20  N   UNL     1      39.946 -13.395   5.017  1.00  0.00    -0.191 NA
HETATM   21  C   UNL     1      43.007 -14.196   6.455  1.00  0.00     0.141 A 
HETATM   22  O   UNL     1      44.169 -14.893   6.825  1.00  0.00    -0.279 OA
HETATM   23  H   UNL     1      39.457 -17.953   4.335  1.00  0.00     0.169 HD
ENDROOT
BRANCH  21  24
HETATM   24  N   UNL     1      42.960 -12.929   6.994  1.00  0.00    -0.282 NA
HETATM   25  H   UNL     1      43.668 -12.283   6.651  1.00  0.00     0.126 HD
HETATM   26  H   UNL     1      42.023 -12.536   6.953  1.00  0.00     0.126 HD
ENDBRANCH  21  24
BRANCH   1  27
HETATM   27  C   UNL     1      43.526 -19.342   4.741  1.00  0.00     0.061 C 
BRANCH  27  28
HETATM   28  C   UNL     1      44.313 -19.725   3.486  1.00  0.00     0.002 C 
HETATM   29  C   UNL     1      43.512 -19.594   2.198  1.00  0.00     0.005 C 
ENDBRANCH  27  28
ENDBRANCH   1  27
TORSDOF 3
ENDMDL
MODEL 6
REMARK VINA RESULT:      -7.0      1.915      4.494
REMARK  3 active torsions:
REMARK  status: ('A' for Active; 'I' for Inactive)
REMARK    1  A    between atoms: C_2  and  C_3 
REMARK    2  A    between atoms: C_3  and  C_4 
REMARK    3  A    between atoms: C_24  and  N_25 
ROOT
HETATM    1  C   UNL     1      40.167 -14.377   2.755  1.00  0.00     0.067 A 
HETATM    2  N   UNL     1      39.022 -13.670   2.746  1.00  0.00    -0.177 NA
HETATM    3  N   UNL     1      39.092 -12.901   3.847  1.00  0.00    -0.256 N 
HETATM    4  H   UNL     1      38.331 -12.261   4.047  1.00  0.00     0.191 HD
HETATM    5  C   UNL     1      40.237 -13.091   4.546  1.00  0.00     0.176 A 
HETATM    6  C   UNL     1      40.959 -14.058   3.890  1.00  0.00     0.049 A 
HETATM    7  C   UNL     1      42.291 -14.453   4.430  1.00  0.00     0.145 A 
HETATM    8  C   UNL     1      43.408 -14.249   3.368  1.00  0.00     0.246 A 
HETATM    9  O   UNL     1      43.795 -13.200   2.879  1.00  0.00    -0.271 OA
HETATM   10  N   UNL     1      43.925 -15.506   3.069  1.00  0.00    -0.325 N 
HETATM   11  C   UNL     1      43.286 -16.505   3.790  1.00  0.00     0.043 A 
HETATM   12  C   UNL     1      42.290 -15.961   4.617  1.00  0.00     0.003 A 
HETATM   13  C   UNL     1      43.565 -17.853   3.733  1.00  0.00     0.030 A 
HETATM   14  C   UNL     1      42.811 -18.696   4.546  1.00  0.00     0.003 A 
HETATM   15  C   UNL     1      41.813 -18.176   5.389  1.00  0.00     0.007 A 
HETATM   16  C   UNL     1      41.540 -16.797   5.446  1.00  0.00    -0.051 A 
HETATM   17  C   UNL     1      40.456 -16.291   6.350  1.00  0.00     0.049 C 
HETATM   18  C   UNL     1      42.647 -13.654   5.683  1.00  0.00     0.095 A 
HETATM   19  C   UNL     1      43.907 -13.921   6.296  1.00  0.00     0.101 C 
HETATM   20  N   UNL     1      44.939 -14.128   6.786  1.00  0.00    -0.191 NA
HETATM   21  C   UNL     1      41.815 -12.716   6.211  1.00  0.00     0.141 A 
HETATM   22  O   UNL     1      40.564 -12.423   5.645  1.00  0.00    -0.279 OA
HETATM   23  H   UNL     1      44.681 -15.644   2.414  1.00  0.00     0.169 HD
ENDROOT
BRANCH  21  24
HETATM   24  N   UNL     1      42.074 -11.959   7.334  1.00  0.00    -0.282 NA
HETATM   25  H   UNL     1      41.260 -11.527   7.765  1.00  0.00     0.126 HD
HETATM   26  H   UNL     1      42.648 -12.464   8.005  1.00  0.00     0.126 HD
ENDBRANCH  21  24
BRANCH   1  27
HETATM   27  C   UNL     1      40.450 -15.304   1.616  1.00  0.00     0.061 C 
BRANCH  27  28
HETATM   28  C   UNL     1      40.150 -16.776   1.905  1.00  0.00     0.002 C 
HETATM   29  C   UNL     1      41.048 -17.744   1.148  1.00  0.00     0.005 C 
ENDBRANCH  27  28
ENDBRANCH   1  27
TORSDOF 3
ENDMDL
MODEL 7
REMARK VINA RESULT:      -6.8      2.393      3.182
REMARK  3 active torsions:
REMARK  status: ('A' for Active; 'I' for Inactive)
REMARK    1  A    between atoms: C_2  and  C_3 
REMARK    2  A    between atoms: C_3  and  C_4 
REMARK    3  A    between atoms: C_24  and  N_25 
ROOT
HETATM    1  C   UNL     1      40.577 -14.688   5.156  1.00  0.00     0.067 A 
HETATM    2  N   UNL     1      40.645 -13.754   6.121  1.00  0.00    -0.177 NA
HETATM    3  N   UNL     1      40.978 -12.623   5.474  1.00  0.00    -0.256 N 
HETATM    4  H   UNL     1      41.076 -11.765   6.005  1.00  0.00     0.191 HD
HETATM    5  C   UNL     1      41.118 -12.807   4.139  1.00  0.00     0.176 A 
HETATM    6  C   UNL     1      40.891 -14.137   3.885  1.00  0.00     0.049 A 
HETATM    7  C   UNL     1      40.954 -14.623   2.477  1.00  0.00     0.145 A 
HETATM    8  C   UNL     1      39.617 -15.296   2.056  1.00  0.00     0.246 A 
HETATM    9  O   UNL     1      38.519 -14.774   1.943  1.00  0.00    -0.271 OA
HETATM   10  N   UNL     1      39.893 -16.636   1.804  1.00  0.00    -0.325 N 
HETATM   11  C   UNL     1      41.234 -16.928   2.012  1.00  0.00     0.043 A 
HETATM   12  C   UNL     1      41.933 -15.784   2.427  1.00  0.00     0.003 A 
HETATM   13  C   UNL     1      41.832 -18.158   1.842  1.00  0.00     0.030 A 
HETATM   14  C   UNL     1      43.198 -18.243   2.098  1.00  0.00     0.003 A 
HETATM   15  C   UNL     1      43.924 -17.110   2.507  1.00  0.00     0.007 A 
HETATM   16  C   UNL     1      43.306 -15.856   2.671  1.00  0.00    -0.051 A 
HETATM   17  C   UNL     1      44.118 -14.680   3.122  1.00  0.00     0.049 C 
HETATM   18  C   UNL     1      41.263 -13.485   1.505  1.00  0.00     0.095 A 
HETATM   19  C   UNL     1      41.337 -13.808   0.117  1.00  0.00     0.101 C 
HETATM   20  N   UNL     1      41.382 -14.068  -1.013  1.00  0.00    -0.191 NA
HETATM   21  C   UNL     1      41.459 -12.204   1.920  1.00  0.00     0.141 A 
HETATM   22  O   UNL     1      41.401 -11.840   3.275  1.00  0.00    -0.279 OA
HETATM   23  H   UNL     1      39.188 -17.290   1.495  1.00  0.00     0.169 HD
ENDROOT
BRANCH  21  24
HETATM   24  N   UNL     1      41.738 -11.132   1.099  1.00  0.00    -0.282 NA
HETATM   25  H   UNL     1      42.411 -11.314   0.358  1.00  0.00     0.126 HD
HETATM   26  H   UNL     1      40.889 -10.690   0.755  1.00  0.00     0.126 HD
ENDBRANCH  21  24
BRANCH   1  27
HETATM   27  C   UNL     1      40.160 -16.077   5.524  1.00  0.00     0.061 C 
BRANCH  27  28
HETATM   28  C   UNL     1      41.171 -16.837   6.385  1.00  0.00     0.002 C 
HETATM   29  C   UNL     1      42.030 -17.817   5.598  1.00  0.00     0.005 C 
ENDBRANCH  27  28
ENDBRANCH   1  27
TORSDOF 3
ENDMDL
MODEL 8
REMARK VINA RESULT:      -6.6      2.128      4.906
REMARK  3 active torsions:
REMARK  status: ('A' for Active; 'I' for Inactive)
REMARK    1  A    between atoms: C_2  and  C_3 
REMARK    2  A    between atoms: C_3  and  C_4 
REMARK    3  A    between atoms: C_24  and  N_25 
ROOT
HETATM    1  C   UNL     1      40.025 -14.459   4.434  1.00  0.00     0.067 A 
HETATM    2  N   UNL     1      39.291 -13.873   3.470  1.00  0.00    -0.177 NA
HETATM    3  N   UNL     1      39.748 -14.410   2.325  1.00  0.00    -0.256 N 
HETATM    4  H   UNL     1      39.327 -14.124   1.448  1.00  0.00     0.191 HD
HETATM    5  C   UNL     1      40.737 -15.313   2.529  1.00  0.00     0.176 A 
HETATM    6  C   UNL     1      40.970 -15.364   3.881  1.00  0.00     0.049 A 
HETATM    7  C   UNL     1      42.003 -16.305   4.400  1.00  0.00     0.145 A 
HETATM    8  C   UNL     1      41.392 -17.292   5.434  1.00  0.00     0.246 A 
HETATM    9  O   UNL     1      40.548 -18.152   5.240  1.00  0.00    -0.271 OA
HETATM   10  N   UNL     1      42.003 -17.035   6.657  1.00  0.00    -0.325 N 
HETATM   11  C   UNL     1      42.928 -16.005   6.559  1.00  0.00     0.043 A 
HETATM   12  C   UNL     1      42.979 -15.506   5.248  1.00  0.00     0.003 A 
HETATM   13  C   UNL     1      43.707 -15.513   7.584  1.00  0.00     0.030 A 
HETATM   14  C   UNL     1      44.582 -14.474   7.277  1.00  0.00     0.003 A 
HETATM   15  C   UNL     1      44.659 -13.963   5.970  1.00  0.00     0.007 A 
HETATM   16  C   UNL     1      43.864 -14.476   4.928  1.00  0.00    -0.051 A 
HETATM   17  C   UNL     1      43.971 -13.887   3.553  1.00  0.00     0.049 C 
HETATM   18  C   UNL     1      42.648 -17.107   3.270  1.00  0.00     0.095 A 
HETATM   19  C   UNL     1      43.646 -18.061   3.628  1.00  0.00     0.101 C 
HETATM   20  N   UNL     1      44.448 -18.847   3.921  1.00  0.00    -0.191 NA
HETATM   21  C   UNL     1      42.298 -16.941   1.965  1.00  0.00     0.141 A 
HETATM   22  O   UNL     1      41.324 -16.012   1.565  1.00  0.00    -0.279 OA
HETATM   23  H   UNL     1      41.792 -17.559   7.494  1.00  0.00     0.169 HD
ENDROOT
BRANCH  21  24
HETATM   24  N   UNL     1      42.835 -17.631   0.899  1.00  0.00    -0.282 NA
HETATM   25  H   UNL     1      42.187 -17.834   0.141  1.00  0.00     0.126 HD
HETATM   26  H   UNL     1      43.698 -17.205   0.571  1.00  0.00     0.126 HD
ENDBRANCH  21  24
BRANCH   1  27
HETATM   27  C   UNL     1      39.730 -14.133   5.864  1.00  0.00     0.061 C 
BRANCH  27  28
HETATM   28  C   UNL     1      39.893 -12.655   6.225  1.00  0.00     0.002 C 
HETATM   29  C   UNL     1      41.337 -12.173   6.191  1.00  0.00     0.005 C 
ENDBRANCH  27  28
ENDBRANCH   1  27
TORSDOF 3
ENDMDL
MODEL 9
REMARK VINA RESULT:      -6.6      2.532      5.416
REMARK  3 active torsions:
REMARK  status: ('A' for Active; 'I' for Inactive)
REMARK    1  A    between atoms: C_2  and  C_3 
REMARK    2  A    between atoms: C_3  and  C_4 
REMARK    3  A    between atoms: C_24  and  N_25 
ROOT
HETATM    1  C   UNL     1      40.308 -13.180   5.009  1.00  0.00     0.067 A 
HETATM    2  N   UNL     1      39.671 -13.475   6.157  1.00  0.00    -0.177 NA
HETATM    3  N   UNL     1      39.961 -14.769   6.382  1.00  0.00    -0.256 N 
HETATM    4  H   UNL     1      39.594 -15.216   7.215  1.00  0.00     0.191 HD
HETATM    5  C   UNL     1      40.758 -15.300   5.424  1.00  0.00     0.176 A 
HETATM    6  C   UNL     1      40.992 -14.315   4.496  1.00  0.00     0.049 A 
HETATM    7  C   UNL     1      41.870 -14.616   3.330  1.00  0.00     0.145 A 
HETATM    8  C   UNL     1      43.075 -13.635   3.269  1.00  0.00     0.246 A 
HETATM    9  O   UNL     1      43.990 -13.521   4.069  1.00  0.00    -0.271 OA
HETATM   10  N   UNL     1      42.942 -12.894   2.099  1.00  0.00    -0.325 N 
HETATM   11  C   UNL     1      41.804 -13.257   1.392  1.00  0.00     0.043 A 
HETATM   12  C   UNL     1      41.103 -14.270   2.066  1.00  0.00     0.003 A 
HETATM   13  C   UNL     1      41.389 -12.723   0.191  1.00  0.00     0.030 A 
HETATM   14  C   UNL     1      40.216 -13.231  -0.361  1.00  0.00     0.003 A 
HETATM   15  C   UNL     1      39.500 -14.252   0.289  1.00  0.00     0.007 A 
HETATM   16  C   UNL     1      39.935 -14.796   1.511  1.00  0.00    -0.051 A 
HETATM   17  C   UNL     1      39.129 -15.873   2.174  1.00  0.00     0.049 C 
HETATM   18  C   UNL     1      42.400 -16.049   3.384  1.00  0.00     0.095 A 
HETATM   19  C   UNL     1      43.270 -16.467   2.334  1.00  0.00     0.101 C 
HETATM   20  N   UNL     1      43.990 -16.802   1.487  1.00  0.00    -0.191 NA
HETATM   21  C   UNL     1      42.075 -16.910   4.386  1.00  0.00     0.141 A 
HETATM   22  O   UNL     1      41.220 -16.544   5.438  1.00  0.00    -0.279 OA
HETATM   23  H   UNL     1      43.613 -12.195   1.816  1.00  0.00     0.169 HD
ENDROOT
BRANCH  21  24
HETATM   24  N   UNL     1      42.518 -18.211   4.497  1.00  0.00    -0.282 NA
HETATM   25  H   UNL     1      42.870 -18.474   5.416  1.00  0.00     0.126 HD
HETATM   26  H   UNL     1      41.836 -18.873   4.137  1.00  0.00     0.126 HD
ENDBRANCH  21  24
BRANCH   1  27
HETATM   27  C   UNL     1      40.249 -11.778   4.492  1.00  0.00     0.061 C 
BRANCH  27  28
HETATM   28  C   UNL     1      38.849 -11.306   4.094  1.00  0.00     0.002 C 
HETATM   29  C   UNL     1      38.540 -11.488   2.615  1.00  0.00     0.005 C 
ENDBRANCH  27  28
ENDBRANCH   1  27
TORSDOF 3
ENDMDL
MODEL 10
REMARK VINA RESULT:      -6.4      3.273      5.954
REMARK  3 active torsions:
REMARK  status: ('A' for Active; 'I' for Inactive)
REMARK    1  A    between atoms: C_2  and  C_3 
REMARK    2  A    between atoms: C_3  and  C_4 
REMARK    3  A    between atoms: C_24  and  N_25 
ROOT
HETATM    1  C   UNL     1      40.516 -15.751   3.092  1.00  0.00     0.067 A 
HETATM    2  N   UNL     1      40.252 -16.987   2.630  1.00  0.00    -0.177 NA
HETATM    3  N   UNL     1      40.515 -16.918   1.312  1.00  0.00    -0.256 N 
HETATM    4  H   UNL     1      40.399 -17.750   0.745  1.00  0.00     0.191 HD
HETATM    5  C   UNL     1      40.938 -15.690   0.928  1.00  0.00     0.176 A 
HETATM    6  C   UNL     1      40.933 -14.889   2.043  1.00  0.00     0.049 A 
HETATM    7  C   UNL     1      41.383 -13.474   1.917  1.00  0.00     0.145 A 
HETATM    8  C   UNL     1      42.568 -13.175   2.878  1.00  0.00     0.246 A 
HETATM    9  O   UNL     1      43.692 -13.650   2.852  1.00  0.00    -0.271 OA
HETATM   10  N   UNL     1      42.123 -12.228   3.795  1.00  0.00    -0.325 N 
HETATM   11  C   UNL     1      40.801 -11.875   3.564  1.00  0.00     0.043 A 
HETATM   12  C   UNL     1      40.282 -12.582   2.468  1.00  0.00     0.003 A 
HETATM   13  C   UNL     1      40.067 -10.959   4.287  1.00  0.00     0.030 A 
HETATM   14  C   UNL     1      38.751 -10.741   3.888  1.00  0.00     0.003 A 
HETATM   15  C   UNL     1      38.209 -11.431   2.789  1.00  0.00     0.007 A 
HETATM   16  C   UNL     1      38.969 -12.358   2.053  1.00  0.00    -0.051 A 
HETATM   17  C   UNL     1      38.343 -13.080   0.897  1.00  0.00     0.049 C 
HETATM   18  C   UNL     1      41.811 -13.148   0.486  1.00  0.00     0.095 A 
HETATM   19  C   UNL     1      42.281 -11.827   0.226  1.00  0.00     0.101 C 
HETATM   20  N   UNL     1      42.678 -10.756   0.018  1.00  0.00    -0.191 NA
HETATM   21  C   UNL     1      41.761 -14.065  -0.518  1.00  0.00     0.141 A 
HETATM   22  O   UNL     1      41.301 -15.376  -0.309  1.00  0.00    -0.279 OA
HETATM   23  H   UNL     1      42.715 -11.851   4.521  1.00  0.00     0.169 HD
ENDROOT
BRANCH  21  24
HETATM   24  N   UNL     1      42.133 -13.841  -1.826  1.00  0.00    -0.282 NA
HETATM   25  H   UNL     1      41.916 -12.914  -2.187  1.00  0.00     0.126 HD
HETATM   26  H   UNL     1      43.100 -14.107  -1.994  1.00  0.00     0.126 HD
ENDBRANCH  21  24
BRANCH   1  27
HETATM   27  C   UNL     1      40.388 -15.488   4.559  1.00  0.00     0.061 C 
BRANCH  27  28
HETATM   28  C   UNL     1      41.308 -16.335   5.440  1.00  0.00     0.002 C 
HETATM   29  C   UNL     1      42.740 -15.821   5.500  1.00  0.00     0.005 C 
ENDBRANCH  27  28
ENDBRANCH   1  27
TORSDOF 3
ENDMDL
