MODEL 1
REMARK VINA RESULT:      -8.7      0.000      0.000
REMARK  6 active torsions:
REMARK  status: ('A' for Active; 'I' for Inactive)
REMARK    1  A    between atoms: C_3  and  N_4 
REMARK       I    between atoms: N_4  and  C_5 
REMARK    2  A    between atoms: C_5  and  C_6 
REMARK    3  A    between atoms: C_14  and  N_15 
REMARK       I    between atoms: N_15  and  C_16 
REMARK       I    between atoms: C_16  and  N_17 
REMARK    4  A    between atoms: N_17  and  C_18 
REMARK    5  A    between atoms: C_18  and  C_19 
REMARK    6  A    between atoms: C_19  and  N_20 
ROOT
HETATM    1  N   UNL     1      39.396 -13.903   5.824  1.00  0.00    -0.309 N 
HETATM    2  C   UNL     1      39.730 -12.792   6.525  1.00  0.00     0.321 C 
HETATM    3  N   UNL     1      40.981 -12.294   6.369  1.00  0.00    -0.337 N 
HETATM    4  O   UNL     1      38.888 -12.208   7.207  1.00  0.00    -0.247 OA
HETATM    5  H   UNL     1      38.392 -14.043   5.769  1.00  0.00     0.170 HD
HETATM    6  H   UNL     1      41.527 -12.700   5.617  1.00  0.00     0.164 HD
ENDROOT
BRANCH   1   7
HETATM    7  C   UNL     1      40.172 -14.995   5.386  1.00  0.00     0.036 A 
HETATM    8  C   UNL     1      40.614 -16.024   6.213  1.00  0.00     0.032 A 
HETATM    9  C   UNL     1      41.306 -17.118   5.677  1.00  0.00     0.032 A 
HETATM   10  C   UNL     1      41.562 -17.215   4.305  1.00  0.00     0.041 A 
HETATM   11  C   UNL     1      41.121 -16.178   3.461  1.00  0.00    -0.033 A 
HETATM   12  C   UNL     1      41.337 -16.206   1.970  1.00  0.00     0.050 C 
HETATM   13  C   UNL     1      40.421 -15.087   4.014  1.00  0.00     0.038 A 
BRANCH  10  14
HETATM   14  N   UNL     1      42.220 -18.324   3.732  1.00  0.00    -0.321 N 
HETATM   15  C   UNL     1      43.538 -18.724   3.872  1.00  0.00     0.279 C 
HETATM   16  O   UNL     1      44.395 -18.137   4.524  1.00  0.00    -0.265 OA
HETATM   17  H   UNL     1      41.666 -18.957   3.166  1.00  0.00     0.169 HD
BRANCH  15  18
HETATM   18  C   UNL     1      43.815 -19.961   3.160  1.00  0.00     0.142 A 
HETATM   19  O   UNL     1      44.520 -20.955   3.792  1.00  0.00    -0.317 OA
HETATM   20  C   UNL     1      44.638 -21.983   2.913  1.00  0.00     0.143 A 
HETATM   21  C   UNL     1      44.030 -21.670   1.720  1.00  0.00     0.027 A 
HETATM   22  C   UNL     1      43.497 -20.368   1.879  1.00  0.00     0.045 A 
ENDBRANCH  15  18
ENDBRANCH  10  14
ENDBRANCH   1   7
BRANCH   3  23
HETATM   23  C   UNL     1      41.615 -11.264   7.199  1.00  0.00     0.108 C 
HETATM   24  C   UNL     1      41.557  -9.910   6.497  1.00  0.00     0.034 C 
BRANCH  23  25
HETATM   25  C   UNL     1      43.015 -11.626   7.786  1.00  0.00     0.259 C 
BRANCH  25  26
HETATM   26  N   UNL     1      43.367 -10.958   9.101  1.00  0.00    -0.069 N 
HETATM   27  H   UNL     1      43.803 -10.047   8.840  1.00  0.00     0.280 HD
HETATM   28  C   UNL     1      42.191 -10.637   9.985  1.00  0.00     0.239 C 
HETATM   29  C   UNL     1      42.658  -9.759  11.149  1.00  0.00     0.007 C 
HETATM   30  C   UNL     1      43.754 -10.470  11.950  1.00  0.00     0.007 C 
HETATM   31  C   UNL     1      41.482  -9.387  12.049  1.00  0.00     0.011 C 
HETATM   32  C   UNL     1      44.909 -10.886  11.046  1.00  0.00     0.028 C 
HETATM   33  C   UNL     1      44.440 -11.708   9.853  1.00  0.00     0.235 C 
ENDBRANCH  25  26
ENDBRANCH  23  25
ENDBRANCH   3  23
TORSDOF 6
ENDMDL
MODEL 2
REMARK VINA RESULT:      -8.6      3.967      6.828
REMARK  6 active torsions:
REMARK  status: ('A' for Active; 'I' for Inactive)
REMARK    1  A    between atoms: C_3  and  N_4 
REMARK       I    between atoms: N_4  and  C_5 
REMARK    2  A    between atoms: C_5  and  C_6 
REMARK    3  A    between atoms: C_14  and  N_15 
REMARK       I    between atoms: N_15  and  C_16 
REMARK       I    between atoms: C_16  and  N_17 
REMARK    4  A    between atoms: N_17  and  C_18 
REMARK    5  A    between atoms: C_18  and  C_19 
REMARK    6  A    between atoms: C_19  and  N_20 
ROOT
HETATM    1  N   UNL     1      44.058 -18.696   4.096  1.00  0.00    -0.309 N 
HETATM    2  C   UNL     1      44.413 -18.193   5.302  1.00  0.00     0.321 C 
HETATM    3  N   UNL     1      43.676 -17.175   5.809  1.00  0.00    -0.337 N 
HETATM    4  O   UNL     1      45.321 -18.713   5.952  1.00  0.00    -0.247 OA
HETATM    5  H   UNL     1      44.458 -19.612   3.921  1.00  0.00     0.170 HD
HETATM    6  H   UNL     1      42.813 -16.968   5.318  1.00  0.00     0.164 HD
ENDROOT
BRANCH   1   7
HETATM    7  C   UNL     1      43.455 -18.089   2.975  1.00  0.00     0.036 A 
HETATM    8  C   UNL     1      44.063 -17.965   1.730  1.00  0.00     0.032 A 
HETATM    9  C   UNL     1      43.357 -17.426   0.645  1.00  0.00     0.032 A 
HETATM   10  C   UNL     1      42.028 -17.011   0.778  1.00  0.00     0.041 A 
HETATM   11  C   UNL     1      41.404 -17.131   2.035  1.00  0.00    -0.033 A 
HETATM   12  C   UNL     1      39.972 -16.726   2.266  1.00  0.00     0.050 C 
HETATM   13  C   UNL     1      42.125 -17.679   3.114  1.00  0.00     0.038 A 
BRANCH  10  14
HETATM   14  N   UNL     1      41.279 -16.503  -0.305  1.00  0.00    -0.321 N 
HETATM   15  C   UNL     1      41.221 -15.210  -0.796  1.00  0.00     0.279 C 
HETATM   16  O   UNL     1      41.816 -14.244  -0.329  1.00  0.00    -0.265 OA
HETATM   17  H   UNL     1      40.728 -17.162  -0.844  1.00  0.00     0.169 HD
BRANCH  15  18
HETATM   18  C   UNL     1      40.370 -15.104  -1.969  1.00  0.00     0.142 A 
HETATM   19  O   UNL     1      39.371 -14.162  -1.989  1.00  0.00    -0.317 OA
HETATM   20  C   UNL     1      38.735 -14.280  -3.183  1.00  0.00     0.143 A 
HETATM   21  C   UNL     1      39.298 -15.286  -3.933  1.00  0.00     0.027 A 
HETATM   22  C   UNL     1      40.353 -15.816  -3.153  1.00  0.00     0.045 A 
ENDBRANCH  15  18
ENDBRANCH  10  14
ENDBRANCH   1   7
BRANCH   3  23
HETATM   23  C   UNL     1      44.026 -16.340   6.963  1.00  0.00     0.108 C 
HETATM   24  C   UNL     1      43.402 -16.906   8.235  1.00  0.00     0.034 C 
BRANCH  23  25
HETATM   25  C   UNL     1      43.830 -14.803   6.778  1.00  0.00     0.259 C 
BRANCH  25  26
HETATM   26  N   UNL     1      43.030 -14.387   5.560  1.00  0.00    -0.069 N 
HETATM   27  H   UNL     1      42.567 -15.258   5.222  1.00  0.00     0.280 HD
HETATM   28  C   UNL     1      41.932 -13.392   5.828  1.00  0.00     0.239 C 
HETATM   29  C   UNL     1      41.062 -13.248   4.578  1.00  0.00     0.007 C 
HETATM   30  C   UNL     1      41.910 -12.801   3.383  1.00  0.00     0.007 C 
HETATM   31  C   UNL     1      39.917 -12.269   4.828  1.00  0.00     0.011 C 
HETATM   32  C   UNL     1      43.082 -13.750   3.159  1.00  0.00     0.028 C 
HETATM   33  C   UNL     1      43.915 -13.943   4.420  1.00  0.00     0.235 C 
ENDBRANCH  25  26
ENDBRANCH  23  25
ENDBRANCH   3  23
TORSDOF 6
ENDMDL
MODEL 3
REMARK VINA RESULT:      -8.4      4.656      8.298
REMARK  6 active torsions:
REMARK  status: ('A' for Active; 'I' for Inactive)
REMARK    1  A    between atoms: C_3  and  N_4 
REMARK       I    between atoms: N_4  and  C_5 
REMARK    2  A    between atoms: C_5  and  C_6 
REMARK    3  A    between atoms: C_14  and  N_15 
REMARK       I    between atoms: N_15  and  C_16 
REMARK       I    between atoms: C_16  and  N_17 
REMARK    4  A    between atoms: N_17  and  C_18 
REMARK    5  A    between atoms: C_18  and  C_19 
REMARK    6  A    between atoms: C_19  and  N_20 
ROOT
HETATM    1  N   UNL     1      41.668 -13.339   3.426  1.00  0.00    -0.309 N 
HETATM    2  C   UNL     1      40.826 -12.842   2.489  1.00  0.00     0.321 C 
HETATM    3  N   UNL     1      39.858 -13.659   2.005  1.00  0.00    -0.337 N 
HETATM    4  O   UNL     1      40.887 -11.657   2.161  1.00  0.00    -0.247 OA
HETATM    5  H   UNL     1      42.160 -12.612   3.934  1.00  0.00     0.170 HD
HETATM    6  H   UNL     1      39.737 -14.538   2.496  1.00  0.00     0.164 HD
ENDROOT
BRANCH   1   7
HETATM    7  C   UNL     1      42.150 -14.646   3.644  1.00  0.00     0.036 A 
HETATM    8  C   UNL     1      41.844 -15.418   4.761  1.00  0.00     0.032 A 
HETATM    9  C   UNL     1      42.296 -16.741   4.854  1.00  0.00     0.032 A 
HETATM   10  C   UNL     1      43.053 -17.325   3.833  1.00  0.00     0.041 A 
HETATM   11  C   UNL     1      43.371 -16.551   2.700  1.00  0.00    -0.033 A 
HETATM   12  C   UNL     1      44.166 -17.101   1.545  1.00  0.00     0.050 C 
HETATM   13  C   UNL     1      42.904 -15.223   2.618  1.00  0.00     0.038 A 
BRANCH  10  14
HETATM   14  N   UNL     1      43.487 -18.667   3.881  1.00  0.00    -0.321 N 
HETATM   15  C   UNL     1      44.460 -19.241   4.682  1.00  0.00     0.279 C 
HETATM   16  O   UNL     1      45.155 -18.644   5.497  1.00  0.00    -0.265 OA
HETATM   17  H   UNL     1      43.010 -19.335   3.287  1.00  0.00     0.169 HD
BRANCH  15  18
HETATM   18  C   UNL     1      44.571 -20.674   4.468  1.00  0.00     0.142 A 
HETATM   19  O   UNL     1      44.504 -21.168   3.188  1.00  0.00    -0.317 OA
HETATM   20  C   UNL     1      44.631 -22.518   3.273  1.00  0.00     0.143 A 
HETATM   21  C   UNL     1      44.772 -22.907   4.584  1.00  0.00     0.027 A 
HETATM   22  C   UNL     1      44.737 -21.721   5.355  1.00  0.00     0.045 A 
ENDBRANCH  15  18
ENDBRANCH  10  14
ENDBRANCH   1   7
BRANCH   3  23
HETATM   23  C   UNL     1      39.012 -13.404   0.834  1.00  0.00     0.108 C 
HETATM   24  C   UNL     1      37.794 -14.323   0.852  1.00  0.00     0.034 C 
BRANCH  23  25
HETATM   25  C   UNL     1      39.749 -13.339  -0.540  1.00  0.00     0.259 C 
BRANCH  25  26
HETATM   26  N   UNL     1      39.304 -14.357  -1.571  1.00  0.00    -0.069 N 
HETATM   27  H   UNL     1      38.850 -15.122  -1.026  1.00  0.00     0.280 HD
HETATM   28  C   UNL     1      38.277 -13.861  -2.555  1.00  0.00     0.239 C 
HETATM   29  C   UNL     1      37.744 -15.041  -3.370  1.00  0.00     0.007 C 
HETATM   30  C   UNL     1      38.890 -15.747  -4.102  1.00  0.00     0.007 C 
HETATM   31  C   UNL     1      36.675 -14.576  -4.356  1.00  0.00     0.011 C 
HETATM   32  C   UNL     1      39.983 -16.171  -3.127  1.00  0.00     0.028 C 
HETATM   33  C   UNL     1      40.472 -15.011  -2.270  1.00  0.00     0.235 C 
ENDBRANCH  25  26
ENDBRANCH  23  25
ENDBRANCH   3  23
TORSDOF 6
ENDMDL
MODEL 4
REMARK VINA RESULT:      -8.3      1.607      2.087
REMARK  6 active torsions:
REMARK  status: ('A' for Active; 'I' for Inactive)
REMARK    1  A    between atoms: C_3  and  N_4 
REMARK       I    between atoms: N_4  and  C_5 
REMARK    2  A    between atoms: C_5  and  C_6 
REMARK    3  A    between atoms: C_14  and  N_15 
REMARK       I    between atoms: N_15  and  C_16 
REMARK       I    between atoms: C_16  and  N_17 
REMARK    4  A    between atoms: N_17  and  C_18 
REMARK    5  A    between atoms: C_18  and  C_19 
REMARK    6  A    between atoms: C_19  and  N_20 
ROOT
HETATM    1  N   UNL     1      39.903 -12.372   5.592  1.00  0.00    -0.309 N 
HETATM    2  C   UNL     1      39.968 -11.483   6.612  1.00  0.00     0.321 C 
HETATM    3  N   UNL     1      41.154 -11.333   7.251  1.00  0.00    -0.337 N 
HETATM    4  O   UNL     1      39.000 -10.772   6.882  1.00  0.00    -0.247 OA
HETATM    5  H   UNL     1      39.096 -12.224   4.995  1.00  0.00     0.170 HD
HETATM    6  H   UNL     1      41.951 -11.785   6.815  1.00  0.00     0.164 HD
ENDROOT
BRANCH   1   7
HETATM    7  C   UNL     1      40.596 -13.579   5.364  1.00  0.00     0.036 A 
HETATM    8  C   UNL     1      40.266 -14.795   5.954  1.00  0.00     0.032 A 
HETATM    9  C   UNL     1      40.954 -15.965   5.602  1.00  0.00     0.032 A 
HETATM   10  C   UNL     1      41.977 -15.947   4.648  1.00  0.00     0.041 A 
HETATM   11  C   UNL     1      42.319 -14.720   4.047  1.00  0.00    -0.033 A 
HETATM   12  C   UNL     1      43.395 -14.610   2.997  1.00  0.00     0.050 C 
HETATM   13  C   UNL     1      41.615 -13.554   4.407  1.00  0.00     0.038 A 
BRANCH  10  14
HETATM   14  N   UNL     1      42.659 -17.115   4.244  1.00  0.00    -0.321 N 
HETATM   15  C   UNL     1      43.684 -17.791   4.882  1.00  0.00     0.279 C 
HETATM   16  O   UNL     1      44.211 -17.454   5.937  1.00  0.00    -0.265 OA
HETATM   17  H   UNL     1      42.349 -17.567   3.391  1.00  0.00     0.169 HD
BRANCH  15  18
HETATM   18  C   UNL     1      44.080 -18.992   4.165  1.00  0.00     0.142 A 
HETATM   19  O   UNL     1      44.589 -20.056   4.869  1.00  0.00    -0.317 OA
HETATM   20  C   UNL     1      44.876 -21.030   3.968  1.00  0.00     0.143 A 
HETATM   21  C   UNL     1      44.571 -20.615   2.693  1.00  0.00     0.027 A 
HETATM   22  C   UNL     1      44.055 -19.302   2.819  1.00  0.00     0.045 A 
ENDBRANCH  15  18
ENDBRANCH  10  14
ENDBRANCH   1   7
BRANCH   3  23
HETATM   23  C   UNL     1      41.377 -10.617   8.512  1.00  0.00     0.108 C 
HETATM   24  C   UNL     1      41.477  -9.116   8.257  1.00  0.00     0.034 C 
BRANCH  23  25
HETATM   25  C   UNL     1      42.498 -11.190   9.433  1.00  0.00     0.259 C 
BRANCH  25  26
HETATM   26  N   UNL     1      42.180 -11.212  10.916  1.00  0.00    -0.069 N 
HETATM   27  H   UNL     1      42.561 -12.118  11.267  1.00  0.00     0.280 HD
HETATM   28  C   UNL     1      42.839 -10.125  11.724  1.00  0.00     0.239 C 
HETATM   29  C   UNL     1      42.633 -10.407  13.214  1.00  0.00     0.007 C 
HETATM   30  C   UNL     1      41.139 -10.489  13.542  1.00  0.00     0.007 C 
HETATM   31  C   UNL     1      43.318  -9.339  14.064  1.00  0.00     0.011 C 
HETATM   32  C   UNL     1      40.442 -11.521  12.663  1.00  0.00     0.028 C 
HETATM   33  C   UNL     1      40.696 -11.279  11.181  1.00  0.00     0.235 C 
ENDBRANCH  25  26
ENDBRANCH  23  25
ENDBRANCH   3  23
TORSDOF 6
ENDMDL
MODEL 5
REMARK VINA RESULT:      -8.2      4.475      8.357
REMARK  6 active torsions:
REMARK  status: ('A' for Active; 'I' for Inactive)
REMARK    1  A    between atoms: C_3  and  N_4 
REMARK       I    between atoms: N_4  and  C_5 
REMARK    2  A    between atoms: C_5  and  C_6 
REMARK    3  A    between atoms: C_14  and  N_15 
REMARK       I    between atoms: N_15  and  C_16 
REMARK       I    between atoms: C_16  and  N_17 
REMARK    4  A    between atoms: N_17  and  C_18 
REMARK    5  A    between atoms: C_18  and  C_19 
REMARK    6  A    between atoms: C_19  and  N_20 
ROOT
HETATM    1  N   UNL     1      40.239 -15.854   5.293  1.00  0.00    -0.309 N 
HETATM    2  C   UNL     1      40.875 -16.656   6.180  1.00  0.00     0.321 C 
HETATM    3  N   UNL     1      42.231 -16.657   6.178  1.00  0.00    -0.337 N 
HETATM    4  O   UNL     1      40.235 -17.288   7.020  1.00  0.00    -0.247 OA
HETATM    5  H   UNL     1      39.269 -15.690   5.540  1.00  0.00     0.170 HD
HETATM    6  H   UNL     1      42.672 -15.938   5.615  1.00  0.00     0.164 HD
ENDROOT
BRANCH   1   7
HETATM    7  C   UNL     1      40.602 -15.423   4.000  1.00  0.00     0.036 A 
HETATM    8  C   UNL     1      40.744 -16.269   2.904  1.00  0.00     0.032 A 
HETATM    9  C   UNL     1      41.021 -15.745   1.634  1.00  0.00     0.032 A 
HETATM   10  C   UNL     1      41.152 -14.368   1.429  1.00  0.00     0.041 A 
HETATM   11  C   UNL     1      41.013 -13.504   2.533  1.00  0.00    -0.033 A 
HETATM   12  C   UNL     1      41.120 -12.007   2.403  1.00  0.00     0.050 C 
HETATM   13  C   UNL     1      40.729 -14.045   3.802  1.00  0.00     0.038 A 
BRANCH  10  14
HETATM   14  N   UNL     1      41.391 -13.809   0.156  1.00  0.00    -0.321 N 
HETATM   15  C   UNL     1      40.524 -13.676  -0.916  1.00  0.00     0.279 C 
HETATM   16  O   UNL     1      39.362 -14.068  -0.944  1.00  0.00    -0.265 OA
HETATM   17  H   UNL     1      42.304 -13.402  -0.014  1.00  0.00     0.169 HD
BRANCH  15  18
HETATM   18  C   UNL     1      41.139 -12.989  -2.039  1.00  0.00     0.142 A 
HETATM   19  O   UNL     1      40.338 -12.451  -3.016  1.00  0.00    -0.317 OA
HETATM   20  C   UNL     1      41.158 -11.879  -3.935  1.00  0.00     0.143 A 
HETATM   21  C   UNL     1      42.475 -12.043  -3.575  1.00  0.00     0.027 A 
HETATM   22  C   UNL     1      42.464 -12.756  -2.352  1.00  0.00     0.045 A 
ENDBRANCH  15  18
ENDBRANCH  10  14
ENDBRANCH   1   7
BRANCH   3  23
HETATM   23  C   UNL     1      43.100 -17.612   6.875  1.00  0.00     0.108 C 
HETATM   24  C   UNL     1      43.388 -17.127   8.293  1.00  0.00     0.034 C 
BRANCH  23  25
HETATM   25  C   UNL     1      44.360 -18.089   6.089  1.00  0.00     0.259 C 
BRANCH  25  26
HETATM   26  N   UNL     1      44.084 -18.887   4.830  1.00  0.00    -0.069 N 
HETATM   27  H   UNL     1      43.115 -19.256   4.944  1.00  0.00     0.280 HD
HETATM   28  C   UNL     1      44.093 -18.087   3.554  1.00  0.00     0.239 C 
HETATM   29  C   UNL     1      43.566 -18.954   2.408  1.00  0.00     0.007 C 
HETATM   30  C   UNL     1      44.420 -20.217   2.256  1.00  0.00     0.007 C 
HETATM   31  C   UNL     1      43.532 -18.161   1.104  1.00  0.00     0.011 C 
HETATM   32  C   UNL     1      44.497 -20.988   3.569  1.00  0.00     0.028 C 
HETATM   33  C   UNL     1      44.962 -20.111   4.725  1.00  0.00     0.235 C 
ENDBRANCH  25  26
ENDBRANCH  23  25
ENDBRANCH   3  23
TORSDOF 6
ENDMDL
MODEL 6
REMARK VINA RESULT:      -8.1      3.380      5.961
REMARK  6 active torsions:
REMARK  status: ('A' for Active; 'I' for Inactive)
REMARK    1  A    between atoms: C_3  and  N_4 
REMARK       I    between atoms: N_4  and  C_5 
REMARK    2  A    between atoms: C_5  and  C_6 
REMARK    3  A    between atoms: C_14  and  N_15 
REMARK       I    between atoms: N_15  and  C_16 
REMARK       I    between atoms: C_16  and  N_17 
REMARK    4  A    between atoms: N_17  and  C_18 
REMARK    5  A    between atoms: C_18  and  C_19 
REMARK    6  A    between atoms: C_19  and  N_20 
ROOT
HETATM    1  N   UNL     1      41.425 -13.395   6.110  1.00  0.00    -0.309 N 
HETATM    2  C   UNL     1      40.822 -12.360   5.477  1.00  0.00     0.321 C 
HETATM    3  N   UNL     1      39.991 -12.644   4.444  1.00  0.00    -0.337 N 
HETATM    4  O   UNL     1      40.959 -11.209   5.892  1.00  0.00    -0.247 OA
HETATM    5  H   UNL     1      41.788 -13.136   7.022  1.00  0.00     0.170 HD
HETATM    6  H   UNL     1      39.758 -13.624   4.321  1.00  0.00     0.164 HD
ENDROOT
BRANCH   1   7
HETATM    7  C   UNL     1      41.842 -14.657   5.642  1.00  0.00     0.036 A 
HETATM    8  C   UNL     1      41.403 -15.871   6.162  1.00  0.00     0.032 A 
HETATM    9  C   UNL     1      41.802 -17.080   5.577  1.00  0.00     0.032 A 
HETATM   10  C   UNL     1      42.637 -17.105   4.456  1.00  0.00     0.041 A 
HETATM   11  C   UNL     1      43.089 -15.882   3.923  1.00  0.00    -0.033 A 
HETATM   12  C   UNL     1      43.977 -15.811   2.708  1.00  0.00     0.050 C 
HETATM   13  C   UNL     1      42.675 -14.674   4.519  1.00  0.00     0.038 A 
BRANCH  10  14
HETATM   14  N   UNL     1      43.022 -18.305   3.821  1.00  0.00    -0.321 N 
HETATM   15  C   UNL     1      44.053 -19.171   4.144  1.00  0.00     0.279 C 
HETATM   16  O   UNL     1      44.854 -19.015   5.059  1.00  0.00    -0.265 OA
HETATM   17  H   UNL     1      42.458 -18.624   3.041  1.00  0.00     0.169 HD
BRANCH  15  18
HETATM   18  C   UNL     1      44.085 -20.335   3.274  1.00  0.00     0.142 A 
HETATM   19  O   UNL     1      44.717 -21.476   3.704  1.00  0.00    -0.317 OA
HETATM   20  C   UNL     1      44.603 -22.395   2.710  1.00  0.00     0.143 A 
HETATM   21  C   UNL     1      43.917 -21.867   1.642  1.00  0.00     0.027 A 
HETATM   22  C   UNL     1      43.580 -20.541   2.004  1.00  0.00     0.045 A 
ENDBRANCH  15  18
ENDBRANCH  10  14
ENDBRANCH   1   7
BRANCH   3  23
HETATM   23  C   UNL     1      39.437 -11.682   3.485  1.00  0.00     0.108 C 
HETATM   24  C   UNL     1      38.297 -10.895   4.124  1.00  0.00     0.034 C 
BRANCH  23  25
HETATM   25  C   UNL     1      39.116 -12.241   2.064  1.00  0.00     0.259 C 
BRANCH  25  26
HETATM   26  N   UNL     1      40.046 -13.328   1.562  1.00  0.00    -0.069 N 
HETATM   27  H   UNL     1      40.928 -13.210   2.108  1.00  0.00     0.280 HD
HETATM   28  C   UNL     1      39.572 -14.735   1.807  1.00  0.00     0.239 C 
HETATM   29  C   UNL     1      40.701 -15.715   1.478  1.00  0.00     0.007 C 
HETATM   30  C   UNL     1      41.149 -15.546   0.023  1.00  0.00     0.007 C 
HETATM   31  C   UNL     1      40.262 -17.153   1.747  1.00  0.00     0.011 C 
HETATM   32  C   UNL     1      41.542 -14.101  -0.264  1.00  0.00     0.028 C 
HETATM   33  C   UNL     1      40.444 -13.118   0.121  1.00  0.00     0.235 C 
ENDBRANCH  25  26
ENDBRANCH  23  25
ENDBRANCH   3  23
TORSDOF 6
ENDMDL
MODEL 7
REMARK VINA RESULT:      -8.0      4.195      7.581
REMARK  6 active torsions:
REMARK  status: ('A' for Active; 'I' for Inactive)
REMARK    1  A    between atoms: C_3  and  N_4 
REMARK       I    between atoms: N_4  and  C_5 
REMARK    2  A    between atoms: C_5  and  C_6 
REMARK    3  A    between atoms: C_14  and  N_15 
REMARK       I    between atoms: N_15  and  C_16 
REMARK       I    between atoms: C_16  and  N_17 
REMARK    4  A    between atoms: N_17  and  C_18 
REMARK    5  A    between atoms: C_18  and  C_19 
REMARK    6  A    between atoms: C_19  and  N_20 
ROOT
HETATM    1  N   UNL     1      44.227 -19.329   2.926  1.00  0.00    -0.309 N 
HETATM    2  C   UNL     1      44.600 -19.641   4.190  1.00  0.00     0.321 C 
HETATM    3  N   UNL     1      43.676 -19.519   5.175  1.00  0.00    -0.337 N 
HETATM    4  O   UNL     1      45.717 -20.109   4.413  1.00  0.00    -0.247 OA
HETATM    5  H   UNL     1      44.857 -19.708   2.227  1.00  0.00     0.170 HD
HETATM    6  H   UNL     1      42.724 -19.352   4.868  1.00  0.00     0.164 HD
ENDROOT
BRANCH   1   7
HETATM    7  C   UNL     1      43.292 -18.394   2.436  1.00  0.00     0.036 A 
HETATM    8  C   UNL     1      42.069 -18.734   1.866  1.00  0.00     0.032 A 
HETATM    9  C   UNL     1      41.161 -17.736   1.486  1.00  0.00     0.032 A 
HETATM   10  C   UNL     1      41.448 -16.381   1.676  1.00  0.00     0.041 A 
HETATM   11  C   UNL     1      42.685 -16.026   2.250  1.00  0.00    -0.033 A 
HETATM   12  C   UNL     1      43.072 -14.593   2.509  1.00  0.00     0.050 C 
HETATM   13  C   UNL     1      43.585 -17.041   2.632  1.00  0.00     0.038 A 
BRANCH  10  14
HETATM   14  N   UNL     1      40.538 -15.356   1.341  1.00  0.00    -0.321 N 
HETATM   15  C   UNL     1      40.342 -14.727   0.123  1.00  0.00     0.279 C 
HETATM   16  O   UNL     1      40.977 -14.946  -0.902  1.00  0.00    -0.265 OA
HETATM   17  H   UNL     1      39.895 -15.046   2.062  1.00  0.00     0.169 HD
BRANCH  15  18
HETATM   18  C   UNL     1      39.261 -13.757   0.174  1.00  0.00     0.142 A 
HETATM   19  O   UNL     1      39.317 -12.647  -0.633  1.00  0.00    -0.317 OA
HETATM   20  C   UNL     1      38.199 -11.916  -0.387  1.00  0.00     0.143 A 
HETATM   21  C   UNL     1      37.424 -12.528   0.569  1.00  0.00     0.027 A 
HETATM   22  C   UNL     1      38.105 -13.715   0.930  1.00  0.00     0.045 A 
ENDBRANCH  15  18
ENDBRANCH  10  14
ENDBRANCH   1   7
BRANCH   3  23
HETATM   23  C   UNL     1      43.933 -19.572   6.618  1.00  0.00     0.108 C 
HETATM   24  C   UNL     1      43.561 -20.944   7.172  1.00  0.00     0.034 C 
BRANCH  23  25
HETATM   25  C   UNL     1      43.389 -18.371   7.453  1.00  0.00     0.259 C 
BRANCH  25  26
HETATM   26  N   UNL     1      43.167 -17.085   6.682  1.00  0.00    -0.069 N 
HETATM   27  H   UNL     1      43.440 -17.301   5.699  1.00  0.00     0.280 HD
HETATM   28  C   UNL     1      41.740 -16.606   6.639  1.00  0.00     0.239 C 
HETATM   29  C   UNL     1      41.623 -15.452   5.641  1.00  0.00     0.007 C 
HETATM   30  C   UNL     1      42.561 -14.307   6.034  1.00  0.00     0.007 C 
HETATM   31  C   UNL     1      40.179 -14.964   5.549  1.00  0.00     0.011 C 
HETATM   32  C   UNL     1      43.997 -14.799   6.174  1.00  0.00     0.028 C 
HETATM   33  C   UNL     1      44.108 -15.988   7.119  1.00  0.00     0.235 C 
ENDBRANCH  25  26
ENDBRANCH  23  25
ENDBRANCH   3  23
TORSDOF 6
ENDMDL
MODEL 8
REMARK VINA RESULT:      -7.8      4.393      8.052
REMARK  6 active torsions:
REMARK  status: ('A' for Active; 'I' for Inactive)
REMARK    1  A    between atoms: C_3  and  N_4 
REMARK       I    between atoms: N_4  and  C_5 
REMARK    2  A    between atoms: C_5  and  C_6 
REMARK    3  A    between atoms: C_14  and  N_15 
REMARK       I    between atoms: N_15  and  C_16 
REMARK       I    between atoms: C_16  and  N_17 
REMARK    4  A    between atoms: N_17  and  C_18 
REMARK    5  A    between atoms: C_18  and  C_19 
REMARK    6  A    between atoms: C_19  and  N_20 
ROOT
HETATM    1  N   UNL     1      42.079 -12.294   4.313  1.00  0.00    -0.309 N 
HETATM    2  C   UNL     1      42.388 -12.999   5.428  1.00  0.00     0.321 C 
HETATM    3  N   UNL     1      42.882 -14.251   5.272  1.00  0.00    -0.337 N 
HETATM    4  O   UNL     1      42.307 -12.475   6.540  1.00  0.00    -0.247 OA
HETATM    5  H   UNL     1      41.994 -11.298   4.492  1.00  0.00     0.170 HD
HETATM    6  H   UNL     1      43.133 -14.512   4.324  1.00  0.00     0.164 HD
ENDROOT
BRANCH   1   7
HETATM    7  C   UNL     1      41.625 -12.710   3.045  1.00  0.00     0.036 A 
HETATM    8  C   UNL     1      42.441 -13.263   2.063  1.00  0.00     0.032 A 
HETATM    9  C   UNL     1      41.890 -13.732   0.863  1.00  0.00     0.032 A 
HETATM   10  C   UNL     1      40.514 -13.669   0.621  1.00  0.00     0.041 A 
HETATM   11  C   UNL     1      39.679 -13.109   1.608  1.00  0.00    -0.033 A 
HETATM   12  C   UNL     1      38.185 -13.016   1.442  1.00  0.00     0.050 C 
HETATM   13  C   UNL     1      40.247 -12.646   2.812  1.00  0.00     0.038 A 
BRANCH  10  14
HETATM   14  N   UNL     1      39.926 -14.169  -0.560  1.00  0.00    -0.321 N 
HETATM   15  C   UNL     1      39.988 -13.664  -1.847  1.00  0.00     0.279 C 
HETATM   16  O   UNL     1      40.565 -12.635  -2.181  1.00  0.00    -0.265 OA
HETATM   17  H   UNL     1      39.415 -15.043  -0.495  1.00  0.00     0.169 HD
BRANCH  15  18
HETATM   18  C   UNL     1      39.290 -14.508  -2.803  1.00  0.00     0.142 A 
HETATM   19  O   UNL     1      37.941 -14.333  -2.992  1.00  0.00    -0.317 OA
HETATM   20  C   UNL     1      37.547 -15.240  -3.923  1.00  0.00     0.143 A 
HETATM   21  C   UNL     1      38.614 -16.004  -4.334  1.00  0.00     0.027 A 
HETATM   22  C   UNL     1      39.738 -15.532  -3.615  1.00  0.00     0.045 A 
ENDBRANCH  15  18
ENDBRANCH  10  14
ENDBRANCH   1   7
BRANCH   3  23
HETATM   23  C   UNL     1      43.051 -15.256   6.327  1.00  0.00     0.108 C 
HETATM   24  C   UNL     1      44.460 -15.181   6.909  1.00  0.00     0.034 C 
BRANCH  23  25
HETATM   25  C   UNL     1      42.575 -16.700   5.977  1.00  0.00     0.259 C 
BRANCH  25  26
HETATM   26  N   UNL     1      42.783 -17.128   4.538  1.00  0.00    -0.069 N 
HETATM   27  H   UNL     1      43.447 -16.431   4.135  1.00  0.00     0.280 HD
HETATM   28  C   UNL     1      43.419 -18.481   4.361  1.00  0.00     0.239 C 
HETATM   29  C   UNL     1      43.789 -18.678   2.889  1.00  0.00     0.007 C 
HETATM   30  C   UNL     1      42.547 -18.550   2.002  1.00  0.00     0.007 C 
HETATM   31  C   UNL     1      44.468 -20.031   2.680  1.00  0.00     0.011 C 
HETATM   32  C   UNL     1      41.839 -17.221   2.242  1.00  0.00     0.028 C 
HETATM   33  C   UNL     1      41.525 -16.993   3.714  1.00  0.00     0.235 C 
ENDBRANCH  25  26
ENDBRANCH  23  25
ENDBRANCH   3  23
TORSDOF 6
ENDMDL
MODEL 9
REMARK VINA RESULT:      -7.7      4.588      7.278
REMARK  6 active torsions:
REMARK  status: ('A' for Active; 'I' for Inactive)
REMARK    1  A    between atoms: C_3  and  N_4 
REMARK       I    between atoms: N_4  and  C_5 
REMARK    2  A    between atoms: C_5  and  C_6 
REMARK    3  A    between atoms: C_14  and  N_15 
REMARK       I    between atoms: N_15  and  C_16 
REMARK       I    between atoms: C_16  and  N_17 
REMARK    4  A    between atoms: N_17  and  C_18 
REMARK    5  A    between atoms: C_18  and  C_19 
REMARK    6  A    between atoms: C_19  and  N_20 
ROOT
HETATM    1  N   UNL     1      40.595 -13.589   4.050  1.00  0.00    -0.309 N 
HETATM    2  C   UNL     1      40.002 -12.980   2.995  1.00  0.00     0.321 C 
HETATM    3  N   UNL     1      39.389 -13.761   2.072  1.00  0.00    -0.337 N 
HETATM    4  O   UNL     1      39.948 -11.752   2.934  1.00  0.00    -0.247 OA
HETATM    5  H   UNL     1      40.773 -12.953   4.820  1.00  0.00     0.170 HD
HETATM    6  H   UNL     1      39.282 -14.738   2.322  1.00  0.00     0.164 HD
ENDROOT
BRANCH   1   7
HETATM    7  C   UNL     1      41.213 -14.851   4.170  1.00  0.00     0.036 A 
HETATM    8  C   UNL     1      40.873 -15.803   5.127  1.00  0.00     0.032 A 
HETATM    9  C   UNL     1      41.478 -17.067   5.118  1.00  0.00     0.032 A 
HETATM   10  C   UNL     1      42.426 -17.412   4.149  1.00  0.00     0.041 A 
HETATM   11  C   UNL     1      42.779 -16.454   3.178  1.00  0.00    -0.033 A 
HETATM   12  C   UNL     1      43.777 -16.743   2.087  1.00  0.00     0.050 C 
HETATM   13  C   UNL     1      42.158 -15.190   3.196  1.00  0.00     0.038 A 
BRANCH  10  14
HETATM   14  N   UNL     1      43.022 -18.689   4.090  1.00  0.00    -0.321 N 
HETATM   15  C   UNL     1      44.177 -19.142   4.705  1.00  0.00     0.279 C 
HETATM   16  O   UNL     1      44.921 -18.468   5.408  1.00  0.00    -0.265 OA
HETATM   17  H   UNL     1      42.537 -19.409   3.566  1.00  0.00     0.169 HD
BRANCH  15  18
HETATM   18  C   UNL     1      44.425 -20.549   4.438  1.00  0.00     0.142 A 
HETATM   19  O   UNL     1      44.325 -21.016   3.150  1.00  0.00    -0.317 OA
HETATM   20  C   UNL     1      44.600 -22.345   3.184  1.00  0.00     0.143 A 
HETATM   21  C   UNL     1      44.868 -22.750   4.470  1.00  0.00     0.027 A 
HETATM   22  C   UNL     1      44.758 -21.594   5.279  1.00  0.00     0.045 A 
ENDBRANCH  15  18
ENDBRANCH  10  14
ENDBRANCH   1   7
BRANCH   3  23
HETATM   23  C   UNL     1      38.906 -13.332   0.755  1.00  0.00     0.108 C 
HETATM   24  C   UNL     1      37.395 -13.120   0.789  1.00  0.00     0.034 C 
BRANCH  23  25
HETATM   25  C   UNL     1      39.412 -14.166  -0.462  1.00  0.00     0.259 C 
BRANCH  25  26
HETATM   26  N   UNL     1      40.333 -13.436  -1.420  1.00  0.00    -0.069 N 
HETATM   27  H   UNL     1      39.719 -12.775  -1.944  1.00  0.00     0.280 HD
HETATM   28  C   UNL     1      41.402 -12.603  -0.763  1.00  0.00     0.239 C 
HETATM   29  C   UNL     1      42.093 -11.740  -1.822  1.00  0.00     0.007 C 
HETATM   30  C   UNL     1      42.698 -12.622  -2.919  1.00  0.00     0.007 C 
HETATM   31  C   UNL     1      43.163 -10.858  -1.183  1.00  0.00     0.011 C 
HETATM   32  C   UNL     1      41.643 -13.539  -3.528  1.00  0.00     0.028 C 
HETATM   33  C   UNL     1      40.910 -14.354  -2.470  1.00  0.00     0.235 C 
ENDBRANCH  25  26
ENDBRANCH  23  25
ENDBRANCH   3  23
TORSDOF 6
ENDMDL
MODEL 10
REMARK VINA RESULT:      -7.7      3.895      7.211
REMARK  6 active torsions:
REMARK  status: ('A' for Active; 'I' for Inactive)
REMARK    1  A    between atoms: C_3  and  N_4 
REMARK       I    between atoms: N_4  and  C_5 
REMARK    2  A    between atoms: C_5  and  C_6 
REMARK    3  A    between atoms: C_14  and  N_15 
REMARK       I    between atoms: N_15  and  C_16 
REMARK       I    between atoms: C_16  and  N_17 
REMARK    4  A    between atoms: N_17  and  C_18 
REMARK    5  A    between atoms: C_18  and  C_19 
REMARK    6  A    between atoms: C_19  and  N_20 
ROOT
HETATM    1  N   UNL     1      44.011 -19.702   3.463  1.00  0.00    -0.309 N 
HETATM    2  C   UNL     1      44.212 -19.681   4.803  1.00  0.00     0.321 C 
HETATM    3  N   UNL     1      43.389 -18.913   5.558  1.00  0.00    -0.337 N 
HETATM    4  O   UNL     1      45.059 -20.411   5.317  1.00  0.00    -0.247 OA
HETATM    5  H   UNL     1      44.459 -20.493   3.013  1.00  0.00     0.170 HD
HETATM    6  H   UNL     1      42.580 -18.531   5.080  1.00  0.00     0.164 HD
ENDROOT
BRANCH   1   7
HETATM    7  C   UNL     1      43.516 -18.719   2.581  1.00  0.00     0.036 A 
HETATM    8  C   UNL     1      44.226 -18.210   1.498  1.00  0.00     0.032 A 
HETATM    9  C   UNL     1      43.624 -17.299   0.619  1.00  0.00     0.032 A 
HETATM   10  C   UNL     1      42.300 -16.885   0.796  1.00  0.00     0.041 A 
HETATM   11  C   UNL     1      41.574 -17.392   1.891  1.00  0.00    -0.033 A 
HETATM   12  C   UNL     1      40.138 -17.016   2.150  1.00  0.00     0.050 C 
HETATM   13  C   UNL     1      42.191 -18.312   2.763  1.00  0.00     0.038 A 
BRANCH  10  14
HETATM   14  N   UNL     1      41.655 -16.001  -0.094  1.00  0.00    -0.321 N 
HETATM   15  C   UNL     1      41.589 -14.618  -0.056  1.00  0.00     0.279 C 
HETATM   16  O   UNL     1      42.077 -13.906   0.814  1.00  0.00    -0.265 OA
HETATM   17  H   UNL     1      41.203 -16.402  -0.908  1.00  0.00     0.169 HD
BRANCH  15  18
HETATM   18  C   UNL     1      40.872 -14.071  -1.196  1.00  0.00     0.142 A 
HETATM   19  O   UNL     1      41.580 -13.468  -2.207  1.00  0.00    -0.317 OA
HETATM   20  C   UNL     1      40.679 -13.049  -3.132  1.00  0.00     0.143 A 
HETATM   21  C   UNL     1      39.400 -13.363  -2.736  1.00  0.00     0.027 A 
HETATM   22  C   UNL     1      39.523 -14.024  -1.491  1.00  0.00     0.045 A 
ENDBRANCH  15  18
ENDBRANCH  10  14
ENDBRANCH   1   7
BRANCH   3  23
HETATM   23  C   UNL     1      43.580 -18.564   6.970  1.00  0.00     0.108 C 
HETATM   24  C   UNL     1      43.721 -19.828   7.813  1.00  0.00     0.034 C 
BRANCH  23  25
HETATM   25  C   UNL     1      42.590 -17.508   7.553  1.00  0.00     0.259 C 
BRANCH  25  26
HETATM   26  N   UNL     1      42.781 -16.088   7.058  1.00  0.00    -0.069 N 
HETATM   27  H   UNL     1      42.264 -15.487   7.737  1.00  0.00     0.280 HD
HETATM   28  C   UNL     1      44.206 -15.603   7.051  1.00  0.00     0.239 C 
HETATM   29  C   UNL     1      44.228 -14.099   6.768  1.00  0.00     0.007 C 
HETATM   30  C   UNL     1      43.552 -13.797   5.427  1.00  0.00     0.007 C 
HETATM   31  C   UNL     1      45.660 -13.568   6.785  1.00  0.00     0.011 C 
HETATM   32  C   UNL     1      42.138 -14.367   5.386  1.00  0.00     0.028 C 
HETATM   33  C   UNL     1      42.106 -15.851   5.729  1.00  0.00     0.235 C 
ENDBRANCH  25  26
ENDBRANCH  23  25
ENDBRANCH   3  23
TORSDOF 6
ENDMDL
