MODEL 1
REMARK VINA RESULT:      -8.6      0.000      0.000
REMARK  10 active torsions:
REMARK  status: ('A' for Active; 'I' for Inactive)
REMARK    1  A    between atoms: C_2  and  C_3 
REMARK    2  A    between atoms: C_3  and  C_4 
REMARK    3  A    between atoms: C_4  and  O_5 
REMARK    4  A    between atoms: O_5  and  C_6 
REMARK    5  A    between atoms: C_9  and  C_10 
REMARK       I    between atoms: C_10  and  N_11 
REMARK    6  A    between atoms: N_11  and  C_12 
REMARK    7  A    between atoms: C_12  and  N_13 
REMARK    8  A    between atoms: N_13  and  C_14 
REMARK    9  A    between atoms: C_16  and  C_17 
REMARK   10  A    between atoms: C_26  and  O_27 
ROOT
HETATM    1  N   UNL     1      40.325 -15.249   4.262  1.00  0.00    -0.337 N 
HETATM    2  H   UNL     1      39.491 -15.707   4.617  1.00  0.00     0.168 HD
ENDROOT
BRANCH   1   3
HETATM    3  C   UNL     1      40.997 -14.482   5.193  1.00  0.00     0.157 C 
HETATM    4  S   UNL     1      40.140 -13.343   6.061  1.00  0.00    -0.047 SA
BRANCH   3   5
HETATM    5  N   UNL     1      42.365 -14.689   5.230  1.00  0.00    -0.201 NA
HETATM    6  C   UNL     1      43.109 -15.236   6.260  1.00  0.00     0.237 C 
HETATM    7  O   UNL     1      43.720 -14.532   7.056  1.00  0.00    -0.274 OA
HETATM    8  H   UNL     1      42.782 -13.792   5.005  1.00  0.00     0.139 HD
BRANCH   6   9
HETATM    9  C   UNL     1      43.420 -16.681   6.115  1.00  0.00     0.026 A 
HETATM   10  C   UNL     1      42.520 -17.601   5.567  1.00  0.00     0.019 A 
HETATM   11  C   UNL     1      42.922 -18.922   5.355  1.00  0.00     0.038 A 
HETATM   12  C   UNL     1      44.228 -19.304   5.654  1.00  0.00     0.068 A 
HETATM   13  C   UNL     1      45.122 -18.408   6.234  1.00  0.00     0.038 A 
HETATM   14  C   UNL     1      44.715 -17.094   6.468  1.00  0.00     0.019 A 
BRANCH  12  15
HETATM   15  O   UNL     1      44.606 -20.591   5.391  1.00  0.00    -0.351 OA
BRANCH  15  16
HETATM   16  C   UNL     1      45.182 -20.701   4.081  1.00  0.00     0.175 C 
BRANCH  16  17
HETATM   17  C   UNL     1      44.512 -21.867   3.361  1.00  0.00     0.026 C 
BRANCH  17  18
HETATM   18  C   UNL     1      44.016 -21.468   1.975  1.00  0.00    -0.002 C 
HETATM   19  C   UNL     1      43.474 -20.048   1.965  1.00  0.00     0.005 C 
ENDBRANCH  17  18
ENDBRANCH  16  17
ENDBRANCH  15  16
ENDBRANCH  12  15
ENDBRANCH   6   9
ENDBRANCH   3   5
ENDBRANCH   1   3
BRANCH   1  20
HETATM   20  C   UNL     1      40.663 -15.488   2.910  1.00  0.00     0.035 A 
HETATM   21  C   UNL     1      40.977 -14.389   2.099  1.00  0.00     0.048 A 
HETATM   22  C   UNL     1      41.371 -14.571   0.760  1.00  0.00     0.052 A 
HETATM   23  C   UNL     1      41.394 -15.878   0.243  1.00  0.00     0.080 A 
HETATM   24  C   UNL     1      41.029 -16.966   1.025  1.00  0.00     0.040 A 
HETATM   25  C   UNL     1      40.664 -16.771   2.354  1.00  0.00     0.032 A 
BRANCH  22  26
HETATM   26  C   UNL     1      41.781 -13.451  -0.083  1.00  0.00     0.183 A 
HETATM   27  O   UNL     1      41.503 -13.521  -1.424  1.00  0.00    -0.289 OA
HETATM   28  C   UNL     1      41.987 -12.343  -1.916  1.00  0.00     0.106 A 
HETATM   29  C   UNL     1      42.524 -11.627  -0.859  1.00  0.00     0.093 A 
HETATM   30  C   UNL     1      41.962 -11.901  -3.234  1.00  0.00     0.040 A 
HETATM   31  N   UNL     1      42.396 -12.345   0.302  1.00  0.00    -0.221 NA
HETATM   32  C   UNL     1      43.082 -10.366  -1.100  1.00  0.00     0.034 A 
HETATM   33  C   UNL     1      43.074  -9.883  -2.417  1.00  0.00     0.002 A 
HETATM   34  C   UNL     1      42.526 -10.639  -3.462  1.00  0.00     0.003 A 
ENDBRANCH  22  26
BRANCH  23  35
HETATM   35  O   UNL     1      41.768 -16.170  -1.044  1.00  0.00    -0.360 OA
HETATM   36  H   UNL     1      41.553 -15.401  -1.616  1.00  0.00     0.217 HD
ENDBRANCH  23  35
ENDBRANCH   1  20
TORSDOF 10
ENDMDL
MODEL 2
REMARK VINA RESULT:      -8.4      2.762      6.722
REMARK  10 active torsions:
REMARK  status: ('A' for Active; 'I' for Inactive)
REMARK    1  A    between atoms: C_2  and  C_3 
REMARK    2  A    between atoms: C_3  and  C_4 
REMARK    3  A    between atoms: C_4  and  O_5 
REMARK    4  A    between atoms: O_5  and  C_6 
REMARK    5  A    between atoms: C_9  and  C_10 
REMARK       I    between atoms: C_10  and  N_11 
REMARK    6  A    between atoms: N_11  and  C_12 
REMARK    7  A    between atoms: C_12  and  N_13 
REMARK    8  A    between atoms: N_13  and  C_14 
REMARK    9  A    between atoms: C_16  and  C_17 
REMARK   10  A    between atoms: C_26  and  O_27 
ROOT
HETATM    1  N   UNL     1      38.648 -12.981   1.709  1.00  0.00    -0.337 N 
HETATM    2  H   UNL     1      37.648 -12.902   1.551  1.00  0.00     0.168 HD
ENDROOT
BRANCH   1   3
HETATM    3  C   UNL     1      39.396 -13.168   0.564  1.00  0.00     0.157 C 
HETATM    4  S   UNL     1      39.910 -11.827  -0.286  1.00  0.00    -0.047 SA
BRANCH   3   5
HETATM    5  N   UNL     1      39.554 -14.492   0.190  1.00  0.00    -0.201 NA
HETATM    6  C   UNL     1      40.712 -15.117  -0.233  1.00  0.00     0.237 C 
HETATM    7  O   UNL     1      40.948 -15.297  -1.423  1.00  0.00    -0.274 OA
HETATM    8  H   UNL     1      38.848 -14.660  -0.519  1.00  0.00     0.139 HD
BRANCH   6   9
HETATM    9  C   UNL     1      41.444 -15.870   0.818  1.00  0.00     0.026 A 
HETATM   10  C   UNL     1      41.262 -17.239   1.037  1.00  0.00     0.019 A 
HETATM   11  C   UNL     1      42.068 -17.905   1.964  1.00  0.00     0.038 A 
HETATM   12  C   UNL     1      43.072 -17.209   2.635  1.00  0.00     0.068 A 
HETATM   13  C   UNL     1      43.237 -15.839   2.452  1.00  0.00     0.038 A 
HETATM   14  C   UNL     1      42.419 -15.167   1.544  1.00  0.00     0.019 A 
BRANCH  12  15
HETATM   15  O   UNL     1      43.874 -17.898   3.501  1.00  0.00    -0.351 OA
BRANCH  15  16
HETATM   16  C   UNL     1      43.459 -19.268   3.607  1.00  0.00     0.175 C 
BRANCH  16  17
HETATM   17  C   UNL     1      44.701 -20.128   3.814  1.00  0.00     0.026 C 
BRANCH  17  18
HETATM   18  C   UNL     1      44.584 -21.473   3.102  1.00  0.00    -0.002 C 
HETATM   19  C   UNL     1      43.736 -21.366   1.846  1.00  0.00     0.005 C 
ENDBRANCH  17  18
ENDBRANCH  16  17
ENDBRANCH  15  16
ENDBRANCH  12  15
ENDBRANCH   6   9
ENDBRANCH   3   5
ENDBRANCH   1   3
BRANCH   1  20
HETATM   20  C   UNL     1      39.097 -12.863   3.045  1.00  0.00     0.035 A 
HETATM   21  C   UNL     1      39.842 -13.918   3.591  1.00  0.00     0.048 A 
HETATM   22  C   UNL     1      40.360 -13.834   4.896  1.00  0.00     0.052 A 
HETATM   23  C   UNL     1      40.069 -12.688   5.658  1.00  0.00     0.080 A 
HETATM   24  C   UNL     1      39.283 -11.665   5.143  1.00  0.00     0.040 A 
HETATM   25  C   UNL     1      38.799 -11.753   3.841  1.00  0.00     0.032 A 
BRANCH  22  26
HETATM   26  C   UNL     1      41.207 -14.881   5.461  1.00  0.00     0.183 A 
HETATM   27  O   UNL     1      42.529 -14.591   5.678  1.00  0.00    -0.289 OA
HETATM   28  C   UNL     1      43.029 -15.744   6.213  1.00  0.00     0.106 A 
HETATM   29  C   UNL     1      41.993 -16.661   6.296  1.00  0.00     0.093 A 
HETATM   30  C   UNL     1      44.334 -15.993   6.620  1.00  0.00     0.040 A 
HETATM   31  N   UNL     1      40.840 -16.105   5.807  1.00  0.00    -0.221 NA
HETATM   32  C   UNL     1      42.245 -17.931   6.827  1.00  0.00     0.034 A 
HETATM   33  C   UNL     1      43.551 -18.221   7.251  1.00  0.00     0.002 A 
HETATM   34  C   UNL     1      44.573 -17.269   7.147  1.00  0.00     0.003 A 
ENDBRANCH  22  26
BRANCH  23  35
HETATM   35  O   UNL     1      40.527 -12.499   6.937  1.00  0.00    -0.360 OA
HETATM   36  H   UNL     1      41.488 -12.696   6.959  1.00  0.00     0.217 HD
ENDBRANCH  23  35
ENDBRANCH   1  20
TORSDOF 10
ENDMDL
MODEL 3
REMARK VINA RESULT:      -8.4      3.042      5.833
REMARK  10 active torsions:
REMARK  status: ('A' for Active; 'I' for Inactive)
REMARK    1  A    between atoms: C_2  and  C_3 
REMARK    2  A    between atoms: C_3  and  C_4 
REMARK    3  A    between atoms: C_4  and  O_5 
REMARK    4  A    between atoms: O_5  and  C_6 
REMARK    5  A    between atoms: C_9  and  C_10 
REMARK       I    between atoms: C_10  and  N_11 
REMARK    6  A    between atoms: N_11  and  C_12 
REMARK    7  A    between atoms: C_12  and  N_13 
REMARK    8  A    between atoms: N_13  and  C_14 
REMARK    9  A    between atoms: C_16  and  C_17 
REMARK   10  A    between atoms: C_26  and  O_27 
ROOT
HETATM    1  N   UNL     1      42.307 -18.190   5.765  1.00  0.00    -0.337 N 
HETATM    2  H   UNL     1      41.489 -18.743   5.999  1.00  0.00     0.168 HD
ENDROOT
BRANCH   1   3
HETATM    3  C   UNL     1      43.037 -17.759   6.855  1.00  0.00     0.157 C 
HETATM    4  S   UNL     1      43.993 -18.861   7.666  1.00  0.00    -0.047 SA
BRANCH   3   5
HETATM    5  N   UNL     1      42.807 -16.442   7.217  1.00  0.00    -0.201 NA
HETATM    6  C   UNL     1      43.599 -15.341   6.947  1.00  0.00     0.237 C 
HETATM    7  O   UNL     1      44.375 -14.888   7.780  1.00  0.00    -0.274 OA
HETATM    8  H   UNL     1      42.652 -16.460   8.220  1.00  0.00     0.139 HD
BRANCH   6   9
HETATM    9  C   UNL     1      43.186 -14.542   5.765  1.00  0.00     0.026 A 
HETATM   10  C   UNL     1      43.999 -14.375   4.639  1.00  0.00     0.019 A 
HETATM   11  C   UNL     1      43.501 -13.708   3.518  1.00  0.00     0.038 A 
HETATM   12  C   UNL     1      42.186 -13.247   3.513  1.00  0.00     0.068 A 
HETATM   13  C   UNL     1      41.380 -13.374   4.642  1.00  0.00     0.038 A 
HETATM   14  C   UNL     1      41.883 -14.020   5.771  1.00  0.00     0.019 A 
BRANCH  12  15
HETATM   15  O   UNL     1      41.713 -12.639   2.384  1.00  0.00    -0.351 OA
BRANCH  15  16
HETATM   16  C   UNL     1      40.483 -11.947   2.651  1.00  0.00     0.175 C 
BRANCH  16  17
HETATM   17  C   UNL     1      40.262 -10.925   1.541  1.00  0.00     0.026 C 
BRANCH  17  18
HETATM   18  C   UNL     1      38.834 -10.386   1.543  1.00  0.00    -0.002 C 
HETATM   19  C   UNL     1      38.112 -10.731   2.835  1.00  0.00     0.005 C 
ENDBRANCH  17  18
ENDBRANCH  16  17
ENDBRANCH  15  16
ENDBRANCH  12  15
ENDBRANCH   6   9
ENDBRANCH   3   5
ENDBRANCH   1   3
BRANCH   1  20
HETATM   20  C   UNL     1      42.567 -17.978   4.392  1.00  0.00     0.035 A 
HETATM   21  C   UNL     1      41.671 -17.189   3.658  1.00  0.00     0.048 A 
HETATM   22  C   UNL     1      41.907 -16.902   2.301  1.00  0.00     0.052 A 
HETATM   23  C   UNL     1      43.038 -17.466   1.686  1.00  0.00     0.080 A 
HETATM   24  C   UNL     1      43.900 -18.296   2.393  1.00  0.00     0.040 A 
HETATM   25  C   UNL     1      43.664 -18.551   3.740  1.00  0.00     0.032 A 
BRANCH  22  26
HETATM   26  C   UNL     1      41.033 -16.017   1.535  1.00  0.00     0.183 A 
HETATM   27  O   UNL     1      39.787 -15.751   2.040  1.00  0.00    -0.289 OA
HETATM   28  C   UNL     1      39.241 -14.902   1.120  1.00  0.00     0.106 A 
HETATM   29  C   UNL     1      40.176 -14.697   0.119  1.00  0.00     0.093 A 
HETATM   30  C   UNL     1      37.978 -14.321   1.147  1.00  0.00     0.040 A 
HETATM   31  N   UNL     1      41.310 -15.418   0.388  1.00  0.00    -0.221 NA
HETATM   32  C   UNL     1      39.862 -13.848  -0.949  1.00  0.00     0.034 A 
HETATM   33  C   UNL     1      38.597 -13.241  -0.956  1.00  0.00     0.002 A 
HETATM   34  C   UNL     1      37.675 -13.476   0.071  1.00  0.00     0.003 A 
ENDBRANCH  22  26
BRANCH  23  35
HETATM   35  O   UNL     1      43.368 -17.248   0.373  1.00  0.00    -0.360 OA
HETATM   36  H   UNL     1      42.564 -16.954  -0.108  1.00  0.00     0.217 HD
ENDBRANCH  23  35
ENDBRANCH   1  20
TORSDOF 10
ENDMDL
MODEL 4
REMARK VINA RESULT:      -8.4      3.050      6.118
REMARK  10 active torsions:
REMARK  status: ('A' for Active; 'I' for Inactive)
REMARK    1  A    between atoms: C_2  and  C_3 
REMARK    2  A    between atoms: C_3  and  C_4 
REMARK    3  A    between atoms: C_4  and  O_5 
REMARK    4  A    between atoms: O_5  and  C_6 
REMARK    5  A    between atoms: C_9  and  C_10 
REMARK       I    between atoms: C_10  and  N_11 
REMARK    6  A    between atoms: N_11  and  C_12 
REMARK    7  A    between atoms: C_12  and  N_13 
REMARK    8  A    between atoms: N_13  and  C_14 
REMARK    9  A    between atoms: C_16  and  C_17 
REMARK   10  A    between atoms: C_26  and  O_27 
ROOT
HETATM    1  N   UNL     1      41.826 -12.402   1.711  1.00  0.00    -0.337 N 
HETATM    2  H   UNL     1      42.715 -12.343   1.224  1.00  0.00     0.168 HD
ENDROOT
BRANCH   1   3
HETATM    3  C   UNL     1      41.357 -11.196   2.193  1.00  0.00     0.157 C 
HETATM    4  S   UNL     1      40.887 -10.024   1.101  1.00  0.00    -0.047 SA
BRANCH   3   5
HETATM    5  N   UNL     1      41.425 -11.061   3.569  1.00  0.00    -0.201 NA
HETATM    6  C   UNL     1      40.540 -11.552   4.511  1.00  0.00     0.237 C 
HETATM    7  O   UNL     1      39.672 -10.844   5.008  1.00  0.00    -0.274 OA
HETATM    8  H   UNL     1      41.521 -10.065   3.741  1.00  0.00     0.139 HD
BRANCH   6   9
HETATM    9  C   UNL     1      40.935 -12.838   5.140  1.00  0.00     0.026 A 
HETATM   10  C   UNL     1      40.043 -13.899   5.325  1.00  0.00     0.019 A 
HETATM   11  C   UNL     1      40.512 -15.120   5.816  1.00  0.00     0.038 A 
HETATM   12  C   UNL     1      41.869 -15.285   6.082  1.00  0.00     0.068 A 
HETATM   13  C   UNL     1      42.761 -14.225   5.937  1.00  0.00     0.038 A 
HETATM   14  C   UNL     1      42.291 -12.998   5.468  1.00  0.00     0.019 A 
BRANCH  12  15
HETATM   15  O   UNL     1      42.305 -16.505   6.517  1.00  0.00    -0.351 OA
BRANCH  15  16
HETATM   16  C   UNL     1      43.376 -16.361   7.462  1.00  0.00     0.175 C 
BRANCH  16  17
HETATM   17  C   UNL     1      43.527 -17.679   8.215  1.00  0.00     0.026 C 
BRANCH  17  18
HETATM   18  C   UNL     1      44.298 -18.713   7.400  1.00  0.00    -0.002 C 
HETATM   19  C   UNL     1      43.683 -20.096   7.531  1.00  0.00     0.005 C 
ENDBRANCH  17  18
ENDBRANCH  16  17
ENDBRANCH  15  16
ENDBRANCH  12  15
ENDBRANCH   6   9
ENDBRANCH   3   5
ENDBRANCH   1   3
BRANCH   1  20
HETATM   20  C   UNL     1      41.220 -13.677   1.790  1.00  0.00     0.035 A 
HETATM   21  C   UNL     1      42.041 -14.789   2.020  1.00  0.00     0.048 A 
HETATM   22  C   UNL     1      41.488 -16.076   2.161  1.00  0.00     0.052 A 
HETATM   23  C   UNL     1      40.097 -16.224   2.014  1.00  0.00     0.080 A 
HETATM   24  C   UNL     1      39.285 -15.134   1.729  1.00  0.00     0.040 A 
HETATM   25  C   UNL     1      39.845 -13.865   1.616  1.00  0.00     0.032 A 
BRANCH  22  26
HETATM   26  C   UNL     1      42.309 -17.239   2.481  1.00  0.00     0.183 A 
HETATM   27  O   UNL     1      42.176 -18.356   1.698  1.00  0.00    -0.289 OA
HETATM   28  C   UNL     1      43.070 -19.237   2.235  1.00  0.00     0.106 A 
HETATM   29  C   UNL     1      43.696 -18.613   3.302  1.00  0.00     0.093 A 
HETATM   30  C   UNL     1      43.339 -20.535   1.815  1.00  0.00     0.040 A 
HETATM   31  N   UNL     1      43.198 -17.345   3.456  1.00  0.00    -0.221 NA
HETATM   32  C   UNL     1      44.674 -19.308   4.023  1.00  0.00     0.034 A 
HETATM   33  C   UNL     1      44.976 -20.620   3.628  1.00  0.00     0.002 A 
HETATM   34  C   UNL     1      44.319 -21.219   2.546  1.00  0.00     0.003 A 
ENDBRANCH  22  26
BRANCH  23  35
HETATM   35  O   UNL     1      39.453 -17.429   2.137  1.00  0.00    -0.360 OA
HETATM   36  H   UNL     1      38.608 -17.385   1.639  1.00  0.00     0.217 HD
ENDBRANCH  23  35
ENDBRANCH   1  20
TORSDOF 10
ENDMDL
MODEL 5
REMARK VINA RESULT:      -8.2      2.543      5.574
REMARK  10 active torsions:
REMARK  status: ('A' for Active; 'I' for Inactive)
REMARK    1  A    between atoms: C_2  and  C_3 
REMARK    2  A    between atoms: C_3  and  C_4 
REMARK    3  A    between atoms: C_4  and  O_5 
REMARK    4  A    between atoms: O_5  and  C_6 
REMARK    5  A    between atoms: C_9  and  C_10 
REMARK       I    between atoms: C_10  and  N_11 
REMARK    6  A    between atoms: N_11  and  C_12 
REMARK    7  A    between atoms: C_12  and  N_13 
REMARK    8  A    between atoms: N_13  and  C_14 
REMARK    9  A    between atoms: C_16  and  C_17 
REMARK   10  A    between atoms: C_26  and  O_27 
ROOT
HETATM    1  N   UNL     1      42.434 -18.083   5.693  1.00  0.00    -0.337 N 
HETATM    2  H   UNL     1      41.688 -18.704   5.990  1.00  0.00     0.168 HD
ENDROOT
BRANCH   1   3
HETATM    3  C   UNL     1      43.211 -17.589   6.722  1.00  0.00     0.157 C 
HETATM    4  S   UNL     1      44.265 -18.625   7.498  1.00  0.00    -0.047 SA
BRANCH   3   5
HETATM    5  N   UNL     1      42.946 -16.274   7.064  1.00  0.00    -0.201 NA
HETATM    6  C   UNL     1      43.586 -15.137   6.606  1.00  0.00     0.237 C 
HETATM    7  O   UNL     1      44.461 -14.583   7.262  1.00  0.00    -0.274 OA
HETATM    8  H   UNL     1      42.976 -16.246   8.078  1.00  0.00     0.139 HD
BRANCH   6   9
HETATM    9  C   UNL     1      42.905 -14.437   5.487  1.00  0.00     0.026 A 
HETATM   10  C   UNL     1      41.620 -13.896   5.599  1.00  0.00     0.019 A 
HETATM   11  C   UNL     1      41.088 -13.150   4.544  1.00  0.00     0.038 A 
HETATM   12  C   UNL     1      41.855 -12.917   3.405  1.00  0.00     0.068 A 
HETATM   13  C   UNL     1      43.121 -13.482   3.267  1.00  0.00     0.038 A 
HETATM   14  C   UNL     1      43.645 -14.246   4.309  1.00  0.00     0.019 A 
BRANCH  12  15
HETATM   15  O   UNL     1      41.326 -12.145   2.409  1.00  0.00    -0.351 OA
BRANCH  15  16
HETATM   16  C   UNL     1      42.075 -12.290   1.193  1.00  0.00     0.175 C 
BRANCH  16  17
HETATM   17  C   UNL     1      41.544 -11.277   0.183  1.00  0.00     0.026 C 
BRANCH  17  18
HETATM   18  C   UNL     1      42.580 -10.949  -0.888  1.00  0.00    -0.002 C 
HETATM   19  C   UNL     1      42.844 -12.143  -1.791  1.00  0.00     0.005 C 
ENDBRANCH  17  18
ENDBRANCH  16  17
ENDBRANCH  15  16
ENDBRANCH  12  15
ENDBRANCH   6   9
ENDBRANCH   3   5
ENDBRANCH   1   3
BRANCH   1  20
HETATM   20  C   UNL     1      42.562 -17.852   4.304  1.00  0.00     0.035 A 
HETATM   21  C   UNL     1      41.583 -17.078   3.666  1.00  0.00     0.048 A 
HETATM   22  C   UNL     1      41.687 -16.772   2.296  1.00  0.00     0.052 A 
HETATM   23  C   UNL     1      42.770 -17.302   1.573  1.00  0.00     0.080 A 
HETATM   24  C   UNL     1      43.713 -18.117   2.188  1.00  0.00     0.040 A 
HETATM   25  C   UNL     1      43.608 -18.391   3.548  1.00  0.00     0.032 A 
BRANCH  22  26
HETATM   26  C   UNL     1      40.726 -15.902   1.624  1.00  0.00     0.183 A 
HETATM   27  O   UNL     1      40.999 -15.515   0.338  1.00  0.00    -0.289 OA
HETATM   28  C   UNL     1      39.926 -14.741  -0.002  1.00  0.00     0.106 A 
HETATM   29  C   UNL     1      39.066 -14.704   1.083  1.00  0.00     0.093 A 
HETATM   30  C   UNL     1      39.697 -14.094  -1.211  1.00  0.00     0.040 A 
HETATM   31  N   UNL     1      39.588 -15.439   2.116  1.00  0.00    -0.221 NA
HETATM   32  C   UNL     1      37.873 -13.978   0.986  1.00  0.00     0.034 A 
HETATM   33  C   UNL     1      37.604 -13.311  -0.219  1.00  0.00     0.002 A 
HETATM   34  C   UNL     1      38.501 -13.368  -1.294  1.00  0.00     0.003 A 
ENDBRANCH  22  26
BRANCH  23  35
HETATM   35  O   UNL     1      42.972 -17.063   0.238  1.00  0.00    -0.360 OA
HETATM   36  H   UNL     1      43.081 -17.923  -0.222  1.00  0.00     0.217 HD
ENDBRANCH  23  35
ENDBRANCH   1  20
TORSDOF 10
ENDMDL
MODEL 6
REMARK VINA RESULT:      -8.2      4.601      9.275
REMARK  10 active torsions:
REMARK  status: ('A' for Active; 'I' for Inactive)
REMARK    1  A    between atoms: C_2  and  C_3 
REMARK    2  A    between atoms: C_3  and  C_4 
REMARK    3  A    between atoms: C_4  and  O_5 
REMARK    4  A    between atoms: O_5  and  C_6 
REMARK    5  A    between atoms: C_9  and  C_10 
REMARK       I    between atoms: C_10  and  N_11 
REMARK    6  A    between atoms: N_11  and  C_12 
REMARK    7  A    between atoms: C_12  and  N_13 
REMARK    8  A    between atoms: N_13  and  C_14 
REMARK    9  A    between atoms: C_16  and  C_17 
REMARK   10  A    between atoms: C_26  and  O_27 
ROOT
HETATM    1  N   UNL     1      42.288 -13.436   4.942  1.00  0.00    -0.337 N 
HETATM    2  H   UNL     1      42.720 -12.914   4.185  1.00  0.00     0.168 HD
ENDROOT
BRANCH   1   3
HETATM    3  C   UNL     1      41.041 -12.977   5.314  1.00  0.00     0.157 C 
HETATM    4  S   UNL     1      39.735 -14.009   5.186  1.00  0.00    -0.047 SA
BRANCH   3   5
HETATM    5  N   UNL     1      41.002 -11.640   5.670  1.00  0.00    -0.201 NA
HETATM    6  C   UNL     1      40.246 -11.053   6.668  1.00  0.00     0.237 C 
HETATM    7  O   UNL     1      39.191 -10.479   6.422  1.00  0.00    -0.274 OA
HETATM    8  H   UNL     1      40.807 -11.135   4.812  1.00  0.00     0.139 HD
BRANCH   6   9
HETATM    9  C   UNL     1      40.955 -10.838   7.955  1.00  0.00     0.026 A 
HETATM   10  C   UNL     1      40.289 -10.569   9.155  1.00  0.00     0.019 A 
HETATM   11  C   UNL     1      41.012 -10.493  10.347  1.00  0.00     0.038 A 
HETATM   12  C   UNL     1      42.386 -10.724  10.340  1.00  0.00     0.068 A 
HETATM   13  C   UNL     1      43.066 -10.956   9.147  1.00  0.00     0.038 A 
HETATM   14  C   UNL     1      42.349 -11.010   7.952  1.00  0.00     0.019 A 
BRANCH  12  15
HETATM   15  O   UNL     1      43.059 -10.689  11.529  1.00  0.00    -0.351 OA
BRANCH  15  16
HETATM   16  C   UNL     1      42.290 -11.306  12.573  1.00  0.00     0.175 C 
BRANCH  16  17
HETATM   17  C   UNL     1      42.548 -10.543  13.869  1.00  0.00     0.026 C 
BRANCH  17  18
HETATM   18  C   UNL     1      43.402  -9.301  13.635  1.00  0.00    -0.002 C 
HETATM   19  C   UNL     1      42.555  -8.039  13.620  1.00  0.00     0.005 C 
ENDBRANCH  17  18
ENDBRANCH  16  17
ENDBRANCH  15  16
ENDBRANCH  12  15
ENDBRANCH   6   9
ENDBRANCH   3   5
ENDBRANCH   1   3
BRANCH   1  20
HETATM   20  C   UNL     1      43.012 -14.535   5.458  1.00  0.00     0.035 A 
HETATM   21  C   UNL     1      43.018 -15.731   4.726  1.00  0.00     0.048 A 
HETATM   22  C   UNL     1      43.763 -16.841   5.165  1.00  0.00     0.052 A 
HETATM   23  C   UNL     1      44.462 -16.737   6.381  1.00  0.00     0.080 A 
HETATM   24  C   UNL     1      44.413 -15.575   7.140  1.00  0.00     0.040 A 
HETATM   25  C   UNL     1      43.690 -14.478   6.680  1.00  0.00     0.032 A 
BRANCH  22  26
HETATM   26  C   UNL     1      43.853 -18.070   4.382  1.00  0.00     0.183 A 
HETATM   27  O   UNL     1      44.403 -19.174   4.980  1.00  0.00    -0.289 OA
HETATM   28  C   UNL     1      44.327 -20.136   4.014  1.00  0.00     0.106 A 
HETATM   29  C   UNL     1      43.737 -19.572   2.895  1.00  0.00     0.093 A 
HETATM   30  C   UNL     1      44.750 -21.458   4.099  1.00  0.00     0.040 A 
HETATM   31  N   UNL     1      43.447 -18.255   3.136  1.00  0.00    -0.221 NA
HETATM   32  C   UNL     1      43.533 -20.362   1.757  1.00  0.00     0.034 A 
HETATM   33  C   UNL     1      43.944 -21.703   1.804  1.00  0.00     0.002 A 
HETATM   34  C   UNL     1      44.542 -22.237   2.953  1.00  0.00     0.003 A 
ENDBRANCH  22  26
BRANCH  23  35
HETATM   35  O   UNL     1      45.224 -17.753   6.899  1.00  0.00    -0.360 OA
HETATM   36  H   UNL     1      45.023 -18.579   6.407  1.00  0.00     0.217 HD
ENDBRANCH  23  35
ENDBRANCH   1  20
TORSDOF 10
ENDMDL
MODEL 7
REMARK VINA RESULT:      -8.1      3.082      6.628
REMARK  10 active torsions:
REMARK  status: ('A' for Active; 'I' for Inactive)
REMARK    1  A    between atoms: C_2  and  C_3 
REMARK    2  A    between atoms: C_3  and  C_4 
REMARK    3  A    between atoms: C_4  and  O_5 
REMARK    4  A    between atoms: O_5  and  C_6 
REMARK    5  A    between atoms: C_9  and  C_10 
REMARK       I    between atoms: C_10  and  N_11 
REMARK    6  A    between atoms: N_11  and  C_12 
REMARK    7  A    between atoms: C_12  and  N_13 
REMARK    8  A    between atoms: N_13  and  C_14 
REMARK    9  A    between atoms: C_16  and  C_17 
REMARK   10  A    between atoms: C_26  and  O_27 
ROOT
HETATM    1  N   UNL     1      39.947 -15.217   4.165  1.00  0.00    -0.337 N 
HETATM    2  H   UNL     1      39.059 -15.226   4.659  1.00  0.00     0.168 HD
ENDROOT
BRANCH   1   3
HETATM    3  C   UNL     1      39.885 -14.702   2.886  1.00  0.00     0.157 C 
HETATM    4  S   UNL     1      39.507 -13.088   2.689  1.00  0.00    -0.047 SA
BRANCH   3   5
HETATM    5  N   UNL     1      40.053 -15.638   1.880  1.00  0.00    -0.201 NA
HETATM    6  C   UNL     1      41.148 -15.799   1.051  1.00  0.00     0.237 C 
HETATM    7  O   UNL     1      41.167 -15.343  -0.086  1.00  0.00    -0.274 OA
HETATM    8  H   UNL     1      39.238 -15.545   1.282  1.00  0.00     0.139 HD
BRANCH   6   9
HETATM    9  C   UNL     1      42.111 -16.848   1.474  1.00  0.00     0.026 A 
HETATM   10  C   UNL     1      43.421 -16.562   1.871  1.00  0.00     0.019 A 
HETATM   11  C   UNL     1      44.234 -17.584   2.367  1.00  0.00     0.038 A 
HETATM   12  C   UNL     1      43.723 -18.873   2.498  1.00  0.00     0.068 A 
HETATM   13  C   UNL     1      42.433 -19.179   2.071  1.00  0.00     0.038 A 
HETATM   14  C   UNL     1      41.627 -18.164   1.555  1.00  0.00     0.019 A 
BRANCH  12  15
HETATM   15  O   UNL     1      44.527 -19.842   3.030  1.00  0.00    -0.351 OA
BRANCH  15  16
HETATM   16  C   UNL     1      44.813 -19.571   4.410  1.00  0.00     0.175 C 
BRANCH  16  17
HETATM   17  C   UNL     1      44.771 -20.892   5.173  1.00  0.00     0.026 C 
BRANCH  17  18
HETATM   18  C   UNL     1      43.526 -21.000   6.049  1.00  0.00    -0.002 C 
HETATM   19  C   UNL     1      43.853 -20.754   7.513  1.00  0.00     0.005 C 
ENDBRANCH  17  18
ENDBRANCH  16  17
ENDBRANCH  15  16
ENDBRANCH  12  15
ENDBRANCH   6   9
ENDBRANCH   3   5
ENDBRANCH   1   3
BRANCH   1  20
HETATM   20  C   UNL     1      41.075 -15.701   4.865  1.00  0.00     0.035 A 
HETATM   21  C   UNL     1      41.981 -14.771   5.393  1.00  0.00     0.048 A 
HETATM   22  C   UNL     1      43.093 -15.193   6.144  1.00  0.00     0.052 A 
HETATM   23  C   UNL     1      43.302 -16.574   6.309  1.00  0.00     0.080 A 
HETATM   24  C   UNL     1      42.441 -17.503   5.739  1.00  0.00     0.040 A 
HETATM   25  C   UNL     1      41.332 -17.068   5.019  1.00  0.00     0.032 A 
BRANCH  22  26
HETATM   26  C   UNL     1      44.007 -14.244   6.774  1.00  0.00     0.183 A 
HETATM   27  O   UNL     1      43.512 -13.440   7.768  1.00  0.00    -0.289 OA
HETATM   28  C   UNL     1      44.593 -12.697   8.151  1.00  0.00     0.106 A 
HETATM   29  C   UNL     1      45.675 -13.090   7.380  1.00  0.00     0.093 A 
HETATM   30  C   UNL     1      44.643 -11.718   9.136  1.00  0.00     0.040 A 
HETATM   31  N   UNL     1      45.290 -14.068   6.501  1.00  0.00    -0.221 NA
HETATM   32  C   UNL     1      46.919 -12.482   7.587  1.00  0.00     0.034 A 
HETATM   33  C   UNL     1      47.011 -11.489   8.574  1.00  0.00     0.002 A 
HETATM   34  C   UNL     1      45.893 -11.115   9.331  1.00  0.00     0.003 A 
ENDBRANCH  22  26
BRANCH  23  35
HETATM   35  O   UNL     1      44.349 -17.096   7.025  1.00  0.00    -0.360 OA
HETATM   36  H   UNL     1      45.055 -16.417   7.088  1.00  0.00     0.217 HD
ENDBRANCH  23  35
ENDBRANCH   1  20
TORSDOF 10
ENDMDL
MODEL 8
REMARK VINA RESULT:      -8.1      2.645      8.131
REMARK  10 active torsions:
REMARK  status: ('A' for Active; 'I' for Inactive)
REMARK    1  A    between atoms: C_2  and  C_3 
REMARK    2  A    between atoms: C_3  and  C_4 
REMARK    3  A    between atoms: C_4  and  O_5 
REMARK    4  A    between atoms: O_5  and  C_6 
REMARK    5  A    between atoms: C_9  and  C_10 
REMARK       I    between atoms: C_10  and  N_11 
REMARK    6  A    between atoms: N_11  and  C_12 
REMARK    7  A    between atoms: C_12  and  N_13 
REMARK    8  A    between atoms: N_13  and  C_14 
REMARK    9  A    between atoms: C_16  and  C_17 
REMARK   10  A    between atoms: C_26  and  O_27 
ROOT
HETATM    1  N   UNL     1      41.737 -11.961   2.293  1.00  0.00    -0.337 N 
HETATM    2  H   UNL     1      42.684 -11.910   2.655  1.00  0.00     0.168 HD
ENDROOT
BRANCH   1   3
HETATM    3  C   UNL     1      41.212 -10.748   1.895  1.00  0.00     0.157 C 
HETATM    4  S   UNL     1      40.158  -9.956   2.918  1.00  0.00    -0.047 SA
BRANCH   3   5
HETATM    5  N   UNL     1      41.557 -10.365   0.610  1.00  0.00    -0.201 NA
HETATM    6  C   UNL     1      42.478 -10.963  -0.231  1.00  0.00     0.237 C 
HETATM    7  O   UNL     1      43.615 -10.523  -0.355  1.00  0.00    -0.274 OA
HETATM    8  H   UNL     1      41.806  -9.384   0.676  1.00  0.00     0.139 HD
BRANCH   6   9
HETATM    9  C   UNL     1      41.906 -11.907  -1.225  1.00  0.00     0.026 A 
HETATM   10  C   UNL     1      41.431 -11.498  -2.475  1.00  0.00     0.019 A 
HETATM   11  C   UNL     1      41.014 -12.455  -3.404  1.00  0.00     0.038 A 
HETATM   12  C   UNL     1      41.112 -13.809  -3.095  1.00  0.00     0.068 A 
HETATM   13  C   UNL     1      41.548 -14.227  -1.840  1.00  0.00     0.038 A 
HETATM   14  C   UNL     1      41.943 -13.273  -0.902  1.00  0.00     0.019 A 
BRANCH  12  15
HETATM   15  O   UNL     1      40.740 -14.722  -4.042  1.00  0.00    -0.351 OA
BRANCH  15  16
HETATM   16  C   UNL     1      39.963 -15.779  -3.459  1.00  0.00     0.175 C 
BRANCH  16  17
HETATM   17  C   UNL     1      38.676 -15.924  -4.265  1.00  0.00     0.026 C 
BRANCH  17  18
HETATM   18  C   UNL     1      37.472 -15.358  -3.517  1.00  0.00    -0.002 C 
HETATM   19  C   UNL     1      37.485 -13.838  -3.512  1.00  0.00     0.005 C 
ENDBRANCH  17  18
ENDBRANCH  16  17
ENDBRANCH  15  16
ENDBRANCH  12  15
ENDBRANCH   6   9
ENDBRANCH   3   5
ENDBRANCH   1   3
BRANCH   1  20
HETATM   20  C   UNL     1      41.138 -13.240   2.238  1.00  0.00     0.035 A 
HETATM   21  C   UNL     1      41.946 -14.363   2.465  1.00  0.00     0.048 A 
HETATM   22  C   UNL     1      41.394 -15.658   2.474  1.00  0.00     0.052 A 
HETATM   23  C   UNL     1      40.022 -15.801   2.202  1.00  0.00     0.080 A 
HETATM   24  C   UNL     1      39.228 -14.697   1.919  1.00  0.00     0.040 A 
HETATM   25  C   UNL     1      39.784 -13.421   1.937  1.00  0.00     0.032 A 
BRANCH  22  26
HETATM   26  C   UNL     1      42.196 -16.837   2.788  1.00  0.00     0.183 A 
HETATM   27  O   UNL     1      42.222 -17.857   1.873  1.00  0.00    -0.289 OA
HETATM   28  C   UNL     1      43.053 -18.780   2.442  1.00  0.00     0.106 A 
HETATM   29  C   UNL     1      43.485 -18.274   3.657  1.00  0.00     0.093 A 
HETATM   30  C   UNL     1      43.427 -20.016   1.927  1.00  0.00     0.040 A 
HETATM   31  N   UNL     1      42.927 -17.040   3.872  1.00  0.00    -0.221 NA
HETATM   32  C   UNL     1      44.365 -19.031   4.440  1.00  0.00     0.034 A 
HETATM   33  C   UNL     1      44.768 -20.284   3.953  1.00  0.00     0.002 A 
HETATM   34  C   UNL     1      44.305 -20.765   2.721  1.00  0.00     0.003 A 
ENDBRANCH  22  26
BRANCH  23  35
HETATM   35  O   UNL     1      39.380 -17.013   2.191  1.00  0.00    -0.360 OA
HETATM   36  H   UNL     1      39.948 -17.665   1.726  1.00  0.00     0.217 HD
ENDBRANCH  23  35
ENDBRANCH   1  20
TORSDOF 10
ENDMDL
MODEL 9
REMARK VINA RESULT:      -7.9      3.205      5.540
REMARK  10 active torsions:
REMARK  status: ('A' for Active; 'I' for Inactive)
REMARK    1  A    between atoms: C_2  and  C_3 
REMARK    2  A    between atoms: C_3  and  C_4 
REMARK    3  A    between atoms: C_4  and  O_5 
REMARK    4  A    between atoms: O_5  and  C_6 
REMARK    5  A    between atoms: C_9  and  C_10 
REMARK       I    between atoms: C_10  and  N_11 
REMARK    6  A    between atoms: N_11  and  C_12 
REMARK    7  A    between atoms: C_12  and  N_13 
REMARK    8  A    between atoms: N_13  and  C_14 
REMARK    9  A    between atoms: C_16  and  C_17 
REMARK   10  A    between atoms: C_26  and  O_27 
ROOT
HETATM    1  N   UNL     1      41.018 -10.424   2.835  1.00  0.00    -0.337 N 
HETATM    2  H   UNL     1      41.812 -10.137   2.270  1.00  0.00     0.168 HD
ENDROOT
BRANCH   1   3
HETATM    3  C   UNL     1      40.737  -9.585   3.895  1.00  0.00     0.157 C 
HETATM    4  S   UNL     1      40.045  -8.100   3.578  1.00  0.00    -0.047 SA
BRANCH   3   5
HETATM    5  N   UNL     1      41.164 -10.049   5.127  1.00  0.00    -0.201 NA
HETATM    6  C   UNL     1      40.467 -10.844   6.018  1.00  0.00     0.237 C 
HETATM    7  O   UNL     1      39.885 -10.367   6.985  1.00  0.00    -0.274 OA
HETATM    8  H   UNL     1      41.470  -9.227   5.636  1.00  0.00     0.139 HD
BRANCH   6   9
HETATM    9  C   UNL     1      40.777 -12.295   5.947  1.00  0.00     0.026 A 
HETATM   10  C   UNL     1      39.788 -13.278   5.840  1.00  0.00     0.019 A 
HETATM   11  C   UNL     1      40.156 -14.614   5.661  1.00  0.00     0.038 A 
HETATM   12  C   UNL     1      41.503 -14.952   5.551  1.00  0.00     0.068 A 
HETATM   13  C   UNL     1      42.497 -13.987   5.693  1.00  0.00     0.038 A 
HETATM   14  C   UNL     1      42.133 -12.656   5.895  1.00  0.00     0.019 A 
BRANCH  12  15
HETATM   15  O   UNL     1      41.830 -16.261   5.329  1.00  0.00    -0.351 OA
BRANCH  15  16
HETATM   16  C   UNL     1      41.750 -17.023   6.543  1.00  0.00     0.175 C 
BRANCH  16  17
HETATM   17  C   UNL     1      43.082 -17.738   6.745  1.00  0.00     0.026 C 
BRANCH  17  18
HETATM   18  C   UNL     1      43.865 -17.859   5.440  1.00  0.00    -0.002 C 
HETATM   19  C   UNL     1      44.699 -19.129   5.408  1.00  0.00     0.005 C 
ENDBRANCH  17  18
ENDBRANCH  16  17
ENDBRANCH  15  16
ENDBRANCH  12  15
ENDBRANCH   6   9
ENDBRANCH   3   5
ENDBRANCH   1   3
BRANCH   1  20
HETATM   20  C   UNL     1      40.338 -11.597   2.436  1.00  0.00     0.035 A 
HETATM   21  C   UNL     1      41.068 -12.789   2.336  1.00  0.00     0.048 A 
HETATM   22  C   UNL     1      40.433 -13.998   1.994  1.00  0.00     0.052 A 
HETATM   23  C   UNL     1      39.057 -13.971   1.708  1.00  0.00     0.080 A 
HETATM   24  C   UNL     1      38.338 -12.782   1.749  1.00  0.00     0.040 A 
HETATM   25  C   UNL     1      38.977 -11.600   2.111  1.00  0.00     0.032 A 
BRANCH  22  26
HETATM   26  C   UNL     1      41.154 -15.267   1.962  1.00  0.00     0.183 A 
HETATM   27  O   UNL     1      42.510 -15.231   1.767  1.00  0.00    -0.289 OA
HETATM   28  C   UNL     1      42.877 -16.546   1.803  1.00  0.00     0.106 A 
HETATM   29  C   UNL     1      41.736 -17.302   2.021  1.00  0.00     0.093 A 
HETATM   30  C   UNL     1      44.155 -17.074   1.659  1.00  0.00     0.040 A 
HETATM   31  N   UNL     1      40.644 -16.479   2.111  1.00  0.00    -0.221 NA
HETATM   32  C   UNL     1      41.845 -18.694   2.112  1.00  0.00     0.034 A 
HETATM   33  C   UNL     1      43.119 -19.266   1.973  1.00  0.00     0.002 A 
HETATM   34  C   UNL     1      44.249 -18.469   1.749  1.00  0.00     0.003 A 
ENDBRANCH  22  26
BRANCH  23  35
HETATM   35  O   UNL     1      38.337 -15.088   1.371  1.00  0.00    -0.360 OA
HETATM   36  H   UNL     1      37.713 -15.292   2.101  1.00  0.00     0.217 HD
ENDBRANCH  23  35
ENDBRANCH   1  20
TORSDOF 10
ENDMDL
MODEL 10
REMARK VINA RESULT:      -7.9      3.758      8.682
REMARK  10 active torsions:
REMARK  status: ('A' for Active; 'I' for Inactive)
REMARK    1  A    between atoms: C_2  and  C_3 
REMARK    2  A    between atoms: C_3  and  C_4 
REMARK    3  A    between atoms: C_4  and  O_5 
REMARK    4  A    between atoms: O_5  and  C_6 
REMARK    5  A    between atoms: C_9  and  C_10 
REMARK       I    between atoms: C_10  and  N_11 
REMARK    6  A    between atoms: N_11  and  C_12 
REMARK    7  A    between atoms: C_12  and  N_13 
REMARK    8  A    between atoms: N_13  and  C_14 
REMARK    9  A    between atoms: C_16  and  C_17 
REMARK   10  A    between atoms: C_26  and  O_27 
ROOT
HETATM    1  N   UNL     1      42.846 -13.012   2.851  1.00  0.00    -0.337 N 
HETATM    2  H   UNL     1      43.683 -12.618   2.432  1.00  0.00     0.168 HD
ENDROOT
BRANCH   1   3
HETATM    3  C   UNL     1      41.663 -12.535   2.322  1.00  0.00     0.157 C 
HETATM    4  S   UNL     1      40.951 -13.373   1.067  1.00  0.00    -0.047 SA
BRANCH   3   5
HETATM    5  N   UNL     1      41.244 -11.325   2.849  1.00  0.00    -0.201 NA
HETATM    6  C   UNL     1      40.162 -11.094   3.678  1.00  0.00     0.237 C 
HETATM    7  O   UNL     1      39.095 -10.679   3.242  1.00  0.00    -0.274 OA
HETATM    8  H   UNL     1      41.149 -10.701   2.054  1.00  0.00     0.139 HD
BRANCH   6   9
HETATM    9  C   UNL     1      40.481 -11.020   5.127  1.00  0.00     0.026 A 
HETATM   10  C   UNL     1      41.442 -10.147   5.649  1.00  0.00     0.019 A 
HETATM   11  C   UNL     1      41.608 -10.048   7.033  1.00  0.00     0.038 A 
HETATM   12  C   UNL     1      40.790 -10.789   7.883  1.00  0.00     0.068 A 
HETATM   13  C   UNL     1      39.856 -11.688   7.375  1.00  0.00     0.038 A 
HETATM   14  C   UNL     1      39.705 -11.806   5.993  1.00  0.00     0.019 A 
BRANCH  12  15
HETATM   15  O   UNL     1      40.944 -10.635   9.233  1.00  0.00    -0.351 OA
BRANCH  15  16
HETATM   16  C   UNL     1      42.316 -10.374   9.566  1.00  0.00     0.175 C 
BRANCH  16  17
HETATM   17  C   UNL     1      42.418 -10.223  11.081  1.00  0.00     0.026 C 
BRANCH  17  18
HETATM   18  C   UNL     1      43.864 -10.299  11.562  1.00  0.00    -0.002 C 
HETATM   19  C   UNL     1      44.797 -10.748  10.449  1.00  0.00     0.005 C 
ENDBRANCH  17  18
ENDBRANCH  16  17
ENDBRANCH  15  16
ENDBRANCH  12  15
ENDBRANCH   6   9
ENDBRANCH   3   5
ENDBRANCH   1   3
BRANCH   1  20
HETATM   20  C   UNL     1      43.030 -13.978   3.867  1.00  0.00     0.035 A 
HETATM   21  C   UNL     1      43.184 -15.319   3.489  1.00  0.00     0.048 A 
HETATM   22  C   UNL     1      43.422 -16.317   4.453  1.00  0.00     0.052 A 
HETATM   23  C   UNL     1      43.452 -15.942   5.808  1.00  0.00     0.080 A 
HETATM   24  C   UNL     1      43.242 -14.624   6.193  1.00  0.00     0.040 A 
HETATM   25  C   UNL     1      43.031 -13.646   5.225  1.00  0.00     0.032 A 
BRANCH  22  26
HETATM   26  C   UNL     1      43.667 -17.707   4.081  1.00  0.00     0.183 A 
HETATM   27  O   UNL     1      43.171 -18.149   2.882  1.00  0.00    -0.289 OA
HETATM   28  C   UNL     1      43.575 -19.452   2.825  1.00  0.00     0.106 A 
HETATM   29  C   UNL     1      44.291 -19.728   3.979  1.00  0.00     0.093 A 
HETATM   30  C   UNL     1      43.336 -20.370   1.809  1.00  0.00     0.040 A 
HETATM   31  N   UNL     1      44.336 -18.614   4.776  1.00  0.00    -0.221 NA
HETATM   32  C   UNL     1      44.829 -21.008   4.161  1.00  0.00     0.034 A 
HETATM   33  C   UNL     1      44.612 -21.962   3.156  1.00  0.00     0.002 A 
HETATM   34  C   UNL     1      43.878 -21.648   2.005  1.00  0.00     0.003 A 
ENDBRANCH  22  26
BRANCH  23  35
HETATM   35  O   UNL     1      43.682 -16.830   6.828  1.00  0.00    -0.360 OA
HETATM   36  H   UNL     1      43.148 -16.558   7.606  1.00  0.00     0.217 HD
ENDBRANCH  23  35
ENDBRANCH   1  20
TORSDOF 10
ENDMDL
