MODEL 1
REMARK VINA RESULT:      -8.1      0.000      0.000
REMARK  5 active torsions:
REMARK  status: ('A' for Active; 'I' for Inactive)
REMARK    1  A    between atoms: O_2  and  C_3 
REMARK    2  A    between atoms: C_4  and  N_5 
REMARK    3  A    between atoms: N_5  and  C_6 
REMARK    4  A    between atoms: C_6  and  C_7 
REMARK       I    between atoms: C_7  and  N_8 
REMARK    5  A    between atoms: N_8  and  C_9 
ROOT
HETATM    1  C   UNL     1      44.023 -19.357   7.058  1.00  0.00     0.235 C 
HETATM    2  N   UNL     1      44.667 -19.053   5.869  1.00  0.00    -0.325 N 
HETATM    3  O   UNL     1      43.283 -20.318   7.265  1.00  0.00    -0.272 OA
HETATM    4  H   UNL     1      45.367 -18.330   5.923  1.00  0.00     0.169 HD
ENDROOT
BRANCH   1   5
HETATM    5  C   UNL     1      44.330 -18.369   8.197  1.00  0.00     0.195 C 
BRANCH   5   6
HETATM    6  N   UNL     1      43.218 -17.419   8.340  1.00  0.00    -0.282 NA
HETATM    7  H   UNL     1      42.318 -17.903   8.222  1.00  0.00     0.128 HD
BRANCH   6   8
HETATM    8  C   UNL     1      43.240 -16.368   7.394  1.00  0.00     0.042 A 
HETATM    9  C   UNL     1      42.162 -16.208   6.502  1.00  0.00     0.089 A 
HETATM   10  C   UNL     1      42.133 -15.167   5.574  1.00  0.00     0.038 A 
HETATM   11  C   UNL     1      43.204 -14.277   5.511  1.00  0.00     0.003 A 
HETATM   12  C   UNL     1      44.284 -14.422   6.386  1.00  0.00     0.002 A 
HETATM   13  C   UNL     1      44.298 -15.457   7.326  1.00  0.00     0.026 A 
BRANCH   9  14
HETATM   14  O   UNL     1      41.105 -17.082   6.583  1.00  0.00    -0.354 OA
HETATM   15  C   UNL     1      40.913 -17.740   5.329  1.00  0.00     0.210 C 
ENDBRANCH   9  14
ENDBRANCH   6   8
ENDBRANCH   5   6
ENDBRANCH   1   5
BRANCH   2  16
HETATM   16  C   UNL     1      44.520 -19.695   4.609  1.00  0.00     0.045 A 
HETATM   17  C   UNL     1      44.117 -18.927   3.466  1.00  0.00     0.001 A 
HETATM   18  C   UNL     1      43.943 -19.601   2.226  1.00  0.00    -0.024 A 
HETATM   19  C   UNL     1      43.876 -17.528   3.466  1.00  0.00     0.014 A 
HETATM   20  C   UNL     1      43.544 -18.896   1.078  1.00  0.00     0.012 A 
HETATM   21  C   UNL     1      44.169 -20.979   2.133  1.00  0.00     0.012 A 
HETATM   22  C   UNL     1      43.312 -17.525   1.121  1.00  0.00     0.001 A 
HETATM   23  C   UNL     1      43.480 -16.839   2.314  1.00  0.00     0.001 A 
HETATM   24  C   UNL     1      44.563 -21.711   3.246  1.00  0.00     0.003 A 
HETATM   25  C   UNL     1      44.734 -21.074   4.471  1.00  0.00     0.030 A 
ENDBRANCH   2  16
TORSDOF 5
ENDMDL
MODEL 2
REMARK VINA RESULT:      -7.8      3.423      5.227
REMARK  5 active torsions:
REMARK  status: ('A' for Active; 'I' for Inactive)
REMARK    1  A    between atoms: O_2  and  C_3 
REMARK    2  A    between atoms: C_4  and  N_5 
REMARK    3  A    between atoms: N_5  and  C_6 
REMARK    4  A    between atoms: C_6  and  C_7 
REMARK       I    between atoms: C_7  and  N_8 
REMARK    5  A    between atoms: N_8  and  C_9 
ROOT
HETATM    1  C   UNL     1      42.397 -17.043   1.250  1.00  0.00     0.235 C 
HETATM    2  N   UNL     1      42.111 -17.658   2.459  1.00  0.00    -0.325 N 
HETATM    3  O   UNL     1      43.493 -16.996   0.693  1.00  0.00    -0.272 OA
HETATM    4  H   UNL     1      41.133 -17.749   2.683  1.00  0.00     0.169 HD
ENDROOT
BRANCH   1   5
HETATM    5  C   UNL     1      41.170 -16.400   0.579  1.00  0.00     0.195 C 
BRANCH   5   6
HETATM    6  N   UNL     1      40.044 -16.379   1.524  1.00  0.00    -0.282 NA
HETATM    7  H   UNL     1      39.219 -16.828   1.105  1.00  0.00     0.128 HD
BRANCH   6   8
HETATM    8  C   UNL     1      39.647 -15.077   1.909  1.00  0.00     0.042 A 
HETATM    9  C   UNL     1      40.005 -14.584   3.178  1.00  0.00     0.089 A 
HETATM   10  C   UNL     1      39.656 -13.296   3.584  1.00  0.00     0.038 A 
HETATM   11  C   UNL     1      38.919 -12.484   2.724  1.00  0.00     0.003 A 
HETATM   12  C   UNL     1      38.552 -12.957   1.462  1.00  0.00     0.002 A 
HETATM   13  C   UNL     1      38.920 -14.243   1.054  1.00  0.00     0.026 A 
BRANCH   9  14
HETATM   14  O   UNL     1      40.744 -15.388   4.013  1.00  0.00    -0.354 OA
HETATM   15  C   UNL     1      40.542 -15.002   5.374  1.00  0.00     0.210 C 
ENDBRANCH   9  14
ENDBRANCH   6   8
ENDBRANCH   5   6
ENDBRANCH   1   5
BRANCH   2  16
HETATM   16  C   UNL     1      43.024 -18.248   3.374  1.00  0.00     0.045 A 
HETATM   17  C   UNL     1      43.528 -19.567   3.121  1.00  0.00     0.001 A 
HETATM   18  C   UNL     1      44.411 -20.148   4.072  1.00  0.00    -0.024 A 
HETATM   19  C   UNL     1      43.218 -20.355   1.981  1.00  0.00     0.014 A 
HETATM   20  C   UNL     1      44.928 -21.439   3.873  1.00  0.00     0.012 A 
HETATM   21  C   UNL     1      44.779 -19.438   5.221  1.00  0.00     0.012 A 
HETATM   22  C   UNL     1      44.596 -22.181   2.744  1.00  0.00     0.001 A 
HETATM   23  C   UNL     1      43.742 -21.639   1.796  1.00  0.00     0.001 A 
HETATM   24  C   UNL     1      44.288 -18.160   5.453  1.00  0.00     0.003 A 
HETATM   25  C   UNL     1      43.417 -17.574   4.539  1.00  0.00     0.030 A 
ENDBRANCH   2  16
TORSDOF 5
ENDMDL
MODEL 3
REMARK VINA RESULT:      -7.8      4.451      6.800
REMARK  5 active torsions:
REMARK  status: ('A' for Active; 'I' for Inactive)
REMARK    1  A    between atoms: O_2  and  C_3 
REMARK    2  A    between atoms: C_4  and  N_5 
REMARK    3  A    between atoms: N_5  and  C_6 
REMARK    4  A    between atoms: C_6  and  C_7 
REMARK       I    between atoms: C_7  and  N_8 
REMARK    5  A    between atoms: N_8  and  C_9 
ROOT
HETATM    1  C   UNL     1      42.292 -16.724   1.509  1.00  0.00     0.235 C 
HETATM    2  N   UNL     1      42.049 -17.414   2.685  1.00  0.00    -0.325 N 
HETATM    3  O   UNL     1      43.365 -16.649   0.912  1.00  0.00    -0.272 OA
HETATM    4  H   UNL     1      41.079 -17.513   2.943  1.00  0.00     0.169 HD
ENDROOT
BRANCH   1   5
HETATM    5  C   UNL     1      41.047 -16.028   0.932  1.00  0.00     0.195 C 
BRANCH   5   6
HETATM    6  N   UNL     1      40.944 -16.313  -0.506  1.00  0.00    -0.282 NA
HETATM    7  H   UNL     1      41.656 -17.000  -0.786  1.00  0.00     0.128 HD
BRANCH   6   8
HETATM    8  C   UNL     1      41.130 -15.177  -1.328  1.00  0.00     0.042 A 
HETATM    9  C   UNL     1      40.756 -15.228  -2.685  1.00  0.00     0.089 A 
HETATM   10  C   UNL     1      40.898 -14.120  -3.521  1.00  0.00     0.038 A 
HETATM   11  C   UNL     1      41.441 -12.943  -3.010  1.00  0.00     0.003 A 
HETATM   12  C   UNL     1      41.821 -12.875  -1.667  1.00  0.00     0.002 A 
HETATM   13  C   UNL     1      41.659 -13.983  -0.830  1.00  0.00     0.026 A 
BRANCH   9  14
HETATM   14  O   UNL     1      40.209 -16.389  -3.175  1.00  0.00    -0.354 OA
HETATM   15  C   UNL     1      39.122 -16.089  -4.052  1.00  0.00     0.210 C 
ENDBRANCH   9  14
ENDBRANCH   6   8
ENDBRANCH   5   6
ENDBRANCH   1   5
BRANCH   2  16
HETATM   16  C   UNL     1      42.991 -18.072   3.522  1.00  0.00     0.045 A 
HETATM   17  C   UNL     1      43.465 -19.378   3.166  1.00  0.00     0.001 A 
HETATM   18  C   UNL     1      44.380 -20.027   4.040  1.00  0.00    -0.024 A 
HETATM   19  C   UNL     1      43.096 -20.089   1.994  1.00  0.00     0.014 A 
HETATM   20  C   UNL     1      44.870 -21.309   3.739  1.00  0.00     0.012 A 
HETATM   21  C   UNL     1      44.806 -19.394   5.214  1.00  0.00     0.012 A 
HETATM   22  C   UNL     1      44.480 -21.975   2.582  1.00  0.00     0.001 A 
HETATM   23  C   UNL     1      43.595 -21.365   1.707  1.00  0.00     0.001 A 
HETATM   24  C   UNL     1      44.342 -18.128   5.546  1.00  0.00     0.003 A 
HETATM   25  C   UNL     1      43.442 -17.476   4.709  1.00  0.00     0.030 A 
ENDBRANCH   2  16
TORSDOF 5
ENDMDL
MODEL 4
REMARK VINA RESULT:      -7.7      3.469      5.335
REMARK  5 active torsions:
REMARK  status: ('A' for Active; 'I' for Inactive)
REMARK    1  A    between atoms: O_2  and  C_3 
REMARK    2  A    between atoms: C_4  and  N_5 
REMARK    3  A    between atoms: N_5  and  C_6 
REMARK    4  A    between atoms: C_6  and  C_7 
REMARK       I    between atoms: C_7  and  N_8 
REMARK    5  A    between atoms: N_8  and  C_9 
ROOT
HETATM    1  C   UNL     1      41.205 -15.856   4.746  1.00  0.00     0.235 C 
HETATM    2  N   UNL     1      42.464 -16.160   4.253  1.00  0.00    -0.325 N 
HETATM    3  O   UNL     1      40.690 -16.306   5.768  1.00  0.00    -0.272 OA
HETATM    4  H   UNL     1      42.794 -15.574   3.502  1.00  0.00     0.169 HD
ENDROOT
BRANCH   1   5
HETATM    5  C   UNL     1      40.441 -14.825   3.895  1.00  0.00     0.195 C 
BRANCH   5   6
HETATM    6  N   UNL     1      39.594 -15.523   2.918  1.00  0.00    -0.282 NA
HETATM    7  H   UNL     1      39.565 -16.530   3.125  1.00  0.00     0.128 HD
BRANCH   6   8
HETATM    8  C   UNL     1      40.040 -15.396   1.582  1.00  0.00     0.042 A 
HETATM    9  C   UNL     1      39.526 -14.367   0.769  1.00  0.00     0.089 A 
HETATM   10  C   UNL     1      39.963 -14.192  -0.545  1.00  0.00     0.038 A 
HETATM   11  C   UNL     1      40.912 -15.065  -1.073  1.00  0.00     0.003 A 
HETATM   12  C   UNL     1      41.430 -16.092  -0.282  1.00  0.00     0.002 A 
HETATM   13  C   UNL     1      41.003 -16.252   1.040  1.00  0.00     0.026 A 
BRANCH   9  14
HETATM   14  O   UNL     1      38.601 -13.503   1.304  1.00  0.00    -0.354 OA
HETATM   15  C   UNL     1      37.332 -13.689   0.674  1.00  0.00     0.210 C 
ENDBRANCH   9  14
ENDBRANCH   6   8
ENDBRANCH   5   6
ENDBRANCH   1   5
BRANCH   2  16
HETATM   16  C   UNL     1      43.377 -17.138   4.735  1.00  0.00     0.045 A 
HETATM   17  C   UNL     1      43.624 -18.319   3.960  1.00  0.00     0.001 A 
HETATM   18  C   UNL     1      44.514 -19.297   4.483  1.00  0.00    -0.024 A 
HETATM   19  C   UNL     1      43.050 -18.598   2.691  1.00  0.00     0.014 A 
HETATM   20  C   UNL     1      44.786 -20.473   3.765  1.00  0.00     0.012 A 
HETATM   21  C   UNL     1      45.133 -19.098   5.723  1.00  0.00     0.012 A 
HETATM   22  C   UNL     1      44.199 -20.713   2.527  1.00  0.00     0.001 A 
HETATM   23  C   UNL     1      43.333 -19.775   1.988  1.00  0.00     0.001 A 
HETATM   24  C   UNL     1      44.888 -17.949   6.462  1.00  0.00     0.003 A 
HETATM   25  C   UNL     1      44.016 -16.980   5.973  1.00  0.00     0.030 A 
ENDBRANCH   2  16
TORSDOF 5
ENDMDL
MODEL 5
REMARK VINA RESULT:      -7.7      4.212      6.284
REMARK  5 active torsions:
REMARK  status: ('A' for Active; 'I' for Inactive)
REMARK    1  A    between atoms: O_2  and  C_3 
REMARK    2  A    between atoms: C_4  and  N_5 
REMARK    3  A    between atoms: N_5  and  C_6 
REMARK    4  A    between atoms: C_6  and  C_7 
REMARK       I    between atoms: C_7  and  N_8 
REMARK    5  A    between atoms: N_8  and  C_9 
ROOT
HETATM    1  C   UNL     1      41.914 -17.227   1.884  1.00  0.00     0.235 C 
HETATM    2  N   UNL     1      43.225 -17.614   2.112  1.00  0.00    -0.325 N 
HETATM    3  O   UNL     1      40.978 -17.309   2.677  1.00  0.00    -0.272 OA
HETATM    4  H   UNL     1      43.896 -17.319   1.420  1.00  0.00     0.169 HD
ENDROOT
BRANCH   1   5
HETATM    5  C   UNL     1      41.684 -16.615   0.490  1.00  0.00     0.195 C 
BRANCH   5   6
HETATM    6  N   UNL     1      41.563 -15.155   0.605  1.00  0.00    -0.282 NA
HETATM    7  H   UNL     1      41.775 -14.854   1.566  1.00  0.00     0.128 HD
BRANCH   6   8
HETATM    8  C   UNL     1      40.272 -14.664   0.301  1.00  0.00     0.042 A 
HETATM    9  C   UNL     1      39.984 -14.217  -1.003  1.00  0.00     0.089 A 
HETATM   10  C   UNL     1      38.716 -13.752  -1.349  1.00  0.00     0.038 A 
HETATM   11  C   UNL     1      37.715 -13.708  -0.380  1.00  0.00     0.003 A 
HETATM   12  C   UNL     1      37.983 -14.144   0.919  1.00  0.00     0.002 A 
HETATM   13  C   UNL     1      39.252 -14.626   1.256  1.00  0.00     0.026 A 
BRANCH   9  14
HETATM   14  O   UNL     1      40.974 -14.279  -1.954  1.00  0.00    -0.354 OA
HETATM   15  C   UNL     1      40.673 -15.294  -2.913  1.00  0.00     0.210 C 
ENDBRANCH   9  14
ENDBRANCH   6   8
ENDBRANCH   5   6
ENDBRANCH   1   5
BRANCH   2  16
HETATM   16  C   UNL     1      43.748 -18.300   3.242  1.00  0.00     0.045 A 
HETATM   17  C   UNL     1      44.013 -19.707   3.157  1.00  0.00     0.001 A 
HETATM   18  C   UNL     1      44.501 -20.375   4.313  1.00  0.00    -0.024 A 
HETATM   19  C   UNL     1      43.831 -20.503   1.995  1.00  0.00     0.014 A 
HETATM   20  C   UNL     1      44.772 -21.753   4.283  1.00  0.00     0.012 A 
HETATM   21  C   UNL     1      44.721 -19.665   5.500  1.00  0.00     0.012 A 
HETATM   22  C   UNL     1      44.575 -22.500   3.126  1.00  0.00     0.001 A 
HETATM   23  C   UNL     1      44.106 -21.876   1.981  1.00  0.00     0.001 A 
HETATM   24  C   UNL     1      44.464 -18.302   5.569  1.00  0.00     0.003 A 
HETATM   25  C   UNL     1      43.980 -17.628   4.451  1.00  0.00     0.030 A 
ENDBRANCH   2  16
TORSDOF 5
ENDMDL
MODEL 6
REMARK VINA RESULT:      -7.5      4.360      6.836
REMARK  5 active torsions:
REMARK  status: ('A' for Active; 'I' for Inactive)
REMARK    1  A    between atoms: O_2  and  C_3 
REMARK    2  A    between atoms: C_4  and  N_5 
REMARK    3  A    between atoms: N_5  and  C_6 
REMARK    4  A    between atoms: C_6  and  C_7 
REMARK       I    between atoms: C_7  and  N_8 
REMARK    5  A    between atoms: N_8  and  C_9 
ROOT
HETATM    1  C   UNL     1      42.529 -16.996   1.244  1.00  0.00     0.235 C 
HETATM    2  N   UNL     1      42.205 -17.919   2.225  1.00  0.00    -0.325 N 
HETATM    3  O   UNL     1      43.649 -16.550   1.000  1.00  0.00    -0.272 OA
HETATM    4  H   UNL     1      41.273 -18.302   2.176  1.00  0.00     0.169 HD
ENDROOT
BRANCH   1   5
HETATM    5  C   UNL     1      41.326 -16.549   0.394  1.00  0.00     0.195 C 
BRANCH   5   6
HETATM    6  N   UNL     1      41.726 -15.438  -0.481  1.00  0.00    -0.282 NA
HETATM    7  H   UNL     1      41.861 -14.580   0.070  1.00  0.00     0.128 HD
BRANCH   6   8
HETATM    8  C   UNL     1      40.776 -15.131  -1.484  1.00  0.00     0.042 A 
HETATM    9  C   UNL     1      39.798 -14.148  -1.240  1.00  0.00     0.089 A 
HETATM   10  C   UNL     1      38.862 -13.797  -2.213  1.00  0.00     0.038 A 
HETATM   11  C   UNL     1      38.880 -14.446  -3.446  1.00  0.00     0.003 A 
HETATM   12  C   UNL     1      39.841 -15.426  -3.704  1.00  0.00     0.002 A 
HETATM   13  C   UNL     1      40.789 -15.761  -2.731  1.00  0.00     0.026 A 
BRANCH   9  14
HETATM   14  O   UNL     1      39.797 -13.504  -0.026  1.00  0.00    -0.354 OA
HETATM   15  C   UNL     1      38.645 -13.879   0.731  1.00  0.00     0.210 C 
ENDBRANCH   9  14
ENDBRANCH   6   8
ENDBRANCH   5   6
ENDBRANCH   1   5
BRANCH   2  16
HETATM   16  C   UNL     1      43.051 -18.451   3.237  1.00  0.00     0.045 A 
HETATM   17  C   UNL     1      43.596 -19.768   3.083  1.00  0.00     0.001 A 
HETATM   18  C   UNL     1      44.409 -20.290   4.127  1.00  0.00    -0.024 A 
HETATM   19  C   UNL     1      43.394 -20.610   1.957  1.00  0.00     0.014 A 
HETATM   20  C   UNL     1      44.964 -21.577   4.027  1.00  0.00     0.012 A 
HETATM   21  C   UNL     1      44.670 -19.524   5.269  1.00  0.00     0.012 A 
HETATM   22  C   UNL     1      44.737 -22.373   2.909  1.00  0.00     0.001 A 
HETATM   23  C   UNL     1      43.954 -21.890   1.872  1.00  0.00     0.001 A 
HETATM   24  C   UNL     1      44.139 -18.248   5.405  1.00  0.00     0.003 A 
HETATM   25  C   UNL     1      43.335 -17.719   4.399  1.00  0.00     0.030 A 
ENDBRANCH   2  16
TORSDOF 5
ENDMDL
MODEL 7
REMARK VINA RESULT:      -7.4      4.124      6.431
REMARK  5 active torsions:
REMARK  status: ('A' for Active; 'I' for Inactive)
REMARK    1  A    between atoms: O_2  and  C_3 
REMARK    2  A    between atoms: C_4  and  N_5 
REMARK    3  A    between atoms: N_5  and  C_6 
REMARK    4  A    between atoms: C_6  and  C_7 
REMARK       I    between atoms: C_7  and  N_8 
REMARK    5  A    between atoms: N_8  and  C_9 
ROOT
HETATM    1  C   UNL     1      42.564 -15.617   2.734  1.00  0.00     0.235 C 
HETATM    2  N   UNL     1      42.331 -16.903   3.194  1.00  0.00    -0.325 N 
HETATM    3  O   UNL     1      43.618 -14.989   2.819  1.00  0.00    -0.272 OA
HETATM    4  H   UNL     1      41.468 -17.328   2.890  1.00  0.00     0.169 HD
ENDROOT
BRANCH   1   5
HETATM    5  C   UNL     1      41.350 -14.982   2.033  1.00  0.00     0.195 C 
BRANCH   5   6
HETATM    6  N   UNL     1      41.784 -13.809   1.261  1.00  0.00    -0.282 NA
HETATM    7  H   UNL     1      41.223 -12.986   1.518  1.00  0.00     0.128 HD
BRANCH   6   8
HETATM    8  C   UNL     1      41.654 -13.967  -0.139  1.00  0.00     0.042 A 
HETATM    9  C   UNL     1      42.164 -12.979  -1.003  1.00  0.00     0.089 A 
HETATM   10  C   UNL     1      42.081 -13.112  -2.389  1.00  0.00     0.038 A 
HETATM   11  C   UNL     1      41.462 -14.236  -2.933  1.00  0.00     0.003 A 
HETATM   12  C   UNL     1      40.948 -15.225  -2.091  1.00  0.00     0.002 A 
HETATM   13  C   UNL     1      41.051 -15.095  -0.702  1.00  0.00     0.026 A 
BRANCH   9  14
HETATM   14  O   UNL     1      42.785 -11.881  -0.457  1.00  0.00    -0.354 OA
HETATM   15  C   UNL     1      43.200 -10.985  -1.489  1.00  0.00     0.210 C 
ENDBRANCH   9  14
ENDBRANCH   6   8
ENDBRANCH   5   6
ENDBRANCH   1   5
BRANCH   2  16
HETATM   16  C   UNL     1      43.197 -17.724   3.967  1.00  0.00     0.045 A 
HETATM   17  C   UNL     1      43.585 -19.012   3.469  1.00  0.00     0.001 A 
HETATM   18  C   UNL     1      44.422 -19.826   4.280  1.00  0.00    -0.024 A 
HETATM   19  C   UNL     1      43.201 -19.551   2.213  1.00  0.00     0.014 A 
HETATM   20  C   UNL     1      44.827 -21.098   3.840  1.00  0.00     0.012 A 
HETATM   21  C   UNL     1      44.858 -19.369   5.530  1.00  0.00     0.012 A 
HETATM   22  C   UNL     1      44.425 -21.593   2.604  1.00  0.00     0.001 A 
HETATM   23  C   UNL     1      43.614 -20.819   1.788  1.00  0.00     0.001 A 
HETATM   24  C   UNL     1      44.478 -18.118   5.999  1.00  0.00     0.003 A 
HETATM   25  C   UNL     1      43.654 -17.306   5.226  1.00  0.00     0.030 A 
ENDBRANCH   2  16
TORSDOF 5
ENDMDL
MODEL 8
REMARK VINA RESULT:      -7.3      4.270      6.586
REMARK  5 active torsions:
REMARK  status: ('A' for Active; 'I' for Inactive)
REMARK    1  A    between atoms: O_2  and  C_3 
REMARK    2  A    between atoms: C_4  and  N_5 
REMARK    3  A    between atoms: N_5  and  C_6 
REMARK    4  A    between atoms: C_6  and  C_7 
REMARK       I    between atoms: C_7  and  N_8 
REMARK    5  A    between atoms: N_8  and  C_9 
ROOT
HETATM    1  C   UNL     1      42.623 -17.440   1.087  1.00  0.00     0.235 C 
HETATM    2  N   UNL     1      42.326 -18.333   2.104  1.00  0.00    -0.325 N 
HETATM    3  O   UNL     1      43.743 -17.165   0.657  1.00  0.00    -0.272 OA
HETATM    4  H   UNL     1      41.351 -18.565   2.213  1.00  0.00     0.169 HD
ENDROOT
BRANCH   1   5
HETATM    5  C   UNL     1      41.381 -16.784   0.459  1.00  0.00     0.195 C 
BRANCH   5   6
HETATM    6  N   UNL     1      41.782 -15.583  -0.289  1.00  0.00    -0.282 NA
HETATM    7  H   UNL     1      41.879 -14.782   0.348  1.00  0.00     0.128 HD
BRANCH   6   8
HETATM    8  C   UNL     1      40.857 -15.197  -1.288  1.00  0.00     0.042 A 
HETATM    9  C   UNL     1      39.869 -14.239  -0.991  1.00  0.00     0.089 A 
HETATM   10  C   UNL     1      38.957 -13.812  -1.956  1.00  0.00     0.038 A 
HETATM   11  C   UNL     1      39.010 -14.359  -3.237  1.00  0.00     0.003 A 
HETATM   12  C   UNL     1      39.981 -15.313  -3.548  1.00  0.00     0.002 A 
HETATM   13  C   UNL     1      40.904 -15.724  -2.582  1.00  0.00     0.026 A 
BRANCH   9  14
HETATM   14  O   UNL     1      39.835 -13.696   0.271  1.00  0.00    -0.354 OA
HETATM   15  C   UNL     1      38.694 -14.178   0.984  1.00  0.00     0.210 C 
ENDBRANCH   9  14
ENDBRANCH   6   8
ENDBRANCH   5   6
ENDBRANCH   1   5
BRANCH   2  16
HETATM   16  C   UNL     1      43.235 -19.022   2.953  1.00  0.00     0.045 A 
HETATM   17  C   UNL     1      43.634 -18.428   4.196  1.00  0.00     0.001 A 
HETATM   18  C   UNL     1      44.572 -19.123   5.007  1.00  0.00    -0.024 A 
HETATM   19  C   UNL     1      43.162 -17.185   4.695  1.00  0.00     0.014 A 
HETATM   20  C   UNL     1      44.999 -18.582   6.231  1.00  0.00     0.012 A 
HETATM   21  C   UNL     1      45.082 -20.361   4.597  1.00  0.00     0.012 A 
HETATM   22  C   UNL     1      44.517 -17.358   6.684  1.00  0.00     0.001 A 
HETATM   23  C   UNL     1      43.597 -16.660   5.918  1.00  0.00     0.001 A 
HETATM   24  C   UNL     1      44.684 -20.928   3.393  1.00  0.00     0.003 A 
HETATM   25  C   UNL     1      43.772 -20.263   2.579  1.00  0.00     0.030 A 
ENDBRANCH   2  16
TORSDOF 5
ENDMDL
MODEL 9
REMARK VINA RESULT:      -7.3      1.124      1.959
REMARK  5 active torsions:
REMARK  status: ('A' for Active; 'I' for Inactive)
REMARK    1  A    between atoms: O_2  and  C_3 
REMARK    2  A    between atoms: C_4  and  N_5 
REMARK    3  A    between atoms: N_5  and  C_6 
REMARK    4  A    between atoms: C_6  and  C_7 
REMARK       I    between atoms: C_7  and  N_8 
REMARK    5  A    between atoms: N_8  and  C_9 
ROOT
HETATM    1  C   UNL     1      44.097 -18.923   7.166  1.00  0.00     0.235 C 
HETATM    2  N   UNL     1      44.849 -18.926   6.003  1.00  0.00    -0.325 N 
HETATM    3  O   UNL     1      43.205 -19.716   7.464  1.00  0.00    -0.272 OA
HETATM    4  H   UNL     1      45.650 -18.312   5.997  1.00  0.00     0.169 HD
ENDROOT
BRANCH   1   5
HETATM    5  C   UNL     1      44.486 -17.806   8.151  1.00  0.00     0.195 C 
BRANCH   5   6
HETATM    6  N   UNL     1      43.331 -16.927   8.382  1.00  0.00    -0.282 NA
HETATM    7  H   UNL     1      42.566 -17.451   8.827  1.00  0.00     0.128 HD
BRANCH   6   8
HETATM    8  C   UNL     1      42.800 -16.359   7.200  1.00  0.00     0.042 A 
HETATM    9  C   UNL     1      43.527 -15.367   6.515  1.00  0.00     0.089 A 
HETATM   10  C   UNL     1      43.051 -14.803   5.331  1.00  0.00     0.038 A 
HETATM   11  C   UNL     1      41.819 -15.214   4.825  1.00  0.00     0.003 A 
HETATM   12  C   UNL     1      41.083 -16.195   5.493  1.00  0.00     0.002 A 
HETATM   13  C   UNL     1      41.574 -16.769   6.670  1.00  0.00     0.026 A 
BRANCH   9  14
HETATM   14  O   UNL     1      44.747 -14.979   7.015  1.00  0.00    -0.354 OA
HETATM   15  C   UNL     1      44.674 -13.640   7.509  1.00  0.00     0.210 C 
ENDBRANCH   9  14
ENDBRANCH   6   8
ENDBRANCH   5   6
ENDBRANCH   1   5
BRANCH   2  16
HETATM   16  C   UNL     1      44.680 -19.749   4.856  1.00  0.00     0.045 A 
HETATM   17  C   UNL     1      44.260 -19.160   3.618  1.00  0.00     0.001 A 
HETATM   18  C   UNL     1      44.063 -20.012   2.496  1.00  0.00    -0.024 A 
HETATM   19  C   UNL     1      44.024 -17.775   3.410  1.00  0.00     0.014 A 
HETATM   20  C   UNL     1      43.648 -19.486   1.262  1.00  0.00     0.012 A 
HETATM   21  C   UNL     1      44.284 -21.390   2.608  1.00  0.00     0.012 A 
HETATM   22  C   UNL     1      43.422 -18.123   1.100  1.00  0.00     0.001 A 
HETATM   23  C   UNL     1      43.612 -17.266   2.173  1.00  0.00     0.001 A 
HETATM   24  C   UNL     1      44.693 -21.948   3.812  1.00  0.00     0.003 A 
HETATM   25  C   UNL     1      44.887 -21.134   4.925  1.00  0.00     0.030 A 
ENDBRANCH   2  16
TORSDOF 5
ENDMDL
MODEL 10
REMARK VINA RESULT:      -7.3      4.293      6.275
REMARK  5 active torsions:
REMARK  status: ('A' for Active; 'I' for Inactive)
REMARK    1  A    between atoms: O_2  and  C_3 
REMARK    2  A    between atoms: C_4  and  N_5 
REMARK    3  A    between atoms: N_5  and  C_6 
REMARK    4  A    between atoms: C_6  and  C_7 
REMARK       I    between atoms: C_7  and  N_8 
REMARK    5  A    between atoms: N_8  and  C_9 
ROOT
HETATM    1  C   UNL     1      43.029 -14.537   3.031  1.00  0.00     0.235 C 
HETATM    2  N   UNL     1      42.687 -15.801   3.482  1.00  0.00    -0.325 N 
HETATM    3  O   UNL     1      44.073 -13.932   3.271  1.00  0.00    -0.272 OA
HETATM    4  H   UNL     1      41.873 -16.214   3.053  1.00  0.00     0.169 HD
ENDROOT
BRANCH   1   5
HETATM    5  C   UNL     1      41.966 -13.895   2.123  1.00  0.00     0.195 C 
BRANCH   5   6
HETATM    6  N   UNL     1      41.346 -14.929   1.281  1.00  0.00    -0.282 NA
HETATM    7  H   UNL     1      41.962 -15.163   0.492  1.00  0.00     0.128 HD
BRANCH   6   8
HETATM    8  C   UNL     1      40.103 -14.544   0.726  1.00  0.00     0.042 A 
HETATM    9  C   UNL     1      40.013 -14.255  -0.649  1.00  0.00     0.089 A 
HETATM   10  C   UNL     1      38.800 -13.900  -1.240  1.00  0.00     0.038 A 
HETATM   11  C   UNL     1      37.656 -13.807  -0.450  1.00  0.00     0.003 A 
HETATM   12  C   UNL     1      37.728 -14.086   0.917  1.00  0.00     0.002 A 
HETATM   13  C   UNL     1      38.942 -14.460   1.500  1.00  0.00     0.026 A 
BRANCH   9  14
HETATM   14  O   UNL     1      41.144 -14.364  -1.422  1.00  0.00    -0.354 OA
HETATM   15  C   UNL     1      40.970 -15.381  -2.411  1.00  0.00     0.210 C 
ENDBRANCH   9  14
ENDBRANCH   6   8
ENDBRANCH   5   6
ENDBRANCH   1   5
BRANCH   2  16
HETATM   16  C   UNL     1      43.390 -16.617   4.410  1.00  0.00     0.045 A 
HETATM   17  C   UNL     1      43.814 -17.931   4.020  1.00  0.00     0.001 A 
HETATM   18  C   UNL     1      44.483 -18.738   4.979  1.00  0.00    -0.024 A 
HETATM   19  C   UNL     1      43.623 -18.502   2.734  1.00  0.00     0.014 A 
HETATM   20  C   UNL     1      44.914 -20.034   4.649  1.00  0.00     0.012 A 
HETATM   21  C   UNL     1      44.723 -18.251   6.270  1.00  0.00     0.012 A 
HETATM   22  C   UNL     1      44.703 -20.560   3.378  1.00  0.00     0.001 A 
HETATM   23  C   UNL     1      44.059 -19.794   2.419  1.00  0.00     0.001 A 
HETATM   24  C   UNL     1      44.311 -16.976   6.635  1.00  0.00     0.003 A 
HETATM   25  C   UNL     1      43.649 -16.169   5.714  1.00  0.00     0.030 A 
ENDBRANCH   2  16
TORSDOF 5
ENDMDL
