MODEL 1
REMARK VINA RESULT:      -9.2      0.000      0.000
REMARK  8 active torsions:
REMARK  status: ('A' for Active; 'I' for Inactive)
REMARK    1  A    between atoms: C_4  and  S_5 
REMARK    2  A    between atoms: S_5  and  C_6 
REMARK    3  A    between atoms: C_6  and  C_7 
REMARK       I    between atoms: C_7  and  N_8 
REMARK    4  A    between atoms: N_8  and  C_9 
REMARK    5  A    between atoms: C_10  and  O_11 
REMARK    6  A    between atoms: C_22  and  C_23 
REMARK    7  A    between atoms: C_29  and  C_30 
REMARK       I    between atoms: C_30  and  N_31 
REMARK    8  A    between atoms: N_31  and  C_32 
ROOT
HETATM    1  C   UNL     1      43.987 -15.097   3.179  1.00  0.00     0.069 C 
HETATM    2  C   UNL     1      42.691 -14.906   2.431  1.00  0.00     0.019 C 
HETATM    3  N   UNL     1      41.943 -13.794   2.793  1.00  0.00    -0.353 N 
HETATM    4  C   UNL     1      40.597 -13.644   2.494  1.00  0.00     0.088 C 
HETATM    5  C   UNL     1      40.056 -14.378   1.493  1.00  0.00     0.069 C 
HETATM    6  C   UNL     1      38.676 -14.325   1.135  1.00  0.00     0.099 C 
HETATM    7  N   UNL     1      37.561 -14.348   0.815  1.00  0.00    -0.192 NA
HETATM    8  C   UNL     1      40.920 -15.393   0.743  1.00  0.00     0.106 C 
HETATM    9  C   UNL     1      42.219 -15.740   1.472  1.00  0.00     0.046 C 
HETATM   10  H   UNL     1      42.255 -13.275   3.612  1.00  0.00     0.166 HD
ENDROOT
BRANCH   4  11
HETATM   11  S   UNL     1      39.597 -12.606   3.502  1.00  0.00    -0.102 SA
BRANCH  11  12
HETATM   12  C   UNL     1      40.124 -13.285   5.104  1.00  0.00     0.184 C 
BRANCH  12  13
HETATM   13  C   UNL     1      41.305 -12.545   5.702  1.00  0.00     0.231 C 
HETATM   14  N   UNL     1      42.204 -13.242   6.467  1.00  0.00    -0.324 N 
HETATM   15  H   UNL     1      42.661 -12.676   7.177  1.00  0.00     0.169 HD
HETATM   16  O   UNL     1      41.382 -11.315   5.662  1.00  0.00    -0.272 OA
BRANCH  14  17
HETATM   17  C   UNL     1      42.533 -14.608   6.469  1.00  0.00     0.070 A 
HETATM   18  C   UNL     1      43.798 -14.988   6.952  1.00  0.00     0.095 A 
HETATM   19  C   UNL     1      44.184 -16.331   6.911  1.00  0.00     0.041 A 
HETATM   20  C   UNL     1      43.313 -17.293   6.396  1.00  0.00     0.026 A 
HETATM   21  C   UNL     1      42.065 -16.910   5.911  1.00  0.00     0.036 A 
HETATM   22 CL   UNL     1      41.006 -18.093   5.247  1.00  0.00    -0.084 Cl
HETATM   23  C   UNL     1      41.673 -15.575   5.939  1.00  0.00     0.056 A 
BRANCH  18  24
HETATM   24  O   UNL     1      44.588 -13.978   7.446  1.00  0.00    -0.354 OA
HETATM   25  C   UNL     1      45.719 -13.639   6.647  1.00  0.00     0.210 C 
ENDBRANCH  18  24
ENDBRANCH  14  17
ENDBRANCH  12  13
ENDBRANCH  11  12
ENDBRANCH   4  11
BRANCH   8  26
HETATM   26  C   UNL     1      41.154 -14.932  -0.700  1.00  0.00    -0.044 A 
HETATM   27  C   UNL     1      40.836 -15.749  -1.798  1.00  0.00     0.008 A 
HETATM   28  C   UNL     1      41.061 -15.307  -3.103  1.00  0.00     0.001 A 
HETATM   29  C   UNL     1      41.621 -14.052  -3.329  1.00  0.00     0.000 A 
HETATM   30  C   UNL     1      41.962 -13.239  -2.251  1.00  0.00     0.001 A 
HETATM   31  C   UNL     1      41.732 -13.674  -0.945  1.00  0.00     0.008 A 
ENDBRANCH   8  26
BRANCH   9  32
HETATM   32  C   UNL     1      42.808 -17.111   1.294  1.00  0.00     0.255 C 
HETATM   33  N   UNL     1      42.586 -17.975   2.344  1.00  0.00    -0.323 N 
HETATM   34  H   UNL     1      41.935 -17.694   3.063  1.00  0.00     0.169 HD
HETATM   35  O   UNL     1      43.499 -17.345   0.308  1.00  0.00    -0.268 OA
BRANCH  33  36
HETATM   36  C   UNL     1      43.213 -19.222   2.572  1.00  0.00     0.035 A 
HETATM   37  C   UNL     1      43.039 -20.348   1.766  1.00  0.00     0.029 A 
HETATM   38  C   UNL     1      43.732 -21.532   2.040  1.00  0.00     0.002 A 
HETATM   39  C   UNL     1      44.610 -21.598   3.119  1.00  0.00     0.000 A 
HETATM   40  C   UNL     1      44.788 -20.483   3.932  1.00  0.00     0.002 A 
HETATM   41  C   UNL     1      44.088 -19.303   3.664  1.00  0.00     0.029 A 
ENDBRANCH  33  36
ENDBRANCH   9  32
TORSDOF 8
ENDMDL
MODEL 2
REMARK VINA RESULT:      -9.1      1.553      2.178
REMARK  8 active torsions:
REMARK  status: ('A' for Active; 'I' for Inactive)
REMARK    1  A    between atoms: C_4  and  S_5 
REMARK    2  A    between atoms: S_5  and  C_6 
REMARK    3  A    between atoms: C_6  and  C_7 
REMARK       I    between atoms: C_7  and  N_8 
REMARK    4  A    between atoms: N_8  and  C_9 
REMARK    5  A    between atoms: C_10  and  O_11 
REMARK    6  A    between atoms: C_22  and  C_23 
REMARK    7  A    between atoms: C_29  and  C_30 
REMARK       I    between atoms: C_30  and  N_31 
REMARK    8  A    between atoms: N_31  and  C_32 
ROOT
HETATM    1  C   UNL     1      43.906 -14.875   3.078  1.00  0.00     0.069 C 
HETATM    2  C   UNL     1      42.608 -14.732   2.323  1.00  0.00     0.019 C 
HETATM    3  N   UNL     1      41.842 -13.619   2.643  1.00  0.00    -0.353 N 
HETATM    4  C   UNL     1      40.494 -13.501   2.338  1.00  0.00     0.088 C 
HETATM    5  C   UNL     1      39.966 -14.281   1.366  1.00  0.00     0.069 C 
HETATM    6  C   UNL     1      38.585 -14.262   1.006  1.00  0.00     0.099 C 
HETATM    7  N   UNL     1      37.471 -14.314   0.688  1.00  0.00    -0.192 NA
HETATM    8  C   UNL     1      40.845 -15.309   0.654  1.00  0.00     0.106 C 
HETATM    9  C   UNL     1      42.149 -15.609   1.395  1.00  0.00     0.046 C 
HETATM   10  H   UNL     1      42.146 -13.065   3.441  1.00  0.00     0.166 HD
ENDROOT
BRANCH   4  11
HETATM   11  S   UNL     1      39.478 -12.441   3.306  1.00  0.00    -0.102 SA
BRANCH  11  12
HETATM   12  C   UNL     1      40.562 -12.373   4.765  1.00  0.00     0.184 C 
BRANCH  12  13
HETATM   13  C   UNL     1      39.919 -12.956   6.009  1.00  0.00     0.231 C 
HETATM   14  N   UNL     1      40.435 -14.109   6.541  1.00  0.00    -0.324 N 
HETATM   15  H   UNL     1      39.749 -14.674   7.033  1.00  0.00     0.169 HD
HETATM   16  O   UNL     1      38.854 -12.520   6.448  1.00  0.00    -0.272 OA
BRANCH  14  17
HETATM   17  C   UNL     1      41.726 -14.658   6.451  1.00  0.00     0.070 A 
HETATM   18  C   UNL     1      41.848 -16.033   6.182  1.00  0.00     0.095 A 
HETATM   19  C   UNL     1      43.113 -16.625   6.147  1.00  0.00     0.041 A 
HETATM   20  C   UNL     1      44.254 -15.852   6.375  1.00  0.00     0.026 A 
HETATM   21  C   UNL     1      44.126 -14.493   6.649  1.00  0.00     0.036 A 
HETATM   22 CL   UNL     1      45.530 -13.548   6.962  1.00  0.00    -0.084 Cl
HETATM   23  C   UNL     1      42.871 -13.893   6.694  1.00  0.00     0.056 A 
BRANCH  18  24
HETATM   24  O   UNL     1      40.675 -16.716   5.964  1.00  0.00    -0.354 OA
HETATM   25  C   UNL     1      40.816 -17.994   5.348  1.00  0.00     0.210 C 
ENDBRANCH  18  24
ENDBRANCH  14  17
ENDBRANCH  12  13
ENDBRANCH  11  12
ENDBRANCH   4  11
BRANCH   8  26
HETATM   26  C   UNL     1      41.073 -14.900  -0.805  1.00  0.00    -0.044 A 
HETATM   27  C   UNL     1      41.567 -13.630  -1.148  1.00  0.00     0.008 A 
HETATM   28  C   UNL     1      41.763 -13.279  -2.484  1.00  0.00     0.001 A 
HETATM   29  C   UNL     1      41.454 -14.185  -3.497  1.00  0.00     0.000 A 
HETATM   30  C   UNL     1      40.943 -15.439  -3.175  1.00  0.00     0.001 A 
HETATM   31  C   UNL     1      40.751 -15.796  -1.839  1.00  0.00     0.008 A 
ENDBRANCH   8  26
BRANCH   9  32
HETATM   32  C   UNL     1      42.759 -16.977   1.269  1.00  0.00     0.255 C 
HETATM   33  N   UNL     1      42.553 -17.803   2.353  1.00  0.00    -0.323 N 
HETATM   34  H   UNL     1      41.898 -17.503   3.063  1.00  0.00     0.169 HD
HETATM   35  O   UNL     1      43.452 -17.238   0.291  1.00  0.00    -0.268 OA
BRANCH  33  36
HETATM   36  C   UNL     1      43.199 -19.029   2.627  1.00  0.00     0.035 A 
HETATM   37  C   UNL     1      43.093 -20.170   1.830  1.00  0.00     0.029 A 
HETATM   38  C   UNL     1      43.801 -21.332   2.153  1.00  0.00     0.002 A 
HETATM   39  C   UNL     1      44.629 -21.361   3.272  1.00  0.00     0.000 A 
HETATM   40  C   UNL     1      44.740 -20.232   4.078  1.00  0.00     0.002 A 
HETATM   41  C   UNL     1      44.023 -19.074   3.760  1.00  0.00     0.029 A 
ENDBRANCH  33  36
ENDBRANCH   9  32
TORSDOF 8
ENDMDL
MODEL 3
REMARK VINA RESULT:      -8.7      3.631      4.605
REMARK  8 active torsions:
REMARK  status: ('A' for Active; 'I' for Inactive)
REMARK    1  A    between atoms: C_4  and  S_5 
REMARK    2  A    between atoms: S_5  and  C_6 
REMARK    3  A    between atoms: C_6  and  C_7 
REMARK       I    between atoms: C_7  and  N_8 
REMARK    4  A    between atoms: N_8  and  C_9 
REMARK    5  A    between atoms: C_10  and  O_11 
REMARK    6  A    between atoms: C_22  and  C_23 
REMARK    7  A    between atoms: C_29  and  C_30 
REMARK       I    between atoms: C_30  and  N_31 
REMARK    8  A    between atoms: N_31  and  C_32 
ROOT
HETATM    1  C   UNL     1      43.921 -13.997   5.461  1.00  0.00     0.069 C 
HETATM    2  C   UNL     1      42.755 -13.530   4.627  1.00  0.00     0.019 C 
HETATM    3  N   UNL     1      42.445 -12.179   4.724  1.00  0.00    -0.353 N 
HETATM    4  C   UNL     1      41.228 -11.642   4.334  1.00  0.00     0.088 C 
HETATM    5  C   UNL     1      40.444 -12.333   3.473  1.00  0.00     0.069 C 
HETATM    6  C   UNL     1      39.160 -11.884   3.044  1.00  0.00     0.099 C 
HETATM    7  N   UNL     1      38.099 -11.587   2.680  1.00  0.00    -0.192 NA
HETATM    8  C   UNL     1      40.887 -13.712   2.982  1.00  0.00     0.106 C 
HETATM    9  C   UNL     1      42.002 -14.327   3.829  1.00  0.00     0.046 C 
HETATM   10  H   UNL     1      42.935 -11.645   5.438  1.00  0.00     0.166 HD
ENDROOT
BRANCH   4  11
HETATM   11  S   UNL     1      40.671 -10.142   5.066  1.00  0.00    -0.102 SA
BRANCH  11  12
HETATM   12  C   UNL     1      41.275 -10.483   6.747  1.00  0.00     0.184 C 
BRANCH  12  13
HETATM   13  C   UNL     1      40.206 -11.054   7.657  1.00  0.00     0.231 C 
HETATM   14  N   UNL     1      40.520 -11.310   8.967  1.00  0.00    -0.324 N 
HETATM   15  H   UNL     1      39.980 -12.068   9.376  1.00  0.00     0.169 HD
HETATM   16  O   UNL     1      39.126 -11.450   7.214  1.00  0.00    -0.272 OA
BRANCH  14  17
HETATM   17  C   UNL     1      41.506 -10.747   9.795  1.00  0.00     0.070 A 
HETATM   18  C   UNL     1      41.119  -9.744  10.703  1.00  0.00     0.095 A 
HETATM   19  C   UNL     1      42.082  -9.116  11.498  1.00  0.00     0.041 A 
HETATM   20  C   UNL     1      43.425  -9.487  11.393  1.00  0.00     0.026 A 
HETATM   21  C   UNL     1      43.803 -10.474  10.487  1.00  0.00     0.036 A 
HETATM   22 CL   UNL     1      45.462 -10.907  10.335  1.00  0.00    -0.084 Cl
HETATM   23  C   UNL     1      42.854 -11.101   9.684  1.00  0.00     0.056 A 
BRANCH  18  24
HETATM   24  O   UNL     1      39.778  -9.446  10.744  1.00  0.00    -0.354 OA
HETATM   25  C   UNL     1      39.141  -9.665  12.000  1.00  0.00     0.210 C 
ENDBRANCH  18  24
ENDBRANCH  14  17
ENDBRANCH  12  13
ENDBRANCH  11  12
ENDBRANCH   4  11
BRANCH   8  26
HETATM   26  C   UNL     1      41.233 -13.662   1.491  1.00  0.00    -0.044 A 
HETATM   27  C   UNL     1      41.918 -12.573   0.926  1.00  0.00     0.008 A 
HETATM   28  C   UNL     1      42.220 -12.550  -0.435  1.00  0.00     0.001 A 
HETATM   29  C   UNL     1      41.829 -13.605  -1.256  1.00  0.00     0.000 A 
HETATM   30  C   UNL     1      41.130 -14.682  -0.717  1.00  0.00     0.001 A 
HETATM   31  C   UNL     1      40.832 -14.712   0.646  1.00  0.00     0.008 A 
ENDBRANCH   8  26
BRANCH   9  32
HETATM   32  C   UNL     1      42.077 -15.823   3.956  1.00  0.00     0.255 C 
HETATM   33  N   UNL     1      43.231 -16.388   3.458  1.00  0.00    -0.323 N 
HETATM   34  H   UNL     1      43.988 -15.772   3.195  1.00  0.00     0.169 HD
HETATM   35  O   UNL     1      41.110 -16.438   4.395  1.00  0.00    -0.268 OA
BRANCH  33  36
HETATM   36  C   UNL     1      43.475 -17.759   3.214  1.00  0.00     0.035 A 
HETATM   37  C   UNL     1      43.164 -18.413   2.021  1.00  0.00     0.029 A 
HETATM   38  C   UNL     1      43.479 -19.765   1.849  1.00  0.00     0.002 A 
HETATM   39  C   UNL     1      44.115 -20.473   2.865  1.00  0.00     0.000 A 
HETATM   40  C   UNL     1      44.427 -19.832   4.061  1.00  0.00     0.002 A 
HETATM   41  C   UNL     1      44.102 -18.484   4.236  1.00  0.00     0.029 A 
ENDBRANCH  33  36
ENDBRANCH   9  32
TORSDOF 8
ENDMDL
MODEL 4
REMARK VINA RESULT:      -8.3      2.962      6.643
REMARK  8 active torsions:
REMARK  status: ('A' for Active; 'I' for Inactive)
REMARK    1  A    between atoms: C_4  and  S_5 
REMARK    2  A    between atoms: S_5  and  C_6 
REMARK    3  A    between atoms: C_6  and  C_7 
REMARK       I    between atoms: C_7  and  N_8 
REMARK    4  A    between atoms: N_8  and  C_9 
REMARK    5  A    between atoms: C_10  and  O_11 
REMARK    6  A    between atoms: C_22  and  C_23 
REMARK    7  A    between atoms: C_29  and  C_30 
REMARK       I    between atoms: C_30  and  N_31 
REMARK    8  A    between atoms: N_31  and  C_32 
ROOT
HETATM    1  C   UNL     1      38.524 -14.753   1.375  1.00  0.00     0.069 C 
HETATM    2  C   UNL     1      39.790 -14.833   2.191  1.00  0.00     0.019 C 
HETATM    3  N   UNL     1      39.630 -14.725   3.567  1.00  0.00    -0.353 N 
HETATM    4  C   UNL     1      40.665 -14.419   4.438  1.00  0.00     0.088 C 
HETATM    5  C   UNL     1      41.944 -14.611   4.038  1.00  0.00     0.069 C 
HETATM    6  C   UNL     1      43.077 -14.291   4.845  1.00  0.00     0.099 C 
HETATM    7  N   UNL     1      44.037 -14.025   5.440  1.00  0.00    -0.192 NA
HETATM    8  C   UNL     1      42.232 -15.113   2.623  1.00  0.00     0.106 C 
HETATM    9  C   UNL     1      41.037 -14.978   1.678  1.00  0.00     0.046 C 
HETATM   10  H   UNL     1      38.704 -14.473   3.904  1.00  0.00     0.166 HD
ENDROOT
BRANCH   4  11
HETATM   11  S   UNL     1      40.299 -13.669   5.986  1.00  0.00    -0.102 SA
BRANCH  11  12
HETATM   12  C   UNL     1      39.450 -12.204   5.322  1.00  0.00     0.184 C 
BRANCH  12  13
HETATM   13  C   UNL     1      40.407 -11.123   4.860  1.00  0.00     0.231 C 
HETATM   14  N   UNL     1      40.732 -10.112   5.727  1.00  0.00    -0.324 N 
HETATM   15  H   UNL     1      40.965  -9.237   5.266  1.00  0.00     0.169 HD
HETATM   16  O   UNL     1      40.760 -11.035   3.682  1.00  0.00    -0.272 OA
BRANCH  14  17
HETATM   17  C   UNL     1      40.722 -10.079   7.132  1.00  0.00     0.070 A 
HETATM   18  C   UNL     1      39.591  -9.548   7.778  1.00  0.00     0.095 A 
HETATM   19  C   UNL     1      39.572  -9.440   9.171  1.00  0.00     0.041 A 
HETATM   20  C   UNL     1      40.672  -9.864   9.920  1.00  0.00     0.026 A 
HETATM   21  C   UNL     1      41.792 -10.380   9.275  1.00  0.00     0.036 A 
HETATM   22 CL   UNL     1      43.160 -10.871  10.197  1.00  0.00    -0.084 Cl
HETATM   23  C   UNL     1      41.826 -10.485   7.887  1.00  0.00     0.056 A 
BRANCH  18  24
HETATM   24  O   UNL     1      38.552  -9.162   6.965  1.00  0.00    -0.354 OA
HETATM   25  C   UNL     1      38.229  -7.774   7.003  1.00  0.00     0.210 C 
ENDBRANCH  18  24
ENDBRANCH  14  17
ENDBRANCH  12  13
ENDBRANCH  11  12
ENDBRANCH   4  11
BRANCH   8  26
HETATM   26  C   UNL     1      42.797 -16.537   2.665  1.00  0.00    -0.044 A 
HETATM   27  C   UNL     1      43.745 -16.985   1.729  1.00  0.00     0.008 A 
HETATM   28  C   UNL     1      44.242 -18.287   1.788  1.00  0.00     0.001 A 
HETATM   29  C   UNL     1      43.789 -19.165   2.770  1.00  0.00     0.000 A 
HETATM   30  C   UNL     1      42.834 -18.743   3.691  1.00  0.00     0.001 A 
HETATM   31  C   UNL     1      42.339 -17.440   3.641  1.00  0.00     0.008 A 
ENDBRANCH   8  26
BRANCH   9  32
HETATM   32  C   UNL     1      41.290 -14.754   0.213  1.00  0.00     0.255 C 
HETATM   33  N   UNL     1      41.476 -13.437  -0.146  1.00  0.00    -0.323 N 
HETATM   34  H   UNL     1      41.584 -12.753   0.591  1.00  0.00     0.169 HD
HETATM   35  O   UNL     1      41.231 -15.706  -0.560  1.00  0.00    -0.268 OA
BRANCH  33  36
HETATM   36  C   UNL     1      41.486 -12.901  -1.454  1.00  0.00     0.035 A 
HETATM   37  C   UNL     1      42.631 -12.449  -2.110  1.00  0.00     0.029 A 
HETATM   38  C   UNL     1      42.557 -11.971  -3.423  1.00  0.00     0.002 A 
HETATM   39  C   UNL     1      41.337 -11.947  -4.093  1.00  0.00     0.000 A 
HETATM   40  C   UNL     1      40.187 -12.391  -3.448  1.00  0.00     0.002 A 
HETATM   41  C   UNL     1      40.260 -12.859  -2.132  1.00  0.00     0.029 A 
ENDBRANCH  33  36
ENDBRANCH   9  32
TORSDOF 8
ENDMDL
MODEL 5
REMARK VINA RESULT:      -8.3      3.391      6.218
REMARK  8 active torsions:
REMARK  status: ('A' for Active; 'I' for Inactive)
REMARK    1  A    between atoms: C_4  and  S_5 
REMARK    2  A    between atoms: S_5  and  C_6 
REMARK    3  A    between atoms: C_6  and  C_7 
REMARK       I    between atoms: C_7  and  N_8 
REMARK    4  A    between atoms: N_8  and  C_9 
REMARK    5  A    between atoms: C_10  and  O_11 
REMARK    6  A    between atoms: C_22  and  C_23 
REMARK    7  A    between atoms: C_29  and  C_30 
REMARK       I    between atoms: C_30  and  N_31 
REMARK    8  A    between atoms: N_31  and  C_32 
ROOT
HETATM    1  C   UNL     1      40.645 -16.341   2.838  1.00  0.00     0.069 C 
HETATM    2  C   UNL     1      41.715 -15.856   3.784  1.00  0.00     0.019 C 
HETATM    3  N   UNL     1      41.446 -14.662   4.439  1.00  0.00    -0.353 N 
HETATM    4  C   UNL     1      42.420 -13.886   5.051  1.00  0.00     0.088 C 
HETATM    5  C   UNL     1      43.602 -14.453   5.387  1.00  0.00     0.069 C 
HETATM    6  C   UNL     1      44.680 -13.731   5.983  1.00  0.00     0.099 C 
HETATM    7  N   UNL     1      45.600 -13.195   6.441  1.00  0.00    -0.192 NA
HETATM    8  C   UNL     1      43.867 -15.920   5.046  1.00  0.00     0.106 C 
HETATM    9  C   UNL     1      42.895 -16.485   4.009  1.00  0.00     0.046 C 
HETATM   10  H   UNL     1      40.622 -14.147   4.138  1.00  0.00     0.166 HD
ENDROOT
BRANCH   4  11
HETATM   11  S   UNL     1      42.148 -12.160   5.255  1.00  0.00    -0.102 SA
BRANCH  11  12
HETATM   12  C   UNL     1      41.298 -12.263   6.860  1.00  0.00     0.184 C 
BRANCH  12  13
HETATM   13  C   UNL     1      40.736 -10.931   7.320  1.00  0.00     0.231 C 
HETATM   14  N   UNL     1      41.005 -10.505   8.595  1.00  0.00    -0.324 N 
HETATM   15  H   UNL     1      40.283  -9.906   8.986  1.00  0.00     0.169 HD
HETATM   16  O   UNL     1      39.912 -10.312   6.644  1.00  0.00    -0.272 OA
BRANCH  14  17
HETATM   17  C   UNL     1      42.070 -10.821   9.456  1.00  0.00     0.070 A 
HETATM   18  C   UNL     1      41.775 -11.110  10.801  1.00  0.00     0.095 A 
HETATM   19  C   UNL     1      42.814 -11.366  11.700  1.00  0.00     0.041 A 
HETATM   20  C   UNL     1      44.140 -11.338  11.264  1.00  0.00     0.026 A 
HETATM   21  C   UNL     1      44.426 -11.043   9.934  1.00  0.00     0.036 A 
HETATM   22 CL   UNL     1      46.062 -10.978   9.404  1.00  0.00    -0.084 Cl
HETATM   23  C   UNL     1      43.401 -10.779   9.029  1.00  0.00     0.056 A 
BRANCH  18  24
HETATM   24  O   UNL     1      40.444 -11.121  11.142  1.00  0.00    -0.354 OA
HETATM   25  C   UNL     1      40.172 -11.221  12.538  1.00  0.00     0.210 C 
ENDBRANCH  18  24
ENDBRANCH  14  17
ENDBRANCH  12  13
ENDBRANCH  11  12
ENDBRANCH   4  11
BRANCH   8  26
HETATM   26  C   UNL     1      43.927 -16.763   6.325  1.00  0.00    -0.044 A 
HETATM   27  C   UNL     1      43.140 -16.459   7.448  1.00  0.00     0.008 A 
HETATM   28  C   UNL     1      43.214 -17.241   8.602  1.00  0.00     0.001 A 
HETATM   29  C   UNL     1      44.087 -18.325   8.656  1.00  0.00     0.000 A 
HETATM   30  C   UNL     1      44.889 -18.626   7.559  1.00  0.00     0.001 A 
HETATM   31  C   UNL     1      44.813 -17.852   6.401  1.00  0.00     0.008 A 
ENDBRANCH   8  26
BRANCH   9  32
HETATM   32  C   UNL     1      43.370 -17.571   3.085  1.00  0.00     0.255 C 
HETATM   33  N   UNL     1      43.139 -18.853   3.533  1.00  0.00    -0.323 N 
HETATM   34  H   UNL     1      42.548 -18.975   4.344  1.00  0.00     0.169 HD
HETATM   35  O   UNL     1      43.991 -17.269   2.070  1.00  0.00    -0.268 OA
BRANCH  33  36
HETATM   36  C   UNL     1      43.682 -20.051   3.014  1.00  0.00     0.035 A 
HETATM   37  C   UNL     1      44.648 -20.822   3.662  1.00  0.00     0.029 A 
HETATM   38  C   UNL     1      45.101 -22.018   3.096  1.00  0.00     0.002 A 
HETATM   39  C   UNL     1      44.585 -22.458   1.880  1.00  0.00     0.000 A 
HETATM   40  C   UNL     1      43.624 -21.696   1.222  1.00  0.00     0.002 A 
HETATM   41  C   UNL     1      43.180 -20.495   1.783  1.00  0.00     0.029 A 
ENDBRANCH  33  36
ENDBRANCH   9  32
TORSDOF 8
ENDMDL
MODEL 6
REMARK VINA RESULT:      -8.2      3.427      7.094
REMARK  8 active torsions:
REMARK  status: ('A' for Active; 'I' for Inactive)
REMARK    1  A    between atoms: C_4  and  S_5 
REMARK    2  A    between atoms: S_5  and  C_6 
REMARK    3  A    between atoms: C_6  and  C_7 
REMARK       I    between atoms: C_7  and  N_8 
REMARK    4  A    between atoms: N_8  and  C_9 
REMARK    5  A    between atoms: C_10  and  O_11 
REMARK    6  A    between atoms: C_22  and  C_23 
REMARK    7  A    between atoms: C_29  and  C_30 
REMARK       I    between atoms: C_30  and  N_31 
REMARK    8  A    between atoms: N_31  and  C_32 
ROOT
HETATM    1  C   UNL     1      41.133 -15.258  -2.664  1.00  0.00     0.069 C 
HETATM    2  C   UNL     1      41.185 -14.188  -1.603  1.00  0.00     0.019 C 
HETATM    3  N   UNL     1      41.861 -14.526  -0.437  1.00  0.00    -0.353 N 
HETATM    4  C   UNL     1      41.715 -13.841   0.760  1.00  0.00     0.088 C 
HETATM    5  C   UNL     1      41.227 -12.578   0.744  1.00  0.00     0.069 C 
HETATM    6  C   UNL     1      41.004 -11.806   1.923  1.00  0.00     0.099 C 
HETATM    7  N   UNL     1      40.775 -11.139   2.844  1.00  0.00    -0.192 NA
HETATM    8  C   UNL     1      40.799 -11.945  -0.580  1.00  0.00     0.106 C 
HETATM    9  C   UNL     1      40.613 -12.963  -1.707  1.00  0.00     0.046 C 
HETATM   10  H   UNL     1      42.150 -15.497  -0.337  1.00  0.00     0.166 HD
ENDROOT
BRANCH   4  11
HETATM   11  S   UNL     1      42.043 -14.670   2.276  1.00  0.00    -0.102 SA
BRANCH  11  12
HETATM   12  C   UNL     1      42.829 -16.142   1.554  1.00  0.00     0.184 C 
BRANCH  12  13
HETATM   13  C   UNL     1      41.896 -17.335   1.478  1.00  0.00     0.231 C 
HETATM   14  N   UNL     1      42.147 -18.422   2.276  1.00  0.00    -0.324 N 
HETATM   15  H   UNL     1      41.821 -19.301   1.883  1.00  0.00     0.169 HD
HETATM   16  O   UNL     1      41.031 -17.422   0.605  1.00  0.00    -0.272 OA
BRANCH  14  17
HETATM   17  C   UNL     1      42.838 -18.517   3.496  1.00  0.00     0.070 A 
HETATM   18  C   UNL     1      43.986 -19.328   3.550  1.00  0.00     0.095 A 
HETATM   19  C   UNL     1      44.662 -19.497   4.761  1.00  0.00     0.041 A 
HETATM   20  C   UNL     1      44.200 -18.858   5.915  1.00  0.00     0.026 A 
HETATM   21  C   UNL     1      43.059 -18.064   5.857  1.00  0.00     0.036 A 
HETATM   22 CL   UNL     1      42.472 -17.303   7.285  1.00  0.00    -0.084 Cl
HETATM   23  C   UNL     1      42.372 -17.894   4.658  1.00  0.00     0.056 A 
BRANCH  18  24
HETATM   24  O   UNL     1      44.372 -19.914   2.368  1.00  0.00    -0.354 OA
HETATM   25  C   UNL     1      44.411 -21.338   2.375  1.00  0.00     0.210 C 
ENDBRANCH  18  24
ENDBRANCH  14  17
ENDBRANCH  12  13
ENDBRANCH  11  12
ENDBRANCH   4  11
BRANCH   8  26
HETATM   26  C   UNL     1      41.751 -10.806  -0.961  1.00  0.00    -0.044 A 
HETATM   27  C   UNL     1      43.144 -10.987  -0.993  1.00  0.00     0.008 A 
HETATM   28  C   UNL     1      43.990  -9.934  -1.340  1.00  0.00     0.001 A 
HETATM   29  C   UNL     1      43.460  -8.682  -1.645  1.00  0.00     0.000 A 
HETATM   30  C   UNL     1      42.083  -8.481  -1.598  1.00  0.00     0.001 A 
HETATM   31  C   UNL     1      41.232  -9.533  -1.257  1.00  0.00     0.008 A 
ENDBRANCH   8  26
BRANCH   9  32
HETATM   32  C   UNL     1      39.598 -12.683  -2.780  1.00  0.00     0.255 C 
HETATM   33  N   UNL     1      38.295 -12.959  -2.429  1.00  0.00    -0.323 N 
HETATM   34  H   UNL     1      38.097 -13.173  -1.460  1.00  0.00     0.169 HD
HETATM   35  O   UNL     1      39.981 -12.324  -3.889  1.00  0.00    -0.268 OA
BRANCH  33  36
HETATM   36  C   UNL     1      37.175 -13.032  -3.289  1.00  0.00     0.035 A 
HETATM   37  C   UNL     1      36.303 -11.971  -3.536  1.00  0.00     0.029 A 
HETATM   38  C   UNL     1      35.242 -12.118  -4.436  1.00  0.00     0.002 A 
HETATM   39  C   UNL     1      35.048 -13.325  -5.102  1.00  0.00     0.000 A 
HETATM   40  C   UNL     1      35.909 -14.392  -4.860  1.00  0.00     0.002 A 
HETATM   41  C   UNL     1      36.963 -14.248  -3.953  1.00  0.00     0.029 A 
ENDBRANCH  33  36
ENDBRANCH   9  32
TORSDOF 8
ENDMDL
MODEL 7
REMARK VINA RESULT:      -8.2      2.452      3.792
REMARK  8 active torsions:
REMARK  status: ('A' for Active; 'I' for Inactive)
REMARK    1  A    between atoms: C_4  and  S_5 
REMARK    2  A    between atoms: S_5  and  C_6 
REMARK    3  A    between atoms: C_6  and  C_7 
REMARK       I    between atoms: C_7  and  N_8 
REMARK    4  A    between atoms: N_8  and  C_9 
REMARK    5  A    between atoms: C_10  and  O_11 
REMARK    6  A    between atoms: C_22  and  C_23 
REMARK    7  A    between atoms: C_29  and  C_30 
REMARK       I    between atoms: C_30  and  N_31 
REMARK    8  A    between atoms: N_31  and  C_32 
ROOT
HETATM    1  C   UNL     1      44.056 -14.311   3.513  1.00  0.00     0.069 C 
HETATM    2  C   UNL     1      42.753 -14.294   2.754  1.00  0.00     0.019 C 
HETATM    3  N   UNL     1      41.930 -13.201   2.991  1.00  0.00    -0.353 N 
HETATM    4  C   UNL     1      40.578 -13.178   2.682  1.00  0.00     0.088 C 
HETATM    5  C   UNL     1      40.092 -14.055   1.773  1.00  0.00     0.069 C 
HETATM    6  C   UNL     1      38.712 -14.137   1.417  1.00  0.00     0.099 C 
HETATM    7  N   UNL     1      37.603 -14.271   1.107  1.00  0.00    -0.192 NA
HETATM    8  C   UNL     1      41.025 -15.087   1.138  1.00  0.00     0.106 C 
HETATM    9  C   UNL     1      42.342 -15.261   1.897  1.00  0.00     0.046 C 
HETATM   10  H   UNL     1      42.203 -12.574   3.744  1.00  0.00     0.166 HD
ENDROOT
BRANCH   4  11
HETATM   11  S   UNL     1      39.506 -12.102   3.570  1.00  0.00    -0.102 SA
BRANCH  11  12
HETATM   12  C   UNL     1      39.357 -13.129   5.064  1.00  0.00     0.184 C 
BRANCH  12  13
HETATM   13  C   UNL     1      40.656 -13.239   5.840  1.00  0.00     0.231 C 
HETATM   14  N   UNL     1      41.138 -12.129   6.483  1.00  0.00    -0.324 N 
HETATM   15  H   UNL     1      42.150 -12.117   6.574  1.00  0.00     0.169 HD
HETATM   16  O   UNL     1      41.368 -14.242   5.764  1.00  0.00    -0.272 OA
BRANCH  14  17
HETATM   17  C   UNL     1      40.467 -10.992   6.965  1.00  0.00     0.070 A 
HETATM   18  C   UNL     1      40.686  -9.764   6.312  1.00  0.00     0.095 A 
HETATM   19  C   UNL     1      40.086  -8.601   6.802  1.00  0.00     0.041 A 
HETATM   20  C   UNL     1      39.268  -8.658   7.933  1.00  0.00     0.026 A 
HETATM   21  C   UNL     1      39.063  -9.873   8.579  1.00  0.00     0.036 A 
HETATM   22 CL   UNL     1      38.082  -9.937   9.992  1.00  0.00    -0.084 Cl
HETATM   23  C   UNL     1      39.662 -11.038   8.106  1.00  0.00     0.056 A 
BRANCH  18  24
HETATM   24  O   UNL     1      41.498  -9.801   5.205  1.00  0.00    -0.354 OA
HETATM   25  C   UNL     1      41.712  -8.547   4.561  1.00  0.00     0.210 C 
ENDBRANCH  18  24
ENDBRANCH  14  17
ENDBRANCH  12  13
ENDBRANCH  11  12
ENDBRANCH   4  11
BRANCH   8  26
HETATM   26  C   UNL     1      41.232 -14.778  -0.348  1.00  0.00    -0.044 A 
HETATM   27  C   UNL     1      41.725 -13.536  -0.783  1.00  0.00     0.008 A 
HETATM   28  C   UNL     1      41.903 -13.277  -2.142  1.00  0.00     0.001 A 
HETATM   29  C   UNL     1      41.576 -14.247  -3.087  1.00  0.00     0.000 A 
HETATM   30  C   UNL     1      41.066 -15.475  -2.674  1.00  0.00     0.001 A 
HETATM   31  C   UNL     1      40.893 -15.740  -1.315  1.00  0.00     0.008 A 
ENDBRANCH   8  26
BRANCH   9  32
HETATM   32  C   UNL     1      43.023 -16.600   1.873  1.00  0.00     0.255 C 
HETATM   33  N   UNL     1      42.763 -17.400   2.964  1.00  0.00    -0.323 N 
HETATM   34  H   UNL     1      42.037 -17.111   3.605  1.00  0.00     0.169 HD
HETATM   35  O   UNL     1      43.809 -16.859   0.966  1.00  0.00    -0.268 OA
BRANCH  33  36
HETATM   36  C   UNL     1      43.440 -18.584   3.337  1.00  0.00     0.035 A 
HETATM   37  C   UNL     1      43.617 -19.685   2.498  1.00  0.00     0.029 A 
HETATM   38  C   UNL     1      44.338 -20.803   2.934  1.00  0.00     0.002 A 
HETATM   39  C   UNL     1      44.893 -20.825   4.211  1.00  0.00     0.000 A 
HETATM   40  C   UNL     1      44.719 -19.735   5.058  1.00  0.00     0.002 A 
HETATM   41  C   UNL     1      43.990 -18.623   4.625  1.00  0.00     0.029 A 
ENDBRANCH  33  36
ENDBRANCH   9  32
TORSDOF 8
ENDMDL
MODEL 8
REMARK VINA RESULT:      -8.2      2.763      6.677
REMARK  8 active torsions:
REMARK  status: ('A' for Active; 'I' for Inactive)
REMARK    1  A    between atoms: C_4  and  S_5 
REMARK    2  A    between atoms: S_5  and  C_6 
REMARK    3  A    between atoms: C_6  and  C_7 
REMARK       I    between atoms: C_7  and  N_8 
REMARK    4  A    between atoms: N_8  and  C_9 
REMARK    5  A    between atoms: C_10  and  O_11 
REMARK    6  A    between atoms: C_22  and  C_23 
REMARK    7  A    between atoms: C_29  and  C_30 
REMARK       I    between atoms: C_30  and  N_31 
REMARK    8  A    between atoms: N_31  and  C_32 
ROOT
HETATM    1  C   UNL     1      40.297 -15.649   5.627  1.00  0.00     0.069 C 
HETATM    2  C   UNL     1      40.399 -15.200   4.191  1.00  0.00     0.019 C 
HETATM    3  N   UNL     1      40.453 -16.214   3.243  1.00  0.00    -0.353 N 
HETATM    4  C   UNL     1      40.899 -16.026   1.943  1.00  0.00     0.088 C 
HETATM    5  C   UNL     1      40.917 -14.775   1.424  1.00  0.00     0.069 C 
HETATM    6  C   UNL     1      41.394 -14.474   0.114  1.00  0.00     0.099 C 
HETATM    7  N   UNL     1      41.794 -14.163  -0.930  1.00  0.00    -0.192 NA
HETATM    8  C   UNL     1      40.495 -13.587   2.289  1.00  0.00     0.106 C 
HETATM    9  C   UNL     1      40.461 -13.907   3.784  1.00  0.00     0.046 C 
HETATM   10  H   UNL     1      40.551 -17.164   3.592  1.00  0.00     0.166 HD
ENDROOT
BRANCH   4  11
HETATM   11  S   UNL     1      41.552 -17.392   1.048  1.00  0.00    -0.102 SA
BRANCH  11  12
HETATM   12  C   UNL     1      42.390 -18.190   2.450  1.00  0.00     0.184 C 
BRANCH  12  13
HETATM   13  C   UNL     1      43.748 -17.585   2.752  1.00  0.00     0.231 C 
HETATM   14  N   UNL     1      44.360 -17.894   3.940  1.00  0.00    -0.324 N 
HETATM   15  H   UNL     1      44.976 -17.162   4.284  1.00  0.00     0.169 HD
HETATM   16  O   UNL     1      44.230 -16.699   2.044  1.00  0.00    -0.272 OA
BRANCH  14  17
HETATM   17  C   UNL     1      44.214 -19.014   4.776  1.00  0.00     0.070 A 
HETATM   18  C   UNL     1      43.648 -18.824   6.050  1.00  0.00     0.095 A 
HETATM   19  C   UNL     1      43.545 -19.902   6.933  1.00  0.00     0.041 A 
HETATM   20  C   UNL     1      44.001 -21.166   6.549  1.00  0.00     0.026 A 
HETATM   21  C   UNL     1      44.568 -21.346   5.291  1.00  0.00     0.036 A 
HETATM   22 CL   UNL     1      45.158 -22.896   4.831  1.00  0.00    -0.084 Cl
HETATM   23  C   UNL     1      44.683 -20.277   4.405  1.00  0.00     0.056 A 
BRANCH  18  24
HETATM   24  O   UNL     1      43.222 -17.550   6.342  1.00  0.00    -0.354 OA
HETATM   25  C   UNL     1      42.923 -17.305   7.714  1.00  0.00     0.210 C 
ENDBRANCH  18  24
ENDBRANCH  14  17
ENDBRANCH  12  13
ENDBRANCH  11  12
ENDBRANCH   4  11
BRANCH   8  26
HETATM   26  C   UNL     1      39.176 -12.997   1.778  1.00  0.00    -0.044 A 
HETATM   27  C   UNL     1      38.221 -13.786   1.114  1.00  0.00     0.008 A 
HETATM   28  C   UNL     1      37.028 -13.224   0.657  1.00  0.00     0.001 A 
HETATM   29  C   UNL     1      36.779 -11.866   0.840  1.00  0.00     0.000 A 
HETATM   30  C   UNL     1      37.725 -11.067   1.477  1.00  0.00     0.001 A 
HETATM   31  C   UNL     1      38.916 -11.625   1.942  1.00  0.00     0.008 A 
ENDBRANCH   8  26
BRANCH   9  32
HETATM   32  C   UNL     1      40.751 -12.810   4.769  1.00  0.00     0.255 C 
HETATM   33  N   UNL     1      39.640 -12.291   5.399  1.00  0.00    -0.323 N 
HETATM   34  H   UNL     1      38.758 -12.770   5.280  1.00  0.00     0.169 HD
HETATM   35  O   UNL     1      41.899 -12.394   4.885  1.00  0.00    -0.268 OA
BRANCH  33  36
HETATM   36  C   UNL     1      39.570 -11.109   6.172  1.00  0.00     0.035 A 
HETATM   37  C   UNL     1      39.357  -9.835   5.643  1.00  0.00     0.029 A 
HETATM   38  C   UNL     1      39.259  -8.723   6.486  1.00  0.00     0.002 A 
HETATM   39  C   UNL     1      39.367  -8.876   7.865  1.00  0.00     0.000 A 
HETATM   40  C   UNL     1      39.584 -10.140   8.404  1.00  0.00     0.002 A 
HETATM   41  C   UNL     1      39.692 -11.250   7.561  1.00  0.00     0.029 A 
ENDBRANCH  33  36
ENDBRANCH   9  32
TORSDOF 8
ENDMDL
MODEL 9
REMARK VINA RESULT:      -8.2      2.826      6.701
REMARK  8 active torsions:
REMARK  status: ('A' for Active; 'I' for Inactive)
REMARK    1  A    between atoms: C_4  and  S_5 
REMARK    2  A    between atoms: S_5  and  C_6 
REMARK    3  A    between atoms: C_6  and  C_7 
REMARK       I    between atoms: C_7  and  N_8 
REMARK    4  A    between atoms: N_8  and  C_9 
REMARK    5  A    between atoms: C_10  and  O_11 
REMARK    6  A    between atoms: C_22  and  C_23 
REMARK    7  A    between atoms: C_29  and  C_30 
REMARK       I    between atoms: C_30  and  N_31 
REMARK    8  A    between atoms: N_31  and  C_32 
ROOT
HETATM    1  C   UNL     1      38.633 -15.046   1.580  1.00  0.00     0.069 C 
HETATM    2  C   UNL     1      39.923 -15.064   2.360  1.00  0.00     0.019 C 
HETATM    3  N   UNL     1      39.802 -14.891   3.732  1.00  0.00    -0.353 N 
HETATM    4  C   UNL     1      40.856 -14.524   4.556  1.00  0.00     0.088 C 
HETATM    5  C   UNL     1      42.127 -14.713   4.127  1.00  0.00     0.069 C 
HETATM    6  C   UNL     1      43.277 -14.334   4.882  1.00  0.00     0.099 C 
HETATM    7  N   UNL     1      44.248 -14.023   5.434  1.00  0.00    -0.192 NA
HETATM    8  C   UNL     1      42.381 -15.280   2.730  1.00  0.00     0.106 C 
HETATM    9  C   UNL     1      41.157 -15.212   1.816  1.00  0.00     0.046 C 
HETATM   10  H   UNL     1      38.882 -14.638   4.085  1.00  0.00     0.166 HD
ENDROOT
BRANCH   4  11
HETATM   11  S   UNL     1      40.522 -13.705   6.076  1.00  0.00    -0.102 SA
BRANCH  11  12
HETATM   12  C   UNL     1      40.714 -12.007   5.453  1.00  0.00     0.184 C 
BRANCH  12  13
HETATM   13  C   UNL     1      39.452 -11.177   5.594  1.00  0.00     0.231 C 
HETATM   14  N   UNL     1      39.075 -10.366   4.556  1.00  0.00    -0.324 N 
HETATM   15  H   UNL     1      38.550  -9.546   4.848  1.00  0.00     0.169 HD
HETATM   16  O   UNL     1      38.859 -11.085   6.670  1.00  0.00    -0.272 OA
BRANCH  14  17
HETATM   17  C   UNL     1      39.358 -10.452   3.182  1.00  0.00     0.070 A 
HETATM   18  C   UNL     1      40.410  -9.671   2.669  1.00  0.00     0.095 A 
HETATM   19  C   UNL     1      40.679  -9.683   1.297  1.00  0.00     0.041 A 
HETATM   20  C   UNL     1      39.909 -10.472   0.440  1.00  0.00     0.026 A 
HETATM   21  C   UNL     1      38.864 -11.236   0.953  1.00  0.00     0.036 A 
HETATM   22 CL   UNL     1      37.895 -12.183  -0.109  1.00  0.00    -0.084 Cl
HETATM   23  C   UNL     1      38.580 -11.226   2.316  1.00  0.00     0.056 A 
BRANCH  18  24
HETATM   24  O   UNL     1      41.119  -8.930   3.583  1.00  0.00    -0.354 OA
HETATM   25  C   UNL     1      41.037  -7.517   3.421  1.00  0.00     0.210 C 
ENDBRANCH  18  24
ENDBRANCH  14  17
ENDBRANCH  12  13
ENDBRANCH  11  12
ENDBRANCH   4  11
BRANCH   8  26
HETATM   26  C   UNL     1      42.974 -16.690   2.825  1.00  0.00    -0.044 A 
HETATM   27  C   UNL     1      43.809 -17.210   1.821  1.00  0.00     0.008 A 
HETATM   28  C   UNL     1      44.334 -18.498   1.930  1.00  0.00     0.001 A 
HETATM   29  C   UNL     1      44.021 -19.291   3.032  1.00  0.00     0.000 A 
HETATM   30  C   UNL     1      43.177 -18.798   4.024  1.00  0.00     0.001 A 
HETATM   31  C   UNL     1      42.655 -17.508   3.923  1.00  0.00     0.008 A 
ENDBRANCH   8  26
BRANCH   9  32
HETATM   32  C   UNL     1      41.362 -15.057   0.335  1.00  0.00     0.255 C 
HETATM   33  N   UNL     1      41.517 -13.757  -0.093  1.00  0.00    -0.323 N 
HETATM   34  H   UNL     1      41.637 -13.036   0.606  1.00  0.00     0.169 HD
HETATM   35  O   UNL     1      41.294 -16.046  -0.388  1.00  0.00    -0.268 OA
BRANCH  33  36
HETATM   36  C   UNL     1      41.479 -13.285  -1.425  1.00  0.00     0.035 A 
HETATM   37  C   UNL     1      40.404 -13.471  -2.295  1.00  0.00     0.029 A 
HETATM   38  C   UNL     1      40.432 -12.934  -3.586  1.00  0.00     0.002 A 
HETATM   39  C   UNL     1      41.533 -12.199  -4.016  1.00  0.00     0.000 A 
HETATM   40  C   UNL     1      42.614 -12.010  -3.160  1.00  0.00     0.002 A 
HETATM   41  C   UNL     1      42.589 -12.556  -1.873  1.00  0.00     0.029 A 
ENDBRANCH  33  36
ENDBRANCH   9  32
TORSDOF 8
ENDMDL
MODEL 10
REMARK VINA RESULT:      -8.2      3.114      5.952
REMARK  8 active torsions:
REMARK  status: ('A' for Active; 'I' for Inactive)
REMARK    1  A    between atoms: C_4  and  S_5 
REMARK    2  A    between atoms: S_5  and  C_6 
REMARK    3  A    between atoms: C_6  and  C_7 
REMARK       I    between atoms: C_7  and  N_8 
REMARK    4  A    between atoms: N_8  and  C_9 
REMARK    5  A    between atoms: C_10  and  O_11 
REMARK    6  A    between atoms: C_22  and  C_23 
REMARK    7  A    between atoms: C_29  and  C_30 
REMARK       I    between atoms: C_30  and  N_31 
REMARK    8  A    between atoms: N_31  and  C_32 
ROOT
HETATM    1  C   UNL     1      40.592 -15.827   0.997  1.00  0.00     0.069 C 
HETATM    2  C   UNL     1      40.679 -14.347   1.274  1.00  0.00     0.019 C 
HETATM    3  N   UNL     1      41.516 -13.976   2.318  1.00  0.00    -0.353 N 
HETATM    4  C   UNL     1      41.457 -12.742   2.948  1.00  0.00     0.088 C 
HETATM    5  C   UNL     1      40.863 -11.703   2.313  1.00  0.00     0.069 C 
HETATM    6  C   UNL     1      40.717 -10.407   2.892  1.00  0.00     0.099 C 
HETATM    7  N   UNL     1      40.543  -9.342   3.317  1.00  0.00    -0.192 NA
HETATM    8  C   UNL     1      40.225 -11.916   0.940  1.00  0.00     0.106 C 
HETATM    9  C   UNL     1      39.994 -13.390   0.601  1.00  0.00     0.046 C 
HETATM   10  H   UNL     1      41.898 -14.725   2.891  1.00  0.00     0.166 HD
ENDROOT
BRANCH   4  11
HETATM   11  S   UNL     1      42.035 -12.585   4.602  1.00  0.00    -0.102 SA
BRANCH  11  12
HETATM   12  C   UNL     1      42.294 -14.359   4.910  1.00  0.00     0.184 C 
BRANCH  12  13
HETATM   13  C   UNL     1      41.059 -15.053   5.453  1.00  0.00     0.231 C 
HETATM   14  N   UNL     1      40.903 -16.396   5.227  1.00  0.00    -0.324 N 
HETATM   15  H   UNL     1      39.931 -16.693   5.187  1.00  0.00     0.169 HD
HETATM   16  O   UNL     1      40.122 -14.415   5.937  1.00  0.00    -0.272 OA
BRANCH  14  17
HETATM   17  C   UNL     1      41.858 -17.396   4.975  1.00  0.00     0.070 A 
HETATM   18  C   UNL     1      42.588 -17.908   6.062  1.00  0.00     0.095 A 
HETATM   19  C   UNL     1      43.590 -18.857   5.841  1.00  0.00     0.041 A 
HETATM   20  C   UNL     1      43.862 -19.298   4.544  1.00  0.00     0.026 A 
HETATM   21  C   UNL     1      43.142 -18.781   3.471  1.00  0.00     0.036 A 
HETATM   22 CL   UNL     1      43.500 -19.301   1.870  1.00  0.00    -0.084 Cl
HETATM   23  C   UNL     1      42.147 -17.829   3.677  1.00  0.00     0.056 A 
BRANCH  18  24
HETATM   24  O   UNL     1      42.251 -17.423   7.303  1.00  0.00    -0.354 OA
HETATM   25  C   UNL     1      43.349 -17.065   8.139  1.00  0.00     0.210 C 
ENDBRANCH  18  24
ENDBRANCH  14  17
ENDBRANCH  12  13
ENDBRANCH  11  12
ENDBRANCH   4  11
BRANCH   8  26
HETATM   26  C   UNL     1      41.022 -11.177  -0.140  1.00  0.00    -0.044 A 
HETATM   27  C   UNL     1      40.408 -10.277  -1.027  1.00  0.00     0.008 A 
HETATM   28  C   UNL     1      41.155  -9.617  -2.003  1.00  0.00     0.001 A 
HETATM   29  C   UNL     1      42.523  -9.859  -2.119  1.00  0.00     0.000 A 
HETATM   30  C   UNL     1      43.143 -10.764  -1.261  1.00  0.00     0.001 A 
HETATM   31  C   UNL     1      42.400 -11.421  -0.279  1.00  0.00     0.008 A 
ENDBRANCH   8  26
BRANCH   9  32
HETATM   32  C   UNL     1      38.838 -13.758  -0.286  1.00  0.00     0.255 C 
HETATM   33  N   UNL     1      39.077 -13.617  -1.635  1.00  0.00    -0.323 N 
HETATM   34  H   UNL     1      40.025 -13.435  -1.935  1.00  0.00     0.169 HD
HETATM   35  O   UNL     1      37.764 -14.065   0.223  1.00  0.00    -0.268 OA
BRANCH  33  36
HETATM   36  C   UNL     1      38.125 -13.647  -2.680  1.00  0.00     0.035 A 
HETATM   37  C   UNL     1      37.656 -14.815  -3.283  1.00  0.00     0.029 A 
HETATM   38  C   UNL     1      36.680 -14.756  -4.284  1.00  0.00     0.002 A 
HETATM   39  C   UNL     1      36.159 -13.528  -4.685  1.00  0.00     0.000 A 
HETATM   40  C   UNL     1      36.623 -12.356  -4.094  1.00  0.00     0.002 A 
HETATM   41  C   UNL     1      37.606 -12.415  -3.101  1.00  0.00     0.029 A 
ENDBRANCH  33  36
ENDBRANCH   9  32
TORSDOF 8
ENDMDL
