MODEL 1
REMARK VINA RESULT:      -8.6      0.000      0.000
REMARK  7 active torsions:
REMARK  status: ('A' for Active; 'I' for Inactive)
REMARK    1  A    between atoms: C_4  and  O_5 
REMARK    2  A    between atoms: O_5  and  C_6 
REMARK    3  A    between atoms: C_9  and  N_10 
REMARK       I    between atoms: N_10  and  C_11 
REMARK    4  A    between atoms: C_11  and  C_12 
REMARK    5  A    between atoms: C_12  and  C_13 
REMARK    6  A    between atoms: C_13  and  N_14 
REMARK       I    between atoms: N_14  and  C_15 
REMARK    7  A    between atoms: C_15  and  C_16 
ROOT
HETATM    1  N   UNL     1      40.994 -15.098   6.181  1.00  0.00    -0.327 N 
HETATM    2  C   UNL     1      41.029 -13.739   5.927  1.00  0.00     0.223 C 
HETATM    3  O   UNL     1      41.964 -13.112   5.438  1.00  0.00    -0.273 OA
HETATM    4  H   UNL     1      40.159 -15.459   6.627  1.00  0.00     0.169 HD
ENDROOT
BRANCH   1   5
HETATM    5  C   UNL     1      41.972 -16.060   5.849  1.00  0.00     0.034 A 
HETATM    6  C   UNL     1      41.765 -17.117   4.960  1.00  0.00     0.032 A 
HETATM    7  C   UNL     1      42.777 -18.058   4.720  1.00  0.00     0.039 A 
HETATM    8  C   UNL     1      44.013 -17.932   5.350  1.00  0.00     0.076 A 
HETATM    9  C   UNL     1      44.227 -16.882   6.243  1.00  0.00     0.039 A 
HETATM   10  C   UNL     1      43.214 -15.950   6.488  1.00  0.00     0.032 A 
BRANCH   8  11
HETATM   11  O   UNL     1      45.043 -18.837   5.229  1.00  0.00    -0.311 OA
BRANCH  11  12
HETATM   12  C   UNL     1      44.778 -20.073   4.690  1.00  0.00     0.076 A 
HETATM   13  C   UNL     1      44.596 -20.278   3.320  1.00  0.00     0.044 A 
HETATM   14  C   UNL     1      44.384 -21.571   2.823  1.00  0.00    -0.059 A 
HETATM   15  C   UNL     1      44.211 -21.797   1.350  1.00  0.00     0.048 C 
HETATM   16  C   UNL     1      44.404 -22.656   3.711  1.00  0.00     0.007 A 
HETATM   17  C   UNL     1      44.612 -22.450   5.076  1.00  0.00     0.003 A 
HETATM   18  C   UNL     1      44.802 -21.160   5.565  1.00  0.00     0.037 A 
ENDBRANCH  11  12
ENDBRANCH   8  11
ENDBRANCH   1   5
BRANCH   2  19
HETATM   19  C   UNL     1      39.749 -13.029   6.319  1.00  0.00     0.123 C 
BRANCH  19  20
HETATM   20  C   UNL     1      40.081 -11.587   6.682  1.00  0.00     0.132 C 
BRANCH  20  21
HETATM   21  N   UNL     1      40.938 -11.476   7.844  1.00  0.00    -0.355 N 
HETATM   22  C   UNL     1      41.845 -10.447   8.002  1.00  0.00     0.275 C 
HETATM   23  O   UNL     1      41.866  -9.471   7.257  1.00  0.00    -0.265 OA
HETATM   24  H   UNL     1      41.048 -12.275   8.460  1.00  0.00     0.162 HD
BRANCH  22  25
HETATM   25  C   UNL     1      42.764 -10.638   9.106  1.00  0.00     0.142 A 
HETATM   26  O   UNL     1      44.068 -10.978   8.846  1.00  0.00    -0.317 OA
HETATM   27  C   UNL     1      44.704 -11.068  10.043  1.00  0.00     0.143 A 
HETATM   28  C   UNL     1      43.835 -10.797  11.074  1.00  0.00     0.027 A 
HETATM   29  C   UNL     1      42.584 -10.521  10.471  1.00  0.00     0.045 A 
ENDBRANCH  22  25
ENDBRANCH  20  21
ENDBRANCH  19  20
ENDBRANCH   2  19
TORSDOF 7
ENDMDL
MODEL 2
REMARK VINA RESULT:      -8.5      1.546      2.155
REMARK  7 active torsions:
REMARK  status: ('A' for Active; 'I' for Inactive)
REMARK    1  A    between atoms: C_4  and  O_5 
REMARK    2  A    between atoms: O_5  and  C_6 
REMARK    3  A    between atoms: C_9  and  N_10 
REMARK       I    between atoms: N_10  and  C_11 
REMARK    4  A    between atoms: C_11  and  C_12 
REMARK    5  A    between atoms: C_12  and  C_13 
REMARK    6  A    between atoms: C_13  and  N_14 
REMARK       I    between atoms: N_14  and  C_15 
REMARK    7  A    between atoms: C_15  and  C_16 
ROOT
HETATM    1  N   UNL     1      40.617 -13.745   6.310  1.00  0.00    -0.327 N 
HETATM    2  C   UNL     1      40.571 -12.363   6.340  1.00  0.00     0.223 C 
HETATM    3  O   UNL     1      41.277 -11.595   5.694  1.00  0.00    -0.273 OA
HETATM    4  H   UNL     1      39.991 -14.238   6.936  1.00  0.00     0.169 HD
ENDROOT
BRANCH   1   5
HETATM    5  C   UNL     1      41.405 -14.560   5.470  1.00  0.00     0.034 A 
HETATM    6  C   UNL     1      42.791 -14.447   5.341  1.00  0.00     0.032 A 
HETATM    7  C   UNL     1      43.495 -15.268   4.449  1.00  0.00     0.039 A 
HETATM    8  C   UNL     1      42.818 -16.225   3.695  1.00  0.00     0.076 A 
HETATM    9  C   UNL     1      41.434 -16.341   3.814  1.00  0.00     0.039 A 
HETATM   10  C   UNL     1      40.732 -15.517   4.699  1.00  0.00     0.032 A 
BRANCH   8  11
HETATM   11  O   UNL     1      43.410 -17.030   2.748  1.00  0.00    -0.311 OA
BRANCH  11  12
HETATM   12  C   UNL     1      43.758 -18.314   3.094  1.00  0.00     0.076 A 
HETATM   13  C   UNL     1      43.674 -19.386   2.201  1.00  0.00     0.044 A 
HETATM   14  C   UNL     1      44.096 -20.664   2.595  1.00  0.00    -0.059 A 
HETATM   15  C   UNL     1      44.028 -21.812   1.632  1.00  0.00     0.048 C 
HETATM   16  C   UNL     1      44.644 -20.839   3.872  1.00  0.00     0.007 A 
HETATM   17  C   UNL     1      44.750 -19.760   4.752  1.00  0.00     0.003 A 
HETATM   18  C   UNL     1      44.310 -18.497   4.361  1.00  0.00     0.037 A 
ENDBRANCH  11  12
ENDBRANCH   8  11
ENDBRANCH   1   5
BRANCH   2  19
HETATM   19  C   UNL     1      39.519 -11.824   7.290  1.00  0.00     0.123 C 
BRANCH  19  20
HETATM   20  C   UNL     1      40.143 -10.721   8.135  1.00  0.00     0.132 C 
BRANCH  20  21
HETATM   21  N   UNL     1      41.428 -11.089   8.692  1.00  0.00    -0.355 N 
HETATM   22  C   UNL     1      42.082 -10.310   9.626  1.00  0.00     0.275 C 
HETATM   23  O   UNL     1      41.546  -9.348  10.170  1.00  0.00    -0.265 OA
HETATM   24  H   UNL     1      41.978 -11.813   8.242  1.00  0.00     0.162 HD
BRANCH  22  25
HETATM   25  C   UNL     1      43.446 -10.723   9.884  1.00  0.00     0.142 A 
HETATM   26  O   UNL     1      44.249 -11.092   8.833  1.00  0.00    -0.317 OA
HETATM   27  C   UNL     1      45.466 -11.405   9.350  1.00  0.00     0.143 A 
HETATM   28  C   UNL     1      45.466 -11.249  10.716  1.00  0.00     0.027 A 
HETATM   29  C   UNL     1      44.165 -10.812  11.062  1.00  0.00     0.045 A 
ENDBRANCH  22  25
ENDBRANCH  20  21
ENDBRANCH  19  20
ENDBRANCH   2  19
TORSDOF 7
ENDMDL
MODEL 3
REMARK VINA RESULT:      -8.4      5.414      7.072
REMARK  7 active torsions:
REMARK  status: ('A' for Active; 'I' for Inactive)
REMARK    1  A    between atoms: C_4  and  O_5 
REMARK    2  A    between atoms: O_5  and  C_6 
REMARK    3  A    between atoms: C_9  and  N_10 
REMARK       I    between atoms: N_10  and  C_11 
REMARK    4  A    between atoms: C_11  and  C_12 
REMARK    5  A    between atoms: C_12  and  C_13 
REMARK    6  A    between atoms: C_13  and  N_14 
REMARK       I    between atoms: N_14  and  C_15 
REMARK    7  A    between atoms: C_15  and  C_16 
ROOT
HETATM    1  N   UNL     1      39.386 -15.676   1.450  1.00  0.00    -0.327 N 
HETATM    2  C   UNL     1      39.136 -14.322   1.575  1.00  0.00     0.223 C 
HETATM    3  O   UNL     1      39.861 -13.493   2.116  1.00  0.00    -0.273 OA
HETATM    4  H   UNL     1      38.666 -16.236   1.010  1.00  0.00     0.169 HD
ENDROOT
BRANCH   1   5
HETATM    5  C   UNL     1      40.556 -16.372   1.824  1.00  0.00     0.034 A 
HETATM    6  C   UNL     1      40.816 -16.834   3.116  1.00  0.00     0.032 A 
HETATM    7  C   UNL     1      42.025 -17.478   3.415  1.00  0.00     0.039 A 
HETATM    8  C   UNL     1      42.974 -17.685   2.415  1.00  0.00     0.076 A 
HETATM    9  C   UNL     1      42.724 -17.222   1.123  1.00  0.00     0.039 A 
HETATM   10  C   UNL     1      41.522 -16.573   0.829  1.00  0.00     0.032 A 
BRANCH   8  11
HETATM   11  O   UNL     1      44.213 -18.246   2.624  1.00  0.00    -0.311 OA
BRANCH  11  12
HETATM   12  C   UNL     1      44.308 -19.610   2.758  1.00  0.00     0.076 A 
HETATM   13  C   UNL     1      44.716 -20.228   3.943  1.00  0.00     0.044 A 
HETATM   14  C   UNL     1      44.739 -21.626   4.037  1.00  0.00    -0.059 A 
HETATM   15  C   UNL     1      45.155 -22.291   5.316  1.00  0.00     0.048 C 
HETATM   16  C   UNL     1      44.304 -22.391   2.947  1.00  0.00     0.007 A 
HETATM   17  C   UNL     1      43.873 -21.770   1.773  1.00  0.00     0.003 A 
HETATM   18  C   UNL     1      43.871 -20.381   1.680  1.00  0.00     0.037 A 
ENDBRANCH  11  12
ENDBRANCH   8  11
ENDBRANCH   1   5
BRANCH   2  19
HETATM   19  C   UNL     1      37.817 -13.902   0.958  1.00  0.00     0.123 C 
BRANCH  19  20
HETATM   20  C   UNL     1      37.963 -13.908  -0.559  1.00  0.00     0.132 C 
BRANCH  20  21
HETATM   21  N   UNL     1      39.043 -13.067  -1.029  1.00  0.00    -0.355 N 
HETATM   22  C   UNL     1      40.163 -13.578  -1.654  1.00  0.00     0.275 C 
HETATM   23  O   UNL     1      40.241 -14.752  -2.006  1.00  0.00    -0.265 OA
HETATM   24  H   UNL     1      39.102 -12.106  -0.708  1.00  0.00     0.162 HD
BRANCH  22  25
HETATM   25  C   UNL     1      41.226 -12.610  -1.839  1.00  0.00     0.142 A 
HETATM   26  O   UNL     1      42.138 -12.412  -0.833  1.00  0.00    -0.317 OA
HETATM   27  C   UNL     1      43.025 -11.482  -1.275  1.00  0.00     0.143 A 
HETATM   28  C   UNL     1      42.703 -11.073  -2.547  1.00  0.00     0.027 A 
HETATM   29  C   UNL     1      41.543 -11.798  -2.911  1.00  0.00     0.045 A 
ENDBRANCH  22  25
ENDBRANCH  20  21
ENDBRANCH  19  20
ENDBRANCH   2  19
TORSDOF 7
ENDMDL
MODEL 4
REMARK VINA RESULT:      -8.2      1.898      2.565
REMARK  7 active torsions:
REMARK  status: ('A' for Active; 'I' for Inactive)
REMARK    1  A    between atoms: C_4  and  O_5 
REMARK    2  A    between atoms: O_5  and  C_6 
REMARK    3  A    between atoms: C_9  and  N_10 
REMARK       I    between atoms: N_10  and  C_11 
REMARK    4  A    between atoms: C_11  and  C_12 
REMARK    5  A    between atoms: C_12  and  C_13 
REMARK    6  A    between atoms: C_13  and  N_14 
REMARK       I    between atoms: N_14  and  C_15 
REMARK    7  A    between atoms: C_15  and  C_16 
ROOT
HETATM    1  N   UNL     1      41.005 -13.324   6.204  1.00  0.00    -0.327 N 
HETATM    2  C   UNL     1      39.831 -12.594   6.190  1.00  0.00     0.223 C 
HETATM    3  O   UNL     1      38.990 -12.582   5.297  1.00  0.00    -0.273 OA
HETATM    4  H   UNL     1      41.616 -13.193   7.001  1.00  0.00     0.169 HD
ENDROOT
BRANCH   1   5
HETATM    5  C   UNL     1      41.438 -14.274   5.254  1.00  0.00     0.034 A 
HETATM    6  C   UNL     1      40.827 -15.512   5.046  1.00  0.00     0.032 A 
HETATM    7  C   UNL     1      41.348 -16.418   4.112  1.00  0.00     0.039 A 
HETATM    8  C   UNL     1      42.473 -16.080   3.361  1.00  0.00     0.076 A 
HETATM    9  C   UNL     1      43.092 -14.848   3.566  1.00  0.00     0.039 A 
HETATM   10  C   UNL     1      42.576 -13.948   4.503  1.00  0.00     0.032 A 
BRANCH   8  11
HETATM   11  O   UNL     1      43.094 -16.925   2.469  1.00  0.00    -0.311 OA
BRANCH  11  12
HETATM   12  C   UNL     1      43.522 -18.154   2.910  1.00  0.00     0.076 A 
HETATM   13  C   UNL     1      43.535 -19.289   2.093  1.00  0.00     0.044 A 
HETATM   14  C   UNL     1      44.035 -20.503   2.582  1.00  0.00    -0.059 A 
HETATM   15  C   UNL     1      44.070 -21.716   1.701  1.00  0.00     0.048 C 
HETATM   16  C   UNL     1      44.563 -20.551   3.879  1.00  0.00     0.007 A 
HETATM   17  C   UNL     1      44.572 -19.410   4.684  1.00  0.00     0.003 A 
HETATM   18  C   UNL     1      44.055 -18.211   4.197  1.00  0.00     0.037 A 
ENDBRANCH  11  12
ENDBRANCH   8  11
ENDBRANCH   1   5
BRANCH   2  19
HETATM   19  C   UNL     1      39.640 -11.753   7.437  1.00  0.00     0.123 C 
BRANCH  19  20
HETATM   20  C   UNL     1      40.936 -11.008   7.728  1.00  0.00     0.132 C 
BRANCH  20  21
HETATM   21  N   UNL     1      41.152 -10.771   9.140  1.00  0.00    -0.355 N 
HETATM   22  C   UNL     1      42.411 -10.610   9.681  1.00  0.00     0.275 C 
HETATM   23  O   UNL     1      43.415 -10.486   8.985  1.00  0.00    -0.265 OA
HETATM   24  H   UNL     1      40.395 -10.942   9.795  1.00  0.00     0.162 HD
BRANCH  22  25
HETATM   25  C   UNL     1      42.433 -10.617  11.130  1.00  0.00     0.142 A 
HETATM   26  O   UNL     1      41.314 -11.014  11.820  1.00  0.00    -0.317 OA
HETATM   27  C   UNL     1      41.615 -10.948  13.143  1.00  0.00     0.143 A 
HETATM   28  C   UNL     1      42.907 -10.513  13.324  1.00  0.00     0.027 A 
HETATM   29  C   UNL     1      43.434 -10.297  12.028  1.00  0.00     0.045 A 
ENDBRANCH  22  25
ENDBRANCH  20  21
ENDBRANCH  19  20
ENDBRANCH   2  19
TORSDOF 7
ENDMDL
MODEL 5
REMARK VINA RESULT:      -8.2      4.109      6.019
REMARK  7 active torsions:
REMARK  status: ('A' for Active; 'I' for Inactive)
REMARK    1  A    between atoms: C_4  and  O_5 
REMARK    2  A    between atoms: O_5  and  C_6 
REMARK    3  A    between atoms: C_9  and  N_10 
REMARK       I    between atoms: N_10  and  C_11 
REMARK    4  A    between atoms: C_11  and  C_12 
REMARK    5  A    between atoms: C_12  and  C_13 
REMARK    6  A    between atoms: C_13  and  N_14 
REMARK       I    between atoms: N_14  and  C_15 
REMARK    7  A    between atoms: C_15  and  C_16 
ROOT
HETATM    1  N   UNL     1      40.430 -15.052   3.263  1.00  0.00    -0.327 N 
HETATM    2  C   UNL     1      40.292 -13.767   3.754  1.00  0.00     0.223 C 
HETATM    3  O   UNL     1      40.906 -13.275   4.695  1.00  0.00    -0.273 OA
HETATM    4  H   UNL     1      39.818 -15.321   2.502  1.00  0.00     0.169 HD
ENDROOT
BRANCH   1   5
HETATM    5  C   UNL     1      41.362 -16.031   3.669  1.00  0.00     0.034 A 
HETATM    6  C   UNL     1      41.092 -17.035   4.602  1.00  0.00     0.032 A 
HETATM    7  C   UNL     1      42.089 -17.943   4.985  1.00  0.00     0.039 A 
HETATM    8  C   UNL     1      43.360 -17.866   4.417  1.00  0.00     0.076 A 
HETATM    9  C   UNL     1      43.640 -16.864   3.489  1.00  0.00     0.039 A 
HETATM   10  C   UNL     1      42.647 -15.955   3.114  1.00  0.00     0.032 A 
BRANCH   8  11
HETATM   11  O   UNL     1      44.421 -18.668   4.776  1.00  0.00    -0.311 OA
BRANCH  11  12
HETATM   12  C   UNL     1      44.430 -19.977   4.361  1.00  0.00     0.076 A 
HETATM   13  C   UNL     1      44.246 -20.350   3.027  1.00  0.00     0.044 A 
HETATM   14  C   UNL     1      44.322 -21.700   2.656  1.00  0.00    -0.059 A 
HETATM   15  C   UNL     1      44.147 -22.100   1.221  1.00  0.00     0.048 C 
HETATM   16  C   UNL     1      44.632 -22.659   3.629  1.00  0.00     0.007 A 
HETATM   17  C   UNL     1      44.841 -22.280   4.956  1.00  0.00     0.003 A 
HETATM   18  C   UNL     1      44.744 -20.939   5.321  1.00  0.00     0.037 A 
ENDBRANCH  11  12
ENDBRANCH   8  11
ENDBRANCH   1   5
BRANCH   2  19
HETATM   19  C   UNL     1      39.260 -12.951   2.999  1.00  0.00     0.123 C 
BRANCH  19  20
HETATM   20  C   UNL     1      39.977 -11.847   2.232  1.00  0.00     0.132 C 
BRANCH  20  21
HETATM   21  N   UNL     1      40.422 -12.263   0.918  1.00  0.00    -0.355 N 
HETATM   22  C   UNL     1      41.747 -12.522   0.632  1.00  0.00     0.275 C 
HETATM   23  O   UNL     1      42.608 -12.584   1.505  1.00  0.00    -0.265 OA
HETATM   24  H   UNL     1      39.799 -12.157   0.124  1.00  0.00     0.162 HD
BRANCH  22  25
HETATM   25  C   UNL     1      42.019 -12.697  -0.781  1.00  0.00     0.142 A 
HETATM   26  O   UNL     1      41.419 -13.727  -1.461  1.00  0.00    -0.317 OA
HETATM   27  C   UNL     1      41.826 -13.643  -2.754  1.00  0.00     0.143 A 
HETATM   28  C   UNL     1      42.680 -12.579  -2.925  1.00  0.00     0.027 A 
HETATM   29  C   UNL     1      42.807 -11.970  -1.654  1.00  0.00     0.045 A 
ENDBRANCH  22  25
ENDBRANCH  20  21
ENDBRANCH  19  20
ENDBRANCH   2  19
TORSDOF 7
ENDMDL
MODEL 6
REMARK VINA RESULT:      -8.0      1.755      2.893
REMARK  7 active torsions:
REMARK  status: ('A' for Active; 'I' for Inactive)
REMARK    1  A    between atoms: C_4  and  O_5 
REMARK    2  A    between atoms: O_5  and  C_6 
REMARK    3  A    between atoms: C_9  and  N_10 
REMARK       I    between atoms: N_10  and  C_11 
REMARK    4  A    between atoms: C_11  and  C_12 
REMARK    5  A    between atoms: C_12  and  C_13 
REMARK    6  A    between atoms: C_13  and  N_14 
REMARK       I    between atoms: N_14  and  C_15 
REMARK    7  A    between atoms: C_15  and  C_16 
ROOT
HETATM    1  N   UNL     1      40.540 -13.313   6.607  1.00  0.00    -0.327 N 
HETATM    2  C   UNL     1      40.401 -11.938   6.630  1.00  0.00     0.223 C 
HETATM    3  O   UNL     1      40.962 -11.134   5.891  1.00  0.00    -0.273 OA
HETATM    4  H   UNL     1      40.037 -13.837   7.313  1.00  0.00     0.169 HD
ENDROOT
BRANCH   1   5
HETATM    5  C   UNL     1      41.271 -14.087   5.680  1.00  0.00     0.034 A 
HETATM    6  C   UNL     1      42.659 -14.030   5.529  1.00  0.00     0.032 A 
HETATM    7  C   UNL     1      43.304 -14.800   4.552  1.00  0.00     0.039 A 
HETATM    8  C   UNL     1      42.565 -15.653   3.733  1.00  0.00     0.076 A 
HETATM    9  C   UNL     1      41.179 -15.712   3.873  1.00  0.00     0.039 A 
HETATM   10  C   UNL     1      40.536 -14.938   4.843  1.00  0.00     0.032 A 
BRANCH   8  11
HETATM   11  O   UNL     1      43.098 -16.397   2.705  1.00  0.00    -0.311 OA
BRANCH  11  12
HETATM   12  C   UNL     1      43.552 -17.666   2.972  1.00  0.00     0.076 A 
HETATM   13  C   UNL     1      43.759 -18.138   4.271  1.00  0.00     0.044 A 
HETATM   14  C   UNL     1      44.170 -19.461   4.483  1.00  0.00    -0.059 A 
HETATM   15  C   UNL     1      44.372 -19.976   5.877  1.00  0.00     0.048 C 
HETATM   16  C   UNL     1      44.323 -20.313   3.381  1.00  0.00     0.007 A 
HETATM   17  C   UNL     1      44.090 -19.846   2.086  1.00  0.00     0.003 A 
HETATM   18  C   UNL     1      43.701 -18.524   1.882  1.00  0.00     0.037 A 
ENDBRANCH  11  12
ENDBRANCH   8  11
ENDBRANCH   1   5
BRANCH   2  19
HETATM   19  C   UNL     1      39.443 -11.456   7.702  1.00  0.00     0.123 C 
BRANCH  19  20
HETATM   20  C   UNL     1      40.158 -10.428   8.570  1.00  0.00     0.132 C 
BRANCH  20  21
HETATM   21  N   UNL     1      41.536 -10.776   8.847  1.00  0.00    -0.355 N 
HETATM   22  C   UNL     1      42.055 -10.792  10.125  1.00  0.00     0.275 C 
HETATM   23  O   UNL     1      41.347 -10.680  11.123  1.00  0.00    -0.265 OA
HETATM   24  H   UNL     1      42.207 -10.799   8.085  1.00  0.00     0.162 HD
BRANCH  22  25
HETATM   25  C   UNL     1      43.496 -10.936  10.173  1.00  0.00     0.142 A 
HETATM   26  O   UNL     1      44.202 -11.049   9.001  1.00  0.00    -0.317 OA
HETATM   27  C   UNL     1      45.515 -11.146   9.333  1.00  0.00     0.143 A 
HETATM   28  C   UNL     1      45.674 -11.100  10.698  1.00  0.00     0.027 A 
HETATM   29  C   UNL     1      44.374 -10.966  11.241  1.00  0.00     0.045 A 
ENDBRANCH  22  25
ENDBRANCH  20  21
ENDBRANCH  19  20
ENDBRANCH   2  19
TORSDOF 7
ENDMDL
MODEL 7
REMARK VINA RESULT:      -7.9      5.546      9.151
REMARK  7 active torsions:
REMARK  status: ('A' for Active; 'I' for Inactive)
REMARK    1  A    between atoms: C_4  and  O_5 
REMARK    2  A    between atoms: O_5  and  C_6 
REMARK    3  A    between atoms: C_9  and  N_10 
REMARK       I    between atoms: N_10  and  C_11 
REMARK    4  A    between atoms: C_11  and  C_12 
REMARK    5  A    between atoms: C_12  and  C_13 
REMARK    6  A    between atoms: C_13  and  N_14 
REMARK       I    between atoms: N_14  and  C_15 
REMARK    7  A    between atoms: C_15  and  C_16 
ROOT
HETATM    1  N   UNL     1      41.199 -15.947   3.593  1.00  0.00    -0.327 N 
HETATM    2  C   UNL     1      42.185 -15.880   4.560  1.00  0.00     0.223 C 
HETATM    3  O   UNL     1      43.344 -15.509   4.397  1.00  0.00    -0.273 OA
HETATM    4  H   UNL     1      40.300 -16.315   3.880  1.00  0.00     0.169 HD
ENDROOT
BRANCH   1   5
HETATM    5  C   UNL     1      41.281 -15.516   2.251  1.00  0.00     0.034 A 
HETATM    6  C   UNL     1      41.145 -14.187   1.843  1.00  0.00     0.032 A 
HETATM    7  C   UNL     1      41.194 -13.849   0.483  1.00  0.00     0.039 A 
HETATM    8  C   UNL     1      41.404 -14.838  -0.476  1.00  0.00     0.076 A 
HETATM    9  C   UNL     1      41.536 -16.167  -0.078  1.00  0.00     0.039 A 
HETATM   10  C   UNL     1      41.479 -16.504   1.278  1.00  0.00     0.032 A 
BRANCH   8  11
HETATM   11  O   UNL     1      41.403 -14.614  -1.835  1.00  0.00    -0.311 OA
BRANCH  11  12
HETATM   12  C   UNL     1      40.240 -14.815  -2.538  1.00  0.00     0.076 A 
HETATM   13  C   UNL     1      39.237 -13.847  -2.634  1.00  0.00     0.044 A 
HETATM   14  C   UNL     1      38.097 -14.088  -3.413  1.00  0.00    -0.059 A 
HETATM   15  C   UNL     1      37.029 -13.042  -3.535  1.00  0.00     0.048 C 
HETATM   16  C   UNL     1      38.001 -15.290  -4.128  1.00  0.00     0.007 A 
HETATM   17  C   UNL     1      39.017 -16.244  -4.051  1.00  0.00     0.003 A 
HETATM   18  C   UNL     1      40.138 -16.005  -3.259  1.00  0.00     0.037 A 
ENDBRANCH  11  12
ENDBRANCH   8  11
ENDBRANCH   1   5
BRANCH   2  19
HETATM   19  C   UNL     1      41.707 -16.327   5.927  1.00  0.00     0.123 C 
BRANCH  19  20
HETATM   20  C   UNL     1      42.588 -17.476   6.402  1.00  0.00     0.132 C 
BRANCH  20  21
HETATM   21  N   UNL     1      42.790 -18.493   5.390  1.00  0.00    -0.355 N 
HETATM   22  C   UNL     1      44.045 -18.915   5.002  1.00  0.00     0.275 C 
HETATM   23  O   UNL     1      45.064 -18.584   5.603  1.00  0.00    -0.265 OA
HETATM   24  H   UNL     1      42.017 -18.756   4.787  1.00  0.00     0.162 HD
BRANCH  22  25
HETATM   25  C   UNL     1      44.044 -19.760   3.825  1.00  0.00     0.142 A 
HETATM   26  O   UNL     1      44.675 -20.978   3.869  1.00  0.00    -0.317 OA
HETATM   27  C   UNL     1      44.500 -21.563   2.655  1.00  0.00     0.143 A 
HETATM   28  C   UNL     1      43.770 -20.746   1.825  1.00  0.00     0.027 A 
HETATM   29  C   UNL     1      43.477 -19.583   2.577  1.00  0.00     0.045 A 
ENDBRANCH  22  25
ENDBRANCH  20  21
ENDBRANCH  19  20
ENDBRANCH   2  19
TORSDOF 7
ENDMDL
MODEL 8
REMARK VINA RESULT:      -7.9      2.966      5.140
REMARK  7 active torsions:
REMARK  status: ('A' for Active; 'I' for Inactive)
REMARK    1  A    between atoms: C_4  and  O_5 
REMARK    2  A    between atoms: O_5  and  C_6 
REMARK    3  A    between atoms: C_9  and  N_10 
REMARK       I    between atoms: N_10  and  C_11 
REMARK    4  A    between atoms: C_11  and  C_12 
REMARK    5  A    between atoms: C_12  and  C_13 
REMARK    6  A    between atoms: C_13  and  N_14 
REMARK       I    between atoms: N_14  and  C_15 
REMARK    7  A    between atoms: C_15  and  C_16 
ROOT
HETATM    1  N   UNL     1      40.553 -15.144   5.542  1.00  0.00    -0.327 N 
HETATM    2  C   UNL     1      40.664 -13.775   5.703  1.00  0.00     0.223 C 
HETATM    3  O   UNL     1      41.699 -13.143   5.888  1.00  0.00    -0.273 OA
HETATM    4  H   UNL     1      39.618 -15.519   5.438  1.00  0.00     0.169 HD
ENDROOT
BRANCH   1   5
HETATM    5  C   UNL     1      41.601 -16.087   5.459  1.00  0.00     0.034 A 
HETATM    6  C   UNL     1      42.018 -16.893   6.520  1.00  0.00     0.032 A 
HETATM    7  C   UNL     1      43.098 -17.774   6.367  1.00  0.00     0.039 A 
HETATM    8  C   UNL     1      43.753 -17.870   5.141  1.00  0.00     0.076 A 
HETATM    9  C   UNL     1      43.346 -17.065   4.077  1.00  0.00     0.039 A 
HETATM   10  C   UNL     1      42.274 -16.182   4.234  1.00  0.00     0.032 A 
BRANCH   8  11
HETATM   11  O   UNL     1      44.862 -18.655   4.912  1.00  0.00    -0.311 OA
BRANCH  11  12
HETATM   12  C   UNL     1      44.681 -19.943   4.469  1.00  0.00     0.076 A 
HETATM   13  C   UNL     1      44.437 -20.255   3.129  1.00  0.00     0.044 A 
HETATM   14  C   UNL     1      44.318 -21.593   2.728  1.00  0.00    -0.059 A 
HETATM   15  C   UNL     1      44.077 -21.932   1.287  1.00  0.00     0.048 C 
HETATM   16  C   UNL     1      44.493 -22.608   3.678  1.00  0.00     0.007 A 
HETATM   17  C   UNL     1      44.762 -22.293   5.011  1.00  0.00     0.003 A 
HETATM   18  C   UNL     1      44.860 -20.961   5.405  1.00  0.00     0.037 A 
ENDBRANCH  11  12
ENDBRANCH   8  11
ENDBRANCH   1   5
BRANCH   2  19
HETATM   19  C   UNL     1      39.330 -13.059   5.630  1.00  0.00     0.123 C 
BRANCH  19  20
HETATM   20  C   UNL     1      39.343 -12.119   4.431  1.00  0.00     0.132 C 
BRANCH  20  21
HETATM   21  N   UNL     1      39.986 -12.692   3.267  1.00  0.00    -0.355 N 
HETATM   22  C   UNL     1      39.298 -12.974   2.104  1.00  0.00     0.275 C 
HETATM   23  O   UNL     1      38.143 -12.603   1.917  1.00  0.00    -0.265 OA
HETATM   24  H   UNL     1      40.908 -13.106   3.360  1.00  0.00     0.162 HD
BRANCH  22  25
HETATM   25  C   UNL     1      40.058 -13.752   1.146  1.00  0.00     0.142 A 
HETATM   26  O   UNL     1      41.276 -14.269   1.512  1.00  0.00    -0.317 OA
HETATM   27  C   UNL     1      41.752 -14.964   0.446  1.00  0.00     0.143 A 
HETATM   28  C   UNL     1      40.867 -14.905  -0.605  1.00  0.00     0.027 A 
HETATM   29  C   UNL     1      39.776 -14.123  -0.156  1.00  0.00     0.045 A 
ENDBRANCH  22  25
ENDBRANCH  20  21
ENDBRANCH  19  20
ENDBRANCH   2  19
TORSDOF 7
ENDMDL
MODEL 9
REMARK VINA RESULT:      -7.8      2.456      3.513
REMARK  7 active torsions:
REMARK  status: ('A' for Active; 'I' for Inactive)
REMARK    1  A    between atoms: C_4  and  O_5 
REMARK    2  A    between atoms: O_5  and  C_6 
REMARK    3  A    between atoms: C_9  and  N_10 
REMARK       I    between atoms: N_10  and  C_11 
REMARK    4  A    between atoms: C_11  and  C_12 
REMARK    5  A    between atoms: C_12  and  C_13 
REMARK    6  A    between atoms: C_13  and  N_14 
REMARK       I    between atoms: N_14  and  C_15 
REMARK    7  A    between atoms: C_15  and  C_16 
ROOT
HETATM    1  N   UNL     1      41.890 -12.508   6.469  1.00  0.00    -0.327 N 
HETATM    2  C   UNL     1      40.973 -11.473   6.500  1.00  0.00     0.223 C 
HETATM    3  O   UNL     1      40.040 -11.302   5.722  1.00  0.00    -0.273 OA
HETATM    4  H   UNL     1      42.629 -12.485   7.161  1.00  0.00     0.169 HD
ENDROOT
BRANCH   1   5
HETATM    5  C   UNL     1      41.893 -13.628   5.610  1.00  0.00     0.034 A 
HETATM    6  C   UNL     1      42.750 -13.777   4.517  1.00  0.00     0.032 A 
HETATM    7  C   UNL     1      42.658 -14.902   3.685  1.00  0.00     0.039 A 
HETATM    8  C   UNL     1      41.722 -15.898   3.957  1.00  0.00     0.076 A 
HETATM    9  C   UNL     1      40.859 -15.755   5.043  1.00  0.00     0.039 A 
HETATM   10  C   UNL     1      40.947 -14.629   5.867  1.00  0.00     0.032 A 
BRANCH   8  11
HETATM   11  O   UNL     1      41.512 -17.004   3.164  1.00  0.00    -0.311 OA
BRANCH  11  12
HETATM   12  C   UNL     1      42.462 -17.996   3.146  1.00  0.00     0.076 A 
HETATM   13  C   UNL     1      43.095 -18.459   4.303  1.00  0.00     0.044 A 
HETATM   14  C   UNL     1      44.016 -19.513   4.228  1.00  0.00    -0.059 A 
HETATM   15  C   UNL     1      44.680 -20.026   5.472  1.00  0.00     0.048 C 
HETATM   16  C   UNL     1      44.255 -20.124   2.991  1.00  0.00     0.007 A 
HETATM   17  C   UNL     1      43.602 -19.676   1.841  1.00  0.00     0.003 A 
HETATM   18  C   UNL     1      42.703 -18.615   1.919  1.00  0.00     0.037 A 
ENDBRANCH  11  12
ENDBRANCH   8  11
ENDBRANCH   1   5
BRANCH   2  19
HETATM   19  C   UNL     1      41.215 -10.499   7.635  1.00  0.00     0.123 C 
BRANCH  19  20
HETATM   20  C   UNL     1      40.413 -10.952   8.848  1.00  0.00     0.132 C 
BRANCH  20  21
HETATM   21  N   UNL     1      41.156 -10.863  10.088  1.00  0.00    -0.355 N 
HETATM   22  C   UNL     1      40.609 -10.344  11.244  1.00  0.00     0.275 C 
HETATM   23  O   UNL     1      39.413 -10.084  11.347  1.00  0.00    -0.265 OA
HETATM   24  H   UNL     1      42.165 -10.972  10.073  1.00  0.00     0.162 HD
BRANCH  22  25
HETATM   25  C   UNL     1      41.574 -10.125  12.304  1.00  0.00     0.142 A 
HETATM   26  O   UNL     1      41.292 -10.565  13.573  1.00  0.00    -0.317 OA
HETATM   27  C   UNL     1      42.362 -10.255  14.350  1.00  0.00     0.143 A 
HETATM   28  C   UNL     1      43.331  -9.621  13.609  1.00  0.00     0.027 A 
HETATM   29  C   UNL     1      42.823  -9.535  12.291  1.00  0.00     0.045 A 
ENDBRANCH  22  25
ENDBRANCH  20  21
ENDBRANCH  19  20
ENDBRANCH   2  19
TORSDOF 7
ENDMDL
MODEL 10
REMARK VINA RESULT:      -7.7      4.216      9.231
REMARK  7 active torsions:
REMARK  status: ('A' for Active; 'I' for Inactive)
REMARK    1  A    between atoms: C_4  and  O_5 
REMARK    2  A    between atoms: O_5  and  C_6 
REMARK    3  A    between atoms: C_9  and  N_10 
REMARK       I    between atoms: N_10  and  C_11 
REMARK    4  A    between atoms: C_11  and  C_12 
REMARK    5  A    between atoms: C_12  and  C_13 
REMARK    6  A    between atoms: C_13  and  N_14 
REMARK       I    between atoms: N_14  and  C_15 
REMARK    7  A    between atoms: C_15  and  C_16 
ROOT
HETATM    1  N   UNL     1      42.882 -15.843   4.871  1.00  0.00    -0.327 N 
HETATM    2  C   UNL     1      43.034 -16.612   6.011  1.00  0.00     0.223 C 
HETATM    3  O   UNL     1      42.173 -17.305   6.544  1.00  0.00    -0.273 OA
HETATM    4  H   UNL     1      43.681 -15.294   4.579  1.00  0.00     0.169 HD
ENDROOT
BRANCH   1   5
HETATM    5  C   UNL     1      41.749 -15.766   4.031  1.00  0.00     0.034 A 
HETATM    6  C   UNL     1      41.444 -16.698   3.038  1.00  0.00     0.032 A 
HETATM    7  C   UNL     1      40.322 -16.524   2.215  1.00  0.00     0.039 A 
HETATM    8  C   UNL     1      39.484 -15.425   2.398  1.00  0.00     0.076 A 
HETATM    9  C   UNL     1      39.785 -14.487   3.385  1.00  0.00     0.039 A 
HETATM   10  C   UNL     1      40.908 -14.658   4.199  1.00  0.00     0.032 A 
BRANCH   8  11
HETATM   11  O   UNL     1      38.400 -15.134   1.601  1.00  0.00    -0.311 OA
BRANCH  11  12
HETATM   12  C   UNL     1      38.489 -14.084   0.720  1.00  0.00     0.076 A 
HETATM   13  C   UNL     1      39.488 -13.996  -0.254  1.00  0.00     0.044 A 
HETATM   14  C   UNL     1      39.494 -12.928  -1.162  1.00  0.00    -0.059 A 
HETATM   15  C   UNL     1      40.553 -12.842  -2.221  1.00  0.00     0.048 C 
HETATM   16  C   UNL     1      38.462 -11.982  -1.110  1.00  0.00     0.007 A 
HETATM   17  C   UNL     1      37.451 -12.087  -0.153  1.00  0.00     0.003 A 
HETATM   18  C   UNL     1      37.462 -13.140   0.759  1.00  0.00     0.037 A 
ENDBRANCH  11  12
ENDBRANCH   8  11
ENDBRANCH   1   5
BRANCH   2  19
HETATM   19  C   UNL     1      44.430 -16.536   6.596  1.00  0.00     0.123 C 
BRANCH  19  20
HETATM   20  C   UNL     1      45.086 -17.906   6.476  1.00  0.00     0.132 C 
BRANCH  20  21
HETATM   21  N   UNL     1      44.723 -18.605   5.261  1.00  0.00    -0.355 N 
HETATM   22  C   UNL     1      44.414 -19.950   5.243  1.00  0.00     0.275 C 
HETATM   23  O   UNL     1      44.259 -20.602   6.272  1.00  0.00    -0.265 OA
HETATM   24  H   UNL     1      44.908 -18.171   4.362  1.00  0.00     0.162 HD
BRANCH  22  25
HETATM   25  C   UNL     1      44.307 -20.511   3.911  1.00  0.00     0.142 A 
HETATM   26  O   UNL     1      44.627 -21.831   3.708  1.00  0.00    -0.317 OA
HETATM   27  C   UNL     1      44.417 -22.095   2.392  1.00  0.00     0.143 A 
HETATM   28  C   UNL     1      43.970 -20.971   1.738  1.00  0.00     0.027 A 
HETATM   29  C   UNL     1      43.900 -19.950   2.716  1.00  0.00     0.045 A 
ENDBRANCH  22  25
ENDBRANCH  20  21
ENDBRANCH  19  20
ENDBRANCH   2  19
TORSDOF 7
ENDMDL
