MODEL 1
REMARK VINA RESULT:      -7.5      0.000      0.000
REMARK  2 active torsions:
REMARK  status: ('A' for Active; 'I' for Inactive)
REMARK    1  A    between atoms: C_8  and  S_9 
REMARK    2  A    between atoms: S_9  and  C_10 
ROOT
HETATM    1  C   UNL     1      44.577 -21.750   2.205  1.00  0.00     0.002 A 
HETATM    2  C   UNL     1      44.323 -20.410   2.494  1.00  0.00     0.034 A 
HETATM    3  C   UNL     1      44.251 -19.956   3.805  1.00  0.00     0.087 A 
HETATM    4  C   UNL     1      44.445 -20.877   4.867  1.00  0.00     0.087 A 
HETATM    5  N   UNL     1      44.386 -20.485   6.154  1.00  0.00    -0.232 NA
HETATM    6  C   UNL     1      44.169 -19.171   6.386  1.00  0.00     0.164 A 
HETATM    7 CL   UNL     1      44.043 -18.789   8.051  1.00  0.00    -0.059 Cl
HETATM    8  C   UNL     1      43.979 -18.275   5.350  1.00  0.00     0.165 A 
HETATM    9  N   UNL     1      43.995 -18.653   4.045  1.00  0.00    -0.234 NA
HETATM   10  C   UNL     1      44.694 -22.210   4.565  1.00  0.00     0.034 A 
HETATM   11  C   UNL     1      44.762 -22.653   3.244  1.00  0.00     0.002 A 
ENDROOT
BRANCH   8  12
HETATM   12  S   UNL     1      43.643 -16.528   5.452  1.00  0.00     0.076 S 
HETATM   13  O   UNL     1      44.407 -15.966   6.609  1.00  0.00    -0.251 OA
BRANCH  12  14
HETATM   14  C   UNL     1      41.877 -16.608   5.958  1.00  0.00     0.089 C 
HETATM   15  C   UNL     1      41.071 -17.534   5.041  1.00  0.00     0.045 C 
HETATM   16  C   UNL     1      40.903 -16.971   3.636  1.00  0.00     0.233 C 
HETATM   17  N   UNL     1      40.323 -15.599   3.716  1.00  0.00    -0.075 N 
HETATM   18  H   UNL     1      39.357 -15.647   4.070  1.00  0.00     0.277 HD
HETATM   19  H   UNL     1      40.238 -15.219   2.761  1.00  0.00     0.277 HD
HETATM   20  C   UNL     1      41.112 -14.635   4.542  1.00  0.00     0.233 C 
HETATM   21  C   UNL     1      41.273 -15.195   5.948  1.00  0.00     0.045 C 
ENDBRANCH  12  14
ENDBRANCH   8  12
TORSDOF 2
ENDMDL
MODEL 2
REMARK VINA RESULT:      -7.4      2.514      3.126
REMARK  2 active torsions:
REMARK  status: ('A' for Active; 'I' for Inactive)
REMARK    1  A    between atoms: C_8  and  S_9 
REMARK    2  A    between atoms: S_9  and  C_10 
ROOT
HETATM    1  C   UNL     1      43.902 -21.443   1.876  1.00  0.00     0.002 A 
HETATM    2  C   UNL     1      43.130 -20.283   1.826  1.00  0.00     0.034 A 
HETATM    3  C   UNL     1      43.224 -19.311   2.813  1.00  0.00     0.087 A 
HETATM    4  C   UNL     1      44.127 -19.504   3.891  1.00  0.00     0.087 A 
HETATM    5  N   UNL     1      44.253 -18.591   4.873  1.00  0.00    -0.232 NA
HETATM    6  C   UNL     1      43.508 -17.468   4.765  1.00  0.00     0.164 A 
HETATM    7 CL   UNL     1      43.691 -16.403   6.095  1.00  0.00    -0.059 Cl
HETATM    8  C   UNL     1      42.628 -17.281   3.715  1.00  0.00     0.165 A 
HETATM    9  N   UNL     1      42.454 -18.206   2.734  1.00  0.00    -0.234 NA
HETATM   10  C   UNL     1      44.887 -20.666   3.931  1.00  0.00     0.034 A 
HETATM   11  C   UNL     1      44.783 -21.636   2.934  1.00  0.00     0.002 A 
ENDROOT
BRANCH   8  12
HETATM   12  S   UNL     1      41.541 -15.900   3.422  1.00  0.00     0.076 S 
HETATM   13  O   UNL     1      40.528 -16.304   2.397  1.00  0.00    -0.251 OA
BRANCH  12  14
HETATM   14  C   UNL     1      42.732 -14.773   2.590  1.00  0.00     0.089 C 
HETATM   15  C   UNL     1      43.495 -13.914   3.603  1.00  0.00     0.045 C 
HETATM   16  C   UNL     1      42.608 -12.881   4.285  1.00  0.00     0.233 C 
HETATM   17  N   UNL     1      41.913 -12.062   3.250  1.00  0.00    -0.075 N 
HETATM   18  H   UNL     1      42.598 -11.487   2.739  1.00  0.00     0.277 HD
HETATM   19  H   UNL     1      41.296 -11.383   3.723  1.00  0.00     0.277 HD
HETATM   20  C   UNL     1      41.094 -12.849   2.278  1.00  0.00     0.233 C 
HETATM   21  C   UNL     1      41.984 -13.876   1.592  1.00  0.00     0.045 C 
ENDBRANCH  12  14
ENDBRANCH   8  12
TORSDOF 2
ENDMDL
MODEL 3
REMARK VINA RESULT:      -7.3      2.064      2.722
REMARK  2 active torsions:
REMARK  status: ('A' for Active; 'I' for Inactive)
REMARK    1  A    between atoms: C_8  and  S_9 
REMARK    2  A    between atoms: S_9  and  C_10 
ROOT
HETATM    1  C   UNL     1      44.859 -22.266   4.841  1.00  0.00     0.002 A 
HETATM    2  C   UNL     1      44.562 -20.952   5.201  1.00  0.00     0.034 A 
HETATM    3  C   UNL     1      44.218 -20.003   4.247  1.00  0.00     0.087 A 
HETATM    4  C   UNL     1      44.165 -20.383   2.880  1.00  0.00     0.087 A 
HETATM    5  N   UNL     1      43.837 -19.500   1.919  1.00  0.00    -0.232 NA
HETATM    6  C   UNL     1      43.526 -18.246   2.318  1.00  0.00     0.164 A 
HETATM    7 CL   UNL     1      43.190 -17.184   1.016  1.00  0.00    -0.059 Cl
HETATM    8  C   UNL     1      43.579 -17.876   3.649  1.00  0.00     0.165 A 
HETATM    9  N   UNL     1      43.946 -18.739   4.633  1.00  0.00    -0.234 NA
HETATM   10  C   UNL     1      44.467 -21.695   2.536  1.00  0.00     0.034 A 
HETATM   11  C   UNL     1      44.813 -22.638   3.503  1.00  0.00     0.002 A 
ENDROOT
BRANCH   8  12
HETATM   12  S   UNL     1      43.247 -16.277   4.362  1.00  0.00     0.076 S 
HETATM   13  O   UNL     1      43.809 -16.251   5.749  1.00  0.00    -0.251 OA
BRANCH  12  14
HETATM   14  C   UNL     1      41.420 -16.411   4.521  1.00  0.00     0.089 C 
HETATM   15  C   UNL     1      40.707 -15.898   3.265  1.00  0.00     0.045 C 
HETATM   16  C   UNL     1      40.834 -14.391   3.090  1.00  0.00     0.233 C 
HETATM   17  N   UNL     1      40.368 -13.706   4.332  1.00  0.00    -0.075 N 
HETATM   18  H   UNL     1      39.355 -13.848   4.451  1.00  0.00     0.277 HD
HETATM   19  H   UNL     1      40.482 -12.688   4.211  1.00  0.00     0.277 HD
HETATM   20  C   UNL     1      41.083 -14.119   5.578  1.00  0.00     0.233 C 
HETATM   21  C   UNL     1      40.950 -15.625   5.755  1.00  0.00     0.045 C 
ENDBRANCH  12  14
ENDBRANCH   8  12
TORSDOF 2
ENDMDL
MODEL 4
REMARK VINA RESULT:      -7.3      2.884      3.659
REMARK  2 active torsions:
REMARK  status: ('A' for Active; 'I' for Inactive)
REMARK    1  A    between atoms: C_8  and  S_9 
REMARK    2  A    between atoms: S_9  and  C_10 
ROOT
HETATM    1  C   UNL     1      44.776 -20.510   4.174  1.00  0.00     0.002 A 
HETATM    2  C   UNL     1      44.481 -19.174   4.442  1.00  0.00     0.034 A 
HETATM    3  C   UNL     1      43.841 -18.375   3.503  1.00  0.00     0.087 A 
HETATM    4  C   UNL     1      43.480 -18.934   2.250  1.00  0.00     0.087 A 
HETATM    5  N   UNL     1      42.858 -18.200   1.307  1.00  0.00    -0.232 NA
HETATM    6  C   UNL     1      42.564 -16.918   1.623  1.00  0.00     0.164 A 
HETATM    7 CL   UNL     1      41.837 -16.053   0.336  1.00  0.00    -0.059 Cl
HETATM    8  C   UNL     1      42.917 -16.375   2.845  1.00  0.00     0.165 A 
HETATM    9  N   UNL     1      43.580 -17.084   3.796  1.00  0.00    -0.234 NA
HETATM   10  C   UNL     1      43.783 -20.265   1.995  1.00  0.00     0.034 A 
HETATM   11  C   UNL     1      44.428 -21.057   2.945  1.00  0.00     0.002 A 
ENDROOT
BRANCH   8  12
HETATM   12  S   UNL     1      42.655 -14.712   3.427  1.00  0.00     0.076 S 
HETATM   13  O   UNL     1      43.907 -13.926   3.198  1.00  0.00    -0.251 OA
BRANCH  12  14
HETATM   14  C   UNL     1      42.555 -15.055   5.231  1.00  0.00     0.089 C 
HETATM   15  C   UNL     1      41.137 -15.461   5.648  1.00  0.00     0.045 C 
HETATM   16  C   UNL     1      40.144 -14.310   5.557  1.00  0.00     0.233 C 
HETATM   17  N   UNL     1      40.660 -13.147   6.338  1.00  0.00    -0.075 N 
HETATM   18  H   UNL     1      40.668 -13.375   7.342  1.00  0.00     0.277 HD
HETATM   19  H   UNL     1      39.991 -12.366   6.248  1.00  0.00     0.277 HD
HETATM   20  C   UNL     1      42.012 -12.665   5.921  1.00  0.00     0.233 C 
HETATM   21  C   UNL     1      43.004 -13.814   6.019  1.00  0.00     0.045 C 
ENDBRANCH  12  14
ENDBRANCH   8  12
TORSDOF 2
ENDMDL
MODEL 5
REMARK VINA RESULT:      -7.3      2.250      2.756
REMARK  2 active torsions:
REMARK  status: ('A' for Active; 'I' for Inactive)
REMARK    1  A    between atoms: C_8  and  S_9 
REMARK    2  A    between atoms: S_9  and  C_10 
ROOT
HETATM    1  C   UNL     1      43.990 -21.901   1.847  1.00  0.00     0.002 A 
HETATM    2  C   UNL     1      43.413 -20.636   1.739  1.00  0.00     0.034 A 
HETATM    3  C   UNL     1      43.554 -19.691   2.746  1.00  0.00     0.087 A 
HETATM    4  C   UNL     1      44.305 -20.021   3.905  1.00  0.00     0.087 A 
HETATM    5  N   UNL     1      44.471 -19.138   4.908  1.00  0.00    -0.232 NA
HETATM    6  C   UNL     1      43.920 -17.914   4.746  1.00  0.00     0.164 A 
HETATM    7 CL   UNL     1      44.130 -16.891   6.104  1.00  0.00    -0.059 Cl
HETATM    8  C   UNL     1      43.188 -17.594   3.617  1.00  0.00     0.165 A 
HETATM    9  N   UNL     1      42.973 -18.480   2.609  1.00  0.00    -0.234 NA
HETATM   10  C   UNL     1      44.872 -21.285   4.000  1.00  0.00     0.034 A 
HETATM   11  C   UNL     1      44.721 -22.227   2.983  1.00  0.00     0.002 A 
ENDROOT
BRANCH   8  12
HETATM   12  S   UNL     1      42.358 -16.063   3.240  1.00  0.00     0.076 S 
HETATM   13  O   UNL     1      41.429 -15.737   4.367  1.00  0.00    -0.251 OA
BRANCH  12  14
HETATM   14  C   UNL     1      41.322 -16.640   1.835  1.00  0.00     0.089 C 
HETATM   15  C   UNL     1      41.761 -16.001   0.513  1.00  0.00     0.045 C 
HETATM   16  C   UNL     1      41.458 -14.510   0.451  1.00  0.00     0.233 C 
HETATM   17  N   UNL     1      40.013 -14.284   0.743  1.00  0.00    -0.075 N 
HETATM   18  H   UNL     1      39.436 -14.675  -0.016  1.00  0.00     0.277 HD
HETATM   19  H   UNL     1      39.825 -13.269   0.723  1.00  0.00     0.277 HD
HETATM   20  C   UNL     1      39.549 -14.826   2.057  1.00  0.00     0.233 C 
HETATM   21  C   UNL     1      39.846 -16.318   2.114  1.00  0.00     0.045 C 
ENDBRANCH  12  14
ENDBRANCH   8  12
TORSDOF 2
ENDMDL
MODEL 6
REMARK VINA RESULT:      -6.8      3.151      4.222
REMARK  2 active torsions:
REMARK  status: ('A' for Active; 'I' for Inactive)
REMARK    1  A    between atoms: C_8  and  S_9 
REMARK    2  A    between atoms: S_9  and  C_10 
ROOT
HETATM    1  C   UNL     1      43.571 -17.731   8.101  1.00  0.00     0.002 A 
HETATM    2  C   UNL     1      43.351 -16.683   7.208  1.00  0.00     0.034 A 
HETATM    3  C   UNL     1      43.482 -16.864   5.837  1.00  0.00     0.087 A 
HETATM    4  C   UNL     1      43.843 -18.144   5.339  1.00  0.00     0.087 A 
HETATM    5  N   UNL     1      43.982 -18.369   4.019  1.00  0.00    -0.232 NA
HETATM    6  C   UNL     1      43.729 -17.332   3.190  1.00  0.00     0.164 A 
HETATM    7 CL   UNL     1      44.000 -17.703   1.539  1.00  0.00    -0.059 Cl
HETATM    8  C   UNL     1      43.378 -16.086   3.676  1.00  0.00     0.165 A 
HETATM    9  N   UNL     1      43.270 -15.823   5.005  1.00  0.00    -0.234 NA
HETATM   10  C   UNL     1      44.062 -19.178   6.241  1.00  0.00     0.034 A 
HETATM   11  C   UNL     1      43.929 -18.983   7.615  1.00  0.00     0.002 A 
ENDROOT
BRANCH   8  12
HETATM   12  S   UNL     1      43.047 -14.598   2.754  1.00  0.00     0.076 S 
HETATM   13  O   UNL     1      43.749 -13.459   3.423  1.00  0.00    -0.251 OA
BRANCH  12  14
HETATM   14  C   UNL     1      41.255 -14.424   3.130  1.00  0.00     0.089 C 
HETATM   15  C   UNL     1      40.508 -15.747   2.933  1.00  0.00     0.045 C 
HETATM   16  C   UNL     1      40.417 -16.159   1.470  1.00  0.00     0.233 C 
HETATM   17  N   UNL     1      39.824 -15.044   0.676  1.00  0.00    -0.075 N 
HETATM   18  H   UNL     1      38.839 -14.906   0.946  1.00  0.00     0.277 HD
HETATM   19  H   UNL     1      39.790 -15.325  -0.316  1.00  0.00     0.277 HD
HETATM   20  C   UNL     1      40.559 -13.746   0.777  1.00  0.00     0.233 C 
HETATM   21  C   UNL     1      40.643 -13.332   2.239  1.00  0.00     0.045 C 
ENDBRANCH  12  14
ENDBRANCH   8  12
TORSDOF 2
ENDMDL
MODEL 7
REMARK VINA RESULT:      -6.8      2.188      2.665
REMARK  2 active torsions:
REMARK  status: ('A' for Active; 'I' for Inactive)
REMARK    1  A    between atoms: C_8  and  S_9 
REMARK    2  A    between atoms: S_9  and  C_10 
ROOT
HETATM    1  C   UNL     1      44.352 -20.642   2.484  1.00  0.00     0.002 A 
HETATM    2  C   UNL     1      43.988 -19.334   2.168  1.00  0.00     0.034 A 
HETATM    3  C   UNL     1      43.865 -18.362   3.153  1.00  0.00     0.087 A 
HETATM    4  C   UNL     1      44.119 -18.710   4.505  1.00  0.00     0.087 A 
HETATM    5  N   UNL     1      44.013 -17.803   5.495  1.00  0.00    -0.232 NA
HETATM    6  C   UNL     1      43.689 -16.540   5.137  1.00  0.00     0.164 A 
HETATM    7 CL   UNL     1      43.513 -15.482   6.473  1.00  0.00    -0.059 Cl
HETATM    8  C   UNL     1      43.441 -16.202   3.819  1.00  0.00     0.165 A 
HETATM    9  N   UNL     1      43.503 -17.108   2.808  1.00  0.00    -0.234 NA
HETATM   10  C   UNL     1      44.477 -20.018   4.806  1.00  0.00     0.034 A 
HETATM   11  C   UNL     1      44.595 -20.986   3.808  1.00  0.00     0.002 A 
ENDROOT
BRANCH   8  12
HETATM   12  S   UNL     1      42.966 -14.617   3.160  1.00  0.00     0.076 S 
HETATM   13  O   UNL     1      44.013 -13.615   3.535  1.00  0.00    -0.251 OA
BRANCH  12  14
HETATM   14  C   UNL     1      41.503 -14.293   4.225  1.00  0.00     0.089 C 
HETATM   15  C   UNL     1      40.284 -15.101   3.767  1.00  0.00     0.045 C 
HETATM   16  C   UNL     1      39.730 -14.625   2.431  1.00  0.00     0.233 C 
HETATM   17  N   UNL     1      39.452 -13.160   2.502  1.00  0.00    -0.075 N 
HETATM   18  H   UNL     1      38.678 -12.982   3.157  1.00  0.00     0.277 HD
HETATM   19  H   UNL     1      39.102 -12.845   1.584  1.00  0.00     0.277 HD
HETATM   20  C   UNL     1      40.629 -12.319   2.875  1.00  0.00     0.233 C 
HETATM   21  C   UNL     1      41.177 -12.791   4.214  1.00  0.00     0.045 C 
ENDBRANCH  12  14
ENDBRANCH   8  12
TORSDOF 2
ENDMDL
MODEL 8
REMARK VINA RESULT:      -6.7      3.242      4.594
REMARK  2 active torsions:
REMARK  status: ('A' for Active; 'I' for Inactive)
REMARK    1  A    between atoms: C_8  and  S_9 
REMARK    2  A    between atoms: S_9  and  C_10 
ROOT
HETATM    1  C   UNL     1      43.475 -17.689   8.310  1.00  0.00     0.002 A 
HETATM    2  C   UNL     1      42.731 -16.978   7.369  1.00  0.00     0.034 A 
HETATM    3  C   UNL     1      42.681 -17.376   6.039  1.00  0.00     0.087 A 
HETATM    4  C   UNL     1      43.399 -18.532   5.636  1.00  0.00     0.087 A 
HETATM    5  N   UNL     1      43.382 -18.957   4.358  1.00  0.00    -0.232 NA
HETATM    6  C   UNL     1      42.622 -18.255   3.488  1.00  0.00     0.164 A 
HETATM    7 CL   UNL     1      42.722 -18.836   1.879  1.00  0.00    -0.059 Cl
HETATM    8  C   UNL     1      41.923 -17.128   3.883  1.00  0.00     0.165 A 
HETATM    9  N   UNL     1      41.957 -16.657   5.157  1.00  0.00    -0.234 NA
HETATM   10  C   UNL     1      44.139 -19.228   6.583  1.00  0.00     0.034 A 
HETATM   11  C   UNL     1      44.183 -18.817   7.915  1.00  0.00     0.002 A 
ENDROOT
BRANCH   8  12
HETATM   12  S   UNL     1      40.908 -16.057   2.885  1.00  0.00     0.076 S 
HETATM   13  O   UNL     1      40.094 -16.903   1.958  1.00  0.00    -0.251 OA
BRANCH  12  14
HETATM   14  C   UNL     1      42.230 -15.270   1.878  1.00  0.00     0.089 C 
HETATM   15  C   UNL     1      43.286 -14.597   2.762  1.00  0.00     0.045 C 
HETATM   16  C   UNL     1      42.753 -13.365   3.480  1.00  0.00     0.233 C 
HETATM   17  N   UNL     1      42.159 -12.427   2.483  1.00  0.00    -0.075 N 
HETATM   18  H   UNL     1      42.899 -12.047   1.875  1.00  0.00     0.277 HD
HETATM   19  H   UNL     1      41.779 -11.608   2.984  1.00  0.00     0.277 HD
HETATM   20  C   UNL     1      41.072 -13.015   1.642  1.00  0.00     0.233 C 
HETATM   21  C   UNL     1      41.609 -14.243   0.920  1.00  0.00     0.045 C 
ENDBRANCH  12  14
ENDBRANCH   8  12
TORSDOF 2
ENDMDL
MODEL 9
REMARK VINA RESULT:      -6.6      3.351      4.814
REMARK  2 active torsions:
REMARK  status: ('A' for Active; 'I' for Inactive)
REMARK    1  A    between atoms: C_8  and  S_9 
REMARK    2  A    between atoms: S_9  and  C_10 
ROOT
HETATM    1  C   UNL     1      43.222 -17.402   8.034  1.00  0.00     0.002 A 
HETATM    2  C   UNL     1      42.397 -16.991   6.987  1.00  0.00     0.034 A 
HETATM    3  C   UNL     1      42.675 -17.337   5.671  1.00  0.00     0.087 A 
HETATM    4  C   UNL     1      43.821 -18.127   5.391  1.00  0.00     0.087 A 
HETATM    5  N   UNL     1      44.132 -18.488   4.131  1.00  0.00    -0.232 NA
HETATM    6  C   UNL     1      43.286 -18.094   3.153  1.00  0.00     0.164 A 
HETATM    7 CL   UNL     1      43.807 -18.545   1.585  1.00  0.00    -0.059 Cl
HETATM    8  C   UNL     1      42.171 -17.323   3.428  1.00  0.00     0.165 A 
HETATM    9  N   UNL     1      41.857 -16.913   4.685  1.00  0.00    -0.234 NA
HETATM   10  C   UNL     1      44.636 -18.526   6.442  1.00  0.00     0.034 A 
HETATM   11  C   UNL     1      44.347 -18.170   7.760  1.00  0.00     0.002 A 
ENDROOT
BRANCH   8  12
HETATM   12  S   UNL     1      40.970 -16.678   2.282  1.00  0.00     0.076 S 
HETATM   13  O   UNL     1      40.597 -17.765   1.323  1.00  0.00    -0.251 OA
BRANCH  12  14
HETATM   14  C   UNL     1      42.050 -15.501   1.371  1.00  0.00     0.089 C 
HETATM   15  C   UNL     1      42.216 -14.183   2.135  1.00  0.00     0.045 C 
HETATM   16  C   UNL     1      40.934 -13.363   2.178  1.00  0.00     0.233 C 
HETATM   17  N   UNL     1      40.427 -13.159   0.790  1.00  0.00    -0.075 N 
HETATM   18  H   UNL     1      41.077 -12.557   0.264  1.00  0.00     0.277 HD
HETATM   19  H   UNL     1      39.546 -12.624   0.834  1.00  0.00     0.277 HD
HETATM   20  C   UNL     1      40.179 -14.419   0.025  1.00  0.00     0.233 C 
HETATM   21  C   UNL     1      41.463 -15.234  -0.024  1.00  0.00     0.045 C 
ENDBRANCH  12  14
ENDBRANCH   8  12
TORSDOF 2
ENDMDL
MODEL 10
REMARK VINA RESULT:      -6.6      3.035      3.855
REMARK  2 active torsions:
REMARK  status: ('A' for Active; 'I' for Inactive)
REMARK    1  A    between atoms: C_8  and  S_9 
REMARK    2  A    between atoms: S_9  and  C_10 
ROOT
HETATM    1  C   UNL     1      44.846 -19.921   4.963  1.00  0.00     0.002 A 
HETATM    2  C   UNL     1      44.370 -18.610   4.957  1.00  0.00     0.034 A 
HETATM    3  C   UNL     1      43.747 -18.074   3.837  1.00  0.00     0.087 A 
HETATM    4  C   UNL     1      43.590 -18.881   2.680  1.00  0.00     0.087 A 
HETATM    5  N   UNL     1      42.993 -18.407   1.570  1.00  0.00    -0.232 NA
HETATM    6  C   UNL     1      42.520 -17.141   1.621  1.00  0.00     0.164 A 
HETATM    7 CL   UNL     1      41.841 -16.611   0.140  1.00  0.00    -0.059 Cl
HETATM    8  C   UNL     1      42.674 -16.356   2.749  1.00  0.00     0.165 A 
HETATM    9  N   UNL     1      43.308 -16.799   3.867  1.00  0.00    -0.234 NA
HETATM   10  C   UNL     1      44.072 -20.184   2.698  1.00  0.00     0.034 A 
HETATM   11  C   UNL     1      44.698 -20.710   3.829  1.00  0.00     0.002 A 
ENDROOT
BRANCH   8  12
HETATM   12  S   UNL     1      42.159 -14.668   2.995  1.00  0.00     0.076 S 
HETATM   13  O   UNL     1      42.889 -14.117   4.179  1.00  0.00    -0.251 OA
BRANCH  12  14
HETATM   14  C   UNL     1      40.425 -14.974   3.523  1.00  0.00     0.089 C 
HETATM   15  C   UNL     1      39.476 -15.051   2.322  1.00  0.00     0.045 C 
HETATM   16  C   UNL     1      39.293 -13.706   1.631  1.00  0.00     0.233 C 
HETATM   17  N   UNL     1      38.866 -12.686   2.633  1.00  0.00    -0.075 N 
HETATM   18  H   UNL     1      37.921 -12.907   2.978  1.00  0.00     0.277 HD
HETATM   19  H   UNL     1      38.770 -11.775   2.158  1.00  0.00     0.277 HD
HETATM   20  C   UNL     1      39.797 -12.521   3.791  1.00  0.00     0.233 C 
HETATM   21  C   UNL     1      39.974 -13.864   4.485  1.00  0.00     0.045 C 
ENDBRANCH  12  14
ENDBRANCH   8  12
TORSDOF 2
ENDMDL
