MODEL 1
REMARK VINA RESULT:      -8.1      0.000      0.000
REMARK  3 active torsions:
REMARK  status: ('A' for Active; 'I' for Inactive)
REMARK    1  A    between atoms: C_4  and  N_5 
REMARK       I    between atoms: N_5  and  C_6 
REMARK    2  A    between atoms: C_6  and  C_7 
REMARK    3  A    between atoms: C_7  and  C_8 
ROOT
HETATM    1  C   UNL     1      43.526 -16.645   6.674  1.00  0.00     0.286 C 
HETATM    2  N   UNL     1      42.680 -17.006   5.447  1.00  0.00    -0.056 N 
HETATM    3  H   UNL     1      42.838 -17.999   5.210  1.00  0.00     0.278 HD
HETATM    4  H   UNL     1      41.686 -16.918   5.694  1.00  0.00     0.278 HD
HETATM    5  C   UNL     1      42.965 -16.197   4.206  1.00  0.00     0.209 C 
HETATM    6  C   UNL     1      42.968 -14.695   4.546  1.00  0.00     0.115 C 
HETATM    7  N   UNL     1      43.868 -14.392   5.643  1.00  0.00    -0.353 N 
HETATM    8  C   UNL     1      44.042 -15.193   6.735  1.00  0.00     0.249 C 
HETATM    9  O   UNL     1      44.669 -14.779   7.707  1.00  0.00    -0.271 OA
HETATM   10  C   UNL     1      41.922 -16.506   3.136  1.00  0.00     0.035 C 
HETATM   11  C   UNL     1      42.220 -15.703   1.868  1.00  0.00     0.002 C 
HETATM   12  C   UNL     1      42.363 -14.204   2.145  1.00  0.00     0.002 C 
HETATM   13  C   UNL     1      43.334 -13.903   3.287  1.00  0.00     0.027 C 
HETATM   14  H   UNL     1      44.185 -13.432   5.776  1.00  0.00     0.163 HD
ENDROOT
BRANCH   1  15
HETATM   15  C   UNL     1      44.690 -17.619   6.885  1.00  0.00     0.146 C 
BRANCH  15  16
HETATM   16  C   UNL     1      44.357 -18.935   6.234  1.00  0.00     0.224 C 
HETATM   17  N   UNL     1      45.012 -19.145   5.040  1.00  0.00    -0.327 N 
HETATM   18  H   UNL     1      45.816 -18.559   4.823  1.00  0.00     0.169 HD
HETATM   19  O   UNL     1      43.444 -19.599   6.719  1.00  0.00    -0.273 OA
BRANCH  17  20
HETATM   20  C   UNL     1      44.678 -20.082   4.038  1.00  0.00     0.034 A 
HETATM   21  C   UNL     1      44.885 -21.459   4.154  1.00  0.00     0.029 A 
HETATM   22  C   UNL     1      44.472 -22.324   3.135  1.00  0.00     0.002 A 
HETATM   23  C   UNL     1      43.855 -21.822   1.992  1.00  0.00     0.000 A 
HETATM   24  C   UNL     1      43.653 -20.451   1.863  1.00  0.00     0.002 A 
HETATM   25  C   UNL     1      44.061 -19.586   2.883  1.00  0.00     0.029 A 
ENDBRANCH  17  20
ENDBRANCH  15  16
ENDBRANCH   1  15
TORSDOF 3
ENDMDL
MODEL 2
REMARK VINA RESULT:      -8.0      0.175      1.062
REMARK  3 active torsions:
REMARK  status: ('A' for Active; 'I' for Inactive)
REMARK    1  A    between atoms: C_4  and  N_5 
REMARK       I    between atoms: N_5  and  C_6 
REMARK    2  A    between atoms: C_6  and  C_7 
REMARK    3  A    between atoms: C_7  and  C_8 
ROOT
HETATM    1  C   UNL     1      43.530 -16.472   6.651  1.00  0.00     0.286 C 
HETATM    2  N   UNL     1      42.651 -16.823   5.444  1.00  0.00    -0.056 N 
HETATM    3  H   UNL     1      42.784 -17.821   5.210  1.00  0.00     0.278 HD
HETATM    4  H   UNL     1      41.664 -16.713   5.711  1.00  0.00     0.278 HD
HETATM    5  C   UNL     1      42.927 -16.028   4.192  1.00  0.00     0.209 C 
HETATM    6  C   UNL     1      42.968 -14.525   4.522  1.00  0.00     0.115 C 
HETATM    7  N   UNL     1      43.896 -14.233   5.598  1.00  0.00    -0.353 N 
HETATM    8  C   UNL     1      44.076 -15.031   6.692  1.00  0.00     0.249 C 
HETATM    9  O   UNL     1      44.731 -14.623   7.648  1.00  0.00    -0.271 OA
HETATM   10  C   UNL     1      41.856 -16.322   3.145  1.00  0.00     0.035 C 
HETATM   11  C   UNL     1      42.144 -15.533   1.867  1.00  0.00     0.002 C 
HETATM   12  C   UNL     1      42.323 -14.037   2.131  1.00  0.00     0.002 C 
HETATM   13  C   UNL     1      43.324 -13.748   3.251  1.00  0.00     0.027 C 
HETATM   14  H   UNL     1      44.235 -13.279   5.718  1.00  0.00     0.163 HD
ENDROOT
BRANCH   1  15
HETATM   15  C   UNL     1      44.677 -17.468   6.845  1.00  0.00     0.146 C 
BRANCH  15  16
HETATM   16  C   UNL     1      44.305 -18.781   6.207  1.00  0.00     0.224 C 
HETATM   17  N   UNL     1      44.921 -19.003   4.995  1.00  0.00    -0.327 N 
HETATM   18  H   UNL     1      45.728 -18.430   4.753  1.00  0.00     0.169 HD
HETATM   19  O   UNL     1      43.398 -19.430   6.721  1.00  0.00    -0.273 OA
BRANCH  17  20
HETATM   20  C   UNL     1      44.544 -19.937   4.005  1.00  0.00     0.034 A 
HETATM   21  C   UNL     1      43.922 -19.594   2.803  1.00  0.00     0.029 A 
HETATM   22  C   UNL     1      43.633 -20.577   1.850  1.00  0.00     0.002 A 
HETATM   23  C   UNL     1      43.958 -21.909   2.093  1.00  0.00     0.000 A 
HETATM   24  C   UNL     1      44.570 -22.262   3.292  1.00  0.00     0.002 A 
HETATM   25  C   UNL     1      44.863 -21.280   4.243  1.00  0.00     0.029 A 
ENDBRANCH  17  20
ENDBRANCH  15  16
ENDBRANCH   1  15
TORSDOF 3
ENDMDL
MODEL 3
REMARK VINA RESULT:      -7.7      2.574      4.307
REMARK  3 active torsions:
REMARK  status: ('A' for Active; 'I' for Inactive)
REMARK    1  A    between atoms: C_4  and  N_5 
REMARK       I    between atoms: N_5  and  C_6 
REMARK    2  A    between atoms: C_6  and  C_7 
REMARK    3  A    between atoms: C_7  and  C_8 
ROOT
HETATM    1  C   UNL     1      41.900 -15.635   2.019  1.00  0.00     0.286 C 
HETATM    2  N   UNL     1      43.013 -15.408   3.050  1.00  0.00    -0.056 N 
HETATM    3  H   UNL     1      43.929 -15.532   2.590  1.00  0.00     0.278 HD
HETATM    4  H   UNL     1      42.975 -14.430   3.367  1.00  0.00     0.278 HD
HETATM    5  C   UNL     1      42.981 -16.327   4.246  1.00  0.00     0.209 C 
HETATM    6  C   UNL     1      41.565 -16.360   4.848  1.00  0.00     0.115 C 
HETATM    7  N   UNL     1      40.562 -16.686   3.851  1.00  0.00    -0.353 N 
HETATM    8  C   UNL     1      40.590 -16.239   2.560  1.00  0.00     0.249 C 
HETATM    9  O   UNL     1      39.612 -16.397   1.835  1.00  0.00    -0.271 OA
HETATM   10  C   UNL     1      43.998 -15.861   5.283  1.00  0.00     0.035 C 
HETATM   11  C   UNL     1      43.984 -16.803   6.489  1.00  0.00     0.002 C 
HETATM   12  C   UNL     1      42.581 -16.987   7.071  1.00  0.00     0.002 C 
HETATM   13  C   UNL     1      41.543 -17.356   6.010  1.00  0.00     0.027 C 
HETATM   14  H   UNL     1      39.650 -17.023   4.156  1.00  0.00     0.163 HD
ENDROOT
BRANCH   1  15
HETATM   15  C   UNL     1      42.384 -16.442   0.809  1.00  0.00     0.146 C 
BRANCH  15  16
HETATM   16  C   UNL     1      43.434 -17.424   1.259  1.00  0.00     0.224 C 
HETATM   17  N   UNL     1      42.921 -18.633   1.673  1.00  0.00    -0.327 N 
HETATM   18  H   UNL     1      41.961 -18.861   1.421  1.00  0.00     0.169 HD
HETATM   19  O   UNL     1      44.588 -17.018   1.370  1.00  0.00    -0.273 OA
BRANCH  17  20
HETATM   20  C   UNL     1      43.573 -19.614   2.453  1.00  0.00     0.034 A 
HETATM   21  C   UNL     1      44.024 -19.404   3.758  1.00  0.00     0.029 A 
HETATM   22  C   UNL     1      44.610 -20.448   4.481  1.00  0.00     0.002 A 
HETATM   23  C   UNL     1      44.754 -21.708   3.906  1.00  0.00     0.000 A 
HETATM   24  C   UNL     1      44.315 -21.926   2.603  1.00  0.00     0.002 A 
HETATM   25  C   UNL     1      43.726 -20.883   1.881  1.00  0.00     0.029 A 
ENDBRANCH  17  20
ENDBRANCH  15  16
ENDBRANCH   1  15
TORSDOF 3
ENDMDL
MODEL 4
REMARK VINA RESULT:      -7.5      1.323      1.695
REMARK  3 active torsions:
REMARK  status: ('A' for Active; 'I' for Inactive)
REMARK    1  A    between atoms: C_4  and  N_5 
REMARK       I    between atoms: N_5  and  C_6 
REMARK    2  A    between atoms: C_6  and  C_7 
REMARK    3  A    between atoms: C_7  and  C_8 
ROOT
HETATM    1  C   UNL     1      42.397 -15.887   5.360  1.00  0.00     0.286 C 
HETATM    2  N   UNL     1      41.653 -16.736   4.321  1.00  0.00    -0.056 N 
HETATM    3  H   UNL     1      41.928 -17.725   4.436  1.00  0.00     0.278 HD
HETATM    4  H   UNL     1      40.644 -16.688   4.517  1.00  0.00     0.278 HD
HETATM    5  C   UNL     1      41.906 -16.364   2.882  1.00  0.00     0.209 C 
HETATM    6  C   UNL     1      41.731 -14.846   2.693  1.00  0.00     0.115 C 
HETATM    7  N   UNL     1      42.541 -14.088   3.629  1.00  0.00    -0.353 N 
HETATM    8  C   UNL     1      42.749 -14.450   4.929  1.00  0.00     0.249 C 
HETATM    9  O   UNL     1      43.281 -13.663   5.707  1.00  0.00    -0.271 OA
HETATM   10  C   UNL     1      40.954 -17.134   1.972  1.00  0.00     0.035 C 
HETATM   11  C   UNL     1      41.222 -16.774   0.510  1.00  0.00     0.002 C 
HETATM   12  C   UNL     1      41.189 -15.264   0.264  1.00  0.00     0.002 C 
HETATM   13  C   UNL     1      42.068 -14.485   1.243  1.00  0.00     0.027 C 
HETATM   14  H   UNL     1      42.745 -13.110   3.430  1.00  0.00     0.163 HD
ENDROOT
BRANCH   1  15
HETATM   15  C   UNL     1      43.648 -16.590   5.897  1.00  0.00     0.146 C 
BRANCH  15  16
HETATM   16  C   UNL     1      43.558 -18.062   5.592  1.00  0.00     0.224 C 
HETATM   17  N   UNL     1      44.441 -18.483   4.623  1.00  0.00    -0.327 N 
HETATM   18  H   UNL     1      45.219 -17.871   4.382  1.00  0.00     0.169 HD
HETATM   19  O   UNL     1      42.630 -18.694   6.091  1.00  0.00    -0.273 OA
BRANCH  17  20
HETATM   20  C   UNL     1      44.383 -19.683   3.880  1.00  0.00     0.034 A 
HETATM   21  C   UNL     1      44.823 -20.920   4.356  1.00  0.00     0.029 A 
HETATM   22  C   UNL     1      44.677 -22.071   3.575  1.00  0.00     0.002 A 
HETATM   23  C   UNL     1      44.096 -21.995   2.311  1.00  0.00     0.000 A 
HETATM   24  C   UNL     1      43.662 -20.766   1.825  1.00  0.00     0.002 A 
HETATM   25  C   UNL     1      43.805 -19.615   2.606  1.00  0.00     0.029 A 
ENDBRANCH  17  20
ENDBRANCH  15  16
ENDBRANCH   1  15
TORSDOF 3
ENDMDL
MODEL 5
REMARK VINA RESULT:      -7.5      2.476      3.104
REMARK  3 active torsions:
REMARK  status: ('A' for Active; 'I' for Inactive)
REMARK    1  A    between atoms: C_4  and  N_5 
REMARK       I    between atoms: N_5  and  C_6 
REMARK    2  A    between atoms: C_6  and  C_7 
REMARK    3  A    between atoms: C_7  and  C_8 
ROOT
HETATM    1  C   UNL     1      41.477 -15.442   4.728  1.00  0.00     0.286 C 
HETATM    2  N   UNL     1      40.426 -15.841   3.685  1.00  0.00    -0.056 N 
HETATM    3  H   UNL     1      40.785 -16.639   3.135  1.00  0.00     0.278 HD
HETATM    4  H   UNL     1      39.586 -16.177   4.174  1.00  0.00     0.278 HD
HETATM    5  C   UNL     1      40.043 -14.758   2.708  1.00  0.00     0.209 C 
HETATM    6  C   UNL     1      39.712 -13.459   3.466  1.00  0.00     0.115 C 
HETATM    7  N   UNL     1      40.786 -13.067   4.360  1.00  0.00    -0.353 N 
HETATM    8  C   UNL     1      41.532 -13.946   5.093  1.00  0.00     0.249 C 
HETATM    9  O   UNL     1      42.287 -13.529   5.967  1.00  0.00    -0.271 OA
HETATM   10  C   UNL     1      38.851 -15.213   1.872  1.00  0.00     0.035 C 
HETATM   11  C   UNL     1      38.472 -14.124   0.866  1.00  0.00     0.002 C 
HETATM   12  C   UNL     1      38.248 -12.765   1.532  1.00  0.00     0.002 C 
HETATM   13  C   UNL     1      39.401 -12.357   2.449  1.00  0.00     0.027 C 
HETATM   14  H   UNL     1      40.830 -12.105   4.692  1.00  0.00     0.163 HD
ENDROOT
BRANCH   1  15
HETATM   15  C   UNL     1      42.879 -15.940   4.362  1.00  0.00     0.146 C 
BRANCH  15  16
HETATM   16  C   UNL     1      42.914 -17.442   4.467  1.00  0.00     0.224 C 
HETATM   17  N   UNL     1      43.911 -18.028   3.720  1.00  0.00    -0.327 N 
HETATM   18  H   UNL     1      44.668 -17.436   3.379  1.00  0.00     0.169 HD
HETATM   19  O   UNL     1      41.986 -17.995   5.051  1.00  0.00    -0.273 OA
BRANCH  17  20
HETATM   20  C   UNL     1      44.003 -19.383   3.333  1.00  0.00     0.034 A 
HETATM   21  C   UNL     1      43.579 -19.874   2.097  1.00  0.00     0.029 A 
HETATM   22  C   UNL     1      43.759 -21.223   1.771  1.00  0.00     0.002 A 
HETATM   23  C   UNL     1      44.359 -22.091   2.680  1.00  0.00     0.000 A 
HETATM   24  C   UNL     1      44.778 -21.613   3.918  1.00  0.00     0.002 A 
HETATM   25  C   UNL     1      44.601 -20.265   4.242  1.00  0.00     0.029 A 
ENDBRANCH  17  20
ENDBRANCH  15  16
ENDBRANCH   1  15
TORSDOF 3
ENDMDL
MODEL 6
REMARK VINA RESULT:      -7.4      3.971      5.149
REMARK  3 active torsions:
REMARK  status: ('A' for Active; 'I' for Inactive)
REMARK    1  A    between atoms: C_4  and  N_5 
REMARK       I    between atoms: N_5  and  C_6 
REMARK    2  A    between atoms: C_6  and  C_7 
REMARK    3  A    between atoms: C_7  and  C_8 
ROOT
HETATM    1  C   UNL     1      41.095 -16.189   1.024  1.00  0.00     0.286 C 
HETATM    2  N   UNL     1      41.356 -16.277  -0.486  1.00  0.00    -0.056 N 
HETATM    3  H   UNL     1      42.330 -16.581  -0.641  1.00  0.00     0.278 HD
HETATM    4  H   UNL     1      40.753 -17.009  -0.883  1.00  0.00     0.278 HD
HETATM    5  C   UNL     1      41.158 -14.991  -1.250  1.00  0.00     0.209 C 
HETATM    6  C   UNL     1      39.801 -14.364  -0.883  1.00  0.00     0.115 C 
HETATM    7  N   UNL     1      39.651 -14.203   0.552  1.00  0.00    -0.353 N 
HETATM    8  C   UNL     1      40.095 -15.107   1.475  1.00  0.00     0.249 C 
HETATM    9  O   UNL     1      39.761 -14.996   2.651  1.00  0.00    -0.271 OA
HETATM   10  C   UNL     1      41.240 -15.263  -2.749  1.00  0.00     0.035 C 
HETATM   11  C   UNL     1      41.061 -13.958  -3.527  1.00  0.00     0.002 C 
HETATM   12  C   UNL     1      39.789 -13.208  -3.126  1.00  0.00     0.002 C 
HETATM   13  C   UNL     1      39.660 -13.025  -1.613  1.00  0.00     0.027 C 
HETATM   14  H   UNL     1      38.953 -13.552   0.908  1.00  0.00     0.163 HD
ENDROOT
BRANCH   1  15
HETATM   15  C   UNL     1      42.391 -16.069   1.832  1.00  0.00     0.146 C 
BRANCH  15  16
HETATM   16  C   UNL     1      43.200 -17.328   1.659  1.00  0.00     0.224 C 
HETATM   17  N   UNL     1      42.746 -18.388   2.412  1.00  0.00    -0.327 N 
HETATM   18  H   UNL     1      41.808 -18.331   2.806  1.00  0.00     0.169 HD
HETATM   19  O   UNL     1      44.246 -17.252   1.019  1.00  0.00    -0.273 OA
BRANCH  17  20
HETATM   20  C   UNL     1      43.452 -19.566   2.738  1.00  0.00     0.034 A 
HETATM   21  C   UNL     1      44.190 -19.737   3.912  1.00  0.00     0.029 A 
HETATM   22  C   UNL     1      44.813 -20.959   4.185  1.00  0.00     0.002 A 
HETATM   23  C   UNL     1      44.709 -22.018   3.286  1.00  0.00     0.000 A 
HETATM   24  C   UNL     1      43.982 -21.856   2.110  1.00  0.00     0.002 A 
HETATM   25  C   UNL     1      43.356 -20.636   1.839  1.00  0.00     0.029 A 
ENDBRANCH  17  20
ENDBRANCH  15  16
ENDBRANCH   1  15
TORSDOF 3
ENDMDL
MODEL 7
REMARK VINA RESULT:      -7.4      2.512      6.514
REMARK  3 active torsions:
REMARK  status: ('A' for Active; 'I' for Inactive)
REMARK    1  A    between atoms: C_4  and  N_5 
REMARK       I    between atoms: N_5  and  C_6 
REMARK    2  A    between atoms: C_6  and  C_7 
REMARK    3  A    between atoms: C_7  and  C_8 
ROOT
HETATM    1  C   UNL     1      43.619 -17.365   4.360  1.00  0.00     0.286 C 
HETATM    2  N   UNL     1      43.552 -18.119   3.026  1.00  0.00    -0.056 N 
HETATM    3  H   UNL     1      42.686 -17.852   2.532  1.00  0.00     0.278 HD
HETATM    4  H   UNL     1      44.335 -17.812   2.434  1.00  0.00     0.278 HD
HETATM    5  C   UNL     1      43.562 -19.624   3.135  1.00  0.00     0.209 C 
HETATM    6  C   UNL     1      44.709 -20.078   4.056  1.00  0.00     0.115 C 
HETATM    7  N   UNL     1      44.662 -19.413   5.346  1.00  0.00    -0.353 N 
HETATM    8  C   UNL     1      44.315 -18.103   5.520  1.00  0.00     0.249 C 
HETATM    9  O   UNL     1      44.486 -17.564   6.610  1.00  0.00    -0.271 OA
HETATM   10  C   UNL     1      43.706 -20.242   1.748  1.00  0.00     0.035 C 
HETATM   11  C   UNL     1      43.695 -21.768   1.852  1.00  0.00     0.002 C 
HETATM   12  C   UNL     1      44.731 -22.294   2.849  1.00  0.00     0.002 C 
HETATM   13  C   UNL     1      44.649 -21.600   4.210  1.00  0.00     0.027 C 
HETATM   14  H   UNL     1      45.165 -19.819   6.132  1.00  0.00     0.163 HD
ENDROOT
BRANCH   1  15
HETATM   15  C   UNL     1      42.244 -16.862   4.814  1.00  0.00     0.146 C 
BRANCH  15  16
HETATM   16  C   UNL     1      41.835 -15.696   3.953  1.00  0.00     0.224 C 
HETATM   17  N   UNL     1      40.486 -15.424   3.992  1.00  0.00    -0.327 N 
HETATM   18  H   UNL     1      39.934 -15.831   4.746  1.00  0.00     0.169 HD
HETATM   19  O   UNL     1      42.678 -15.221   3.197  1.00  0.00    -0.273 OA
BRANCH  17  20
HETATM   20  C   UNL     1      39.745 -14.649   3.073  1.00  0.00     0.034 A 
HETATM   21  C   UNL     1      39.062 -15.179   1.976  1.00  0.00     0.029 A 
HETATM   22  C   UNL     1      38.304 -14.347   1.145  1.00  0.00     0.002 A 
HETATM   23  C   UNL     1      38.227 -12.980   1.401  1.00  0.00     0.000 A 
HETATM   24  C   UNL     1      38.910 -12.441   2.487  1.00  0.00     0.002 A 
HETATM   25  C   UNL     1      39.665 -13.273   3.319  1.00  0.00     0.029 A 
ENDBRANCH  17  20
ENDBRANCH  15  16
ENDBRANCH   1  15
TORSDOF 3
ENDMDL
MODEL 8
REMARK VINA RESULT:      -7.4      1.968      5.752
REMARK  3 active torsions:
REMARK  status: ('A' for Active; 'I' for Inactive)
REMARK    1  A    between atoms: C_4  and  N_5 
REMARK       I    between atoms: N_5  and  C_6 
REMARK    2  A    between atoms: C_6  and  C_7 
REMARK    3  A    between atoms: C_7  and  C_8 
ROOT
HETATM    1  C   UNL     1      43.740 -18.011   5.498  1.00  0.00     0.286 C 
HETATM    2  N   UNL     1      43.902 -18.300   4.001  1.00  0.00    -0.056 N 
HETATM    3  H   UNL     1      43.192 -17.764   3.476  1.00  0.00     0.278 HD
HETATM    4  H   UNL     1      44.820 -17.950   3.694  1.00  0.00     0.278 HD
HETATM    5  C   UNL     1      43.757 -19.748   3.604  1.00  0.00     0.209 C 
HETATM    6  C   UNL     1      44.630 -20.633   4.512  1.00  0.00     0.115 C 
HETATM    7  N   UNL     1      44.359 -20.398   5.919  1.00  0.00    -0.353 N 
HETATM    8  C   UNL     1      44.097 -19.168   6.452  1.00  0.00     0.249 C 
HETATM    9  O   UNL     1      44.071 -19.021   7.671  1.00  0.00    -0.271 OA
HETATM   10  C   UNL     1      44.147 -19.926   2.140  1.00  0.00     0.035 C 
HETATM   11  C   UNL     1      43.981 -21.389   1.728  1.00  0.00     0.002 C 
HETATM   12  C   UNL     1      44.723 -22.348   2.663  1.00  0.00     0.002 C 
HETATM   13  C   UNL     1      44.405 -22.101   4.138  1.00  0.00     0.027 C 
HETATM   14  H   UNL     1      44.639 -21.098   6.603  1.00  0.00     0.163 HD
ENDROOT
BRANCH   1  15
HETATM   15  C   UNL     1      42.348 -17.467   5.839  1.00  0.00     0.146 C 
BRANCH  15  16
HETATM   16  C   UNL     1      41.991 -16.378   4.862  1.00  0.00     0.224 C 
HETATM   17  N   UNL     1      41.003 -16.733   3.971  1.00  0.00    -0.327 N 
HETATM   18  H   UNL     1      40.437 -17.554   4.181  1.00  0.00     0.169 HD
HETATM   19  O   UNL     1      42.699 -15.374   4.841  1.00  0.00    -0.273 OA
BRANCH  17  20
HETATM   20  C   UNL     1      40.686 -16.097   2.750  1.00  0.00     0.034 A 
HETATM   21  C   UNL     1      39.732 -15.086   2.620  1.00  0.00     0.029 A 
HETATM   22  C   UNL     1      39.520 -14.468   1.383  1.00  0.00     0.002 A 
HETATM   23  C   UNL     1      40.255 -14.860   0.266  1.00  0.00     0.000 A 
HETATM   24  C   UNL     1      41.202 -15.872   0.384  1.00  0.00     0.002 A 
HETATM   25  C   UNL     1      41.417 -16.487   1.621  1.00  0.00     0.029 A 
ENDBRANCH  17  20
ENDBRANCH  15  16
ENDBRANCH   1  15
TORSDOF 3
ENDMDL
MODEL 9
REMARK VINA RESULT:      -7.2      2.346      6.484
REMARK  3 active torsions:
REMARK  status: ('A' for Active; 'I' for Inactive)
REMARK    1  A    between atoms: C_4  and  N_5 
REMARK       I    between atoms: N_5  and  C_6 
REMARK    2  A    between atoms: C_6  and  C_7 
REMARK    3  A    between atoms: C_7  and  C_8 
ROOT
HETATM    1  C   UNL     1      43.782 -17.569   5.504  1.00  0.00     0.286 C 
HETATM    2  N   UNL     1      43.665 -17.845   3.999  1.00  0.00    -0.056 N 
HETATM    3  H   UNL     1      42.816 -17.382   3.637  1.00  0.00     0.278 HD
HETATM    4  H   UNL     1      44.464 -17.408   3.521  1.00  0.00     0.278 HD
HETATM    5  C   UNL     1      43.582 -19.301   3.615  1.00  0.00     0.209 C 
HETATM    6  C   UNL     1      44.702 -20.094   4.313  1.00  0.00     0.115 C 
HETATM    7  N   UNL     1      44.699 -19.883   5.749  1.00  0.00    -0.353 N 
HETATM    8  C   UNL     1      44.433 -18.683   6.346  1.00  0.00     0.249 C 
HETATM    9  O   UNL     1      44.639 -18.537   7.548  1.00  0.00    -0.271 OA
HETATM   10  C   UNL     1      43.685 -19.443   2.099  1.00  0.00     0.035 C 
HETATM   11  C   UNL     1      43.580 -20.917   1.704  1.00  0.00     0.002 C 
HETATM   12  C   UNL     1      44.584 -21.796   2.453  1.00  0.00     0.002 C 
HETATM   13  C   UNL     1      44.548 -21.578   3.967  1.00  0.00     0.027 C 
HETATM   14  H   UNL     1      45.178 -20.551   6.351  1.00  0.00     0.163 HD
ENDROOT
BRANCH   1  15
HETATM   15  C   UNL     1      42.441 -17.163   6.126  1.00  0.00     0.146 C 
BRANCH  15  16
HETATM   16  C   UNL     1      42.165 -15.718   5.805  1.00  0.00     0.224 C 
HETATM   17  N   UNL     1      40.831 -15.382   5.864  1.00  0.00    -0.327 N 
HETATM   18  H   UNL     1      40.194 -16.019   6.340  1.00  0.00     0.169 HD
HETATM   19  O   UNL     1      43.094 -15.040   5.375  1.00  0.00    -0.273 OA
BRANCH  17  20
HETATM   20  C   UNL     1      40.213 -14.242   5.304  1.00  0.00     0.034 A 
HETATM   21  C   UNL     1      39.773 -13.145   6.048  1.00  0.00     0.029 A 
HETATM   22  C   UNL     1      39.222 -12.030   5.408  1.00  0.00     0.002 A 
HETATM   23  C   UNL     1      39.102 -12.004   4.020  1.00  0.00     0.000 A 
HETATM   24  C   UNL     1      39.530 -13.095   3.270  1.00  0.00     0.002 A 
HETATM   25  C   UNL     1      40.084 -14.208   3.910  1.00  0.00     0.029 A 
ENDBRANCH  17  20
ENDBRANCH  15  16
ENDBRANCH   1  15
TORSDOF 3
ENDMDL
MODEL 10
REMARK VINA RESULT:      -7.2      2.760      3.547
REMARK  3 active torsions:
REMARK  status: ('A' for Active; 'I' for Inactive)
REMARK    1  A    between atoms: C_4  and  N_5 
REMARK       I    between atoms: N_5  and  C_6 
REMARK    2  A    between atoms: C_6  and  C_7 
REMARK    3  A    between atoms: C_7  and  C_8 
ROOT
HETATM    1  C   UNL     1      42.025 -15.867   3.726  1.00  0.00     0.286 C 
HETATM    2  N   UNL     1      40.929 -14.965   3.144  1.00  0.00    -0.056 N 
HETATM    3  H   UNL     1      41.177 -14.719   2.172  1.00  0.00     0.278 HD
HETATM    4  H   UNL     1      40.052 -15.500   3.097  1.00  0.00     0.278 HD
HETATM    5  C   UNL     1      40.693 -13.675   3.889  1.00  0.00     0.209 C 
HETATM    6  C   UNL     1      40.541 -13.956   5.395  1.00  0.00     0.115 C 
HETATM    7  N   UNL     1      41.659 -14.720   5.918  1.00  0.00    -0.353 N 
HETATM    8  C   UNL     1      42.281 -15.729   5.239  1.00  0.00     0.249 C 
HETATM    9  O   UNL     1      43.086 -16.452   5.819  1.00  0.00    -0.271 OA
HETATM   10  C   UNL     1      39.450 -12.981   3.341  1.00  0.00     0.035 C 
HETATM   11  C   UNL     1      39.219 -11.661   4.080  1.00  0.00     0.002 C 
HETATM   12  C   UNL     1      39.180 -11.841   5.599  1.00  0.00     0.002 C 
HETATM   13  C   UNL     1      40.379 -12.625   6.134  1.00  0.00     0.027 C 
HETATM   14  H   UNL     1      41.832 -14.724   6.922  1.00  0.00     0.163 HD
ENDROOT
BRANCH   1  15
HETATM   15  C   UNL     1      43.348 -15.741   2.962  1.00  0.00     0.146 C 
BRANCH  15  16
HETATM   16  C   UNL     1      43.702 -17.078   2.364  1.00  0.00     0.224 C 
HETATM   17  N   UNL     1      43.174 -18.150   3.049  1.00  0.00    -0.327 N 
HETATM   18  H   UNL     1      42.420 -17.974   3.711  1.00  0.00     0.169 HD
HETATM   19  O   UNL     1      44.531 -17.097   1.458  1.00  0.00    -0.273 OA
BRANCH  17  20
HETATM   20  C   UNL     1      43.581 -19.499   2.965  1.00  0.00     0.034 A 
HETATM   21  C   UNL     1      43.294 -20.337   1.885  1.00  0.00     0.029 A 
HETATM   22  C   UNL     1      43.784 -21.647   1.856  1.00  0.00     0.002 A 
HETATM   23  C   UNL     1      44.560 -22.131   2.906  1.00  0.00     0.000 A 
HETATM   24  C   UNL     1      44.845 -21.307   3.990  1.00  0.00     0.002 A 
HETATM   25  C   UNL     1      44.358 -19.997   4.019  1.00  0.00     0.029 A 
ENDBRANCH  17  20
ENDBRANCH  15  16
ENDBRANCH   1  15
TORSDOF 3
ENDMDL
