MODEL 1
REMARK VINA RESULT:      -7.8      0.000      0.000
REMARK  8 active torsions:
REMARK  status: ('A' for Active; 'I' for Inactive)
REMARK    1  A    between atoms: CG_8  and  CB_9 
REMARK    2  A    between atoms: CB_9  and  CA_10 
REMARK    3  A    between atoms: CA_10  and  N_11 
REMARK    4  A    between atoms: CA_10  and  C_14 
REMARK    5  A    between atoms: N_11  and  C_19 
REMARK    6  A    between atoms: C_14  and  O_15 
REMARK    7  A    between atoms: C_19  and  C_20 
REMARK    8  A    between atoms: C_22  and  C_23 
ROOT
ATOM      1  CA  TRP A   1      43.880 -14.834   6.146  1.00  0.00     0.214 C 
ENDROOT
BRANCH   1   2
ATOM      2  CB  TRP A   1      43.069 -13.914   5.228  1.00  0.00     0.076 C 
BRANCH   2   3
ATOM      3  CG  TRP A   1      42.085 -14.662   4.391  1.00  0.00    -0.028 A 
ATOM      4  CD2 TRP A   1      42.369 -15.485   3.253  1.00  0.00    -0.002 A 
ATOM      5  CE3 TRP A   1      43.549 -15.874   2.586  1.00  0.00     0.014 A 
ATOM      6  CE2 TRP A   1      41.148 -15.953   2.765  1.00  0.00     0.042 A 
ATOM      7  CZ3 TRP A   1      43.464 -16.697   1.456  1.00  0.00     0.001 A 
ATOM      8  CH2 TRP A   1      42.228 -17.138   0.990  1.00  0.00     0.002 A 
ATOM      9  CZ2 TRP A   1      41.045 -16.777   1.640  1.00  0.00     0.030 A 
ATOM     10  NE1 TRP A   1      40.162 -15.465   3.591  1.00  0.00    -0.365 N 
ATOM     11  HE1 TRP A   1      39.177 -15.668   3.486  1.00  0.00     0.165 HD
ATOM     12  CD1 TRP A   1      40.714 -14.678   4.568  1.00  0.00     0.096 A 
ENDBRANCH   2   3
ENDBRANCH   1   2
BRANCH   1  13
ATOM     13  N   TRP A   1      42.976 -15.588   7.098  1.00  0.00    -0.064 N 
ATOM     14  H1  TRP A   1      43.024 -15.034   7.977  1.00  0.00     0.278 HD
ATOM     15  H2  TRP A   1      41.991 -15.518   6.814  1.00  0.00     0.278 HD
BRANCH  13  16
HETATM   16  C   UNK A   0      43.326 -16.999   7.401  1.00  0.00     0.280 C 
BRANCH  16  17
HETATM   17  C   UNK A   0      43.311 -17.833   6.174  1.00  0.00     0.027 A 
HETATM   18  S   UNK A   0      44.755 -18.517   5.541  1.00  0.00    -0.076 SA
HETATM   19  C   UNK A   0      43.855 -19.200   4.251  1.00  0.00     0.079 A 
HETATM   20  N   UNK A   0      42.563 -18.957   4.276  1.00  0.00    -0.257 NA
HETATM   21  C   UNK A   0      42.245 -18.192   5.375  1.00  0.00     0.133 A 
BRANCH  19  22
HETATM   22  C   UNK A   0      44.518 -20.020   3.144  1.00  0.00     0.045 C 
HETATM   23  C   UNK A   0      44.563 -21.553   3.423  1.00  0.00     0.011 C 
HETATM   24  C   UNK A   0      44.252 -21.765   1.931  1.00  0.00     0.002 C 
HETATM   25  C   UNK A   0      43.557 -20.393   1.972  1.00  0.00     0.011 C 
ENDBRANCH  19  22
ENDBRANCH  16  17
ENDBRANCH  13  16
ENDBRANCH   1  13
BRANCH   1  26
ATOM     26  C   TRP A   1      44.892 -14.087   7.039  1.00  0.00     0.197 C 
BRANCH  26  27
ATOM     27  O   TRP A   1      44.285 -13.945   8.333  1.00  0.00    -0.399 OA
ATOM     28  H   TRP A   1      43.355 -14.244   8.241  1.00  0.00     0.209 HD
ENDBRANCH  26  27
ENDBRANCH   1  26
TORSDOF 8
ENDMDL
MODEL 2
REMARK VINA RESULT:      -7.1      3.180      6.100
REMARK  8 active torsions:
REMARK  status: ('A' for Active; 'I' for Inactive)
REMARK    1  A    between atoms: CG_8  and  CB_9 
REMARK    2  A    between atoms: CB_9  and  CA_10 
REMARK    3  A    between atoms: CA_10  and  N_11 
REMARK    4  A    between atoms: CA_10  and  C_14 
REMARK    5  A    between atoms: N_11  and  C_19 
REMARK    6  A    between atoms: C_14  and  O_15 
REMARK    7  A    between atoms: C_19  and  C_20 
REMARK    8  A    between atoms: C_22  and  C_23 
ROOT
ATOM      1  CA  TRP A   1      41.569 -17.208   4.914  1.00  0.00     0.214 C 
ENDROOT
BRANCH   1   2
ATOM      2  CB  TRP A   1      43.017 -17.105   4.427  1.00  0.00     0.076 C 
BRANCH   2   3
ATOM      3  CG  TRP A   1      43.757 -18.395   4.548  1.00  0.00    -0.028 A 
ATOM      4  CD2 TRP A   1      43.793 -19.463   3.593  1.00  0.00    -0.002 A 
ATOM      5  CE3 TRP A   1      43.227 -19.664   2.316  1.00  0.00     0.014 A 
ATOM      6  CE2 TRP A   1      44.578 -20.480   4.137  1.00  0.00     0.042 A 
ATOM      7  CZ3 TRP A   1      43.453 -20.872   1.644  1.00  0.00     0.001 A 
ATOM      8  CH2 TRP A   1      44.233 -21.870   2.221  1.00  0.00     0.002 A 
ATOM      9  CZ2 TRP A   1      44.814 -21.691   3.479  1.00  0.00     0.030 A 
ATOM     10  NE1 TRP A   1      45.031 -20.039   5.358  1.00  0.00    -0.365 N 
ATOM     11  HE1 TRP A   1      45.645 -20.568   5.964  1.00  0.00     0.165 HD
ATOM     12  CD1 TRP A   1      44.536 -18.789   5.620  1.00  0.00     0.096 A 
ENDBRANCH   2   3
ENDBRANCH   1   2
BRANCH   1  13
ATOM     13  N   TRP A   1      40.604 -16.697   3.865  1.00  0.00    -0.064 N 
ATOM     14  H1  TRP A   1      40.631 -17.430   3.126  1.00  0.00     0.278 HD
ATOM     15  H2  TRP A   1      39.635 -16.722   4.203  1.00  0.00     0.278 HD
BRANCH  13  16
HETATM   16  C   UNK A   0      40.902 -15.381   3.245  1.00  0.00     0.280 C 
BRANCH  16  17
HETATM   17  C   UNK A   0      41.025 -15.497   1.771  1.00  0.00     0.027 A 
HETATM   18  S   UNK A   0      40.443 -14.260   0.727  1.00  0.00    -0.076 SA
HETATM   19  C   UNK A   0      40.936 -15.188  -0.630  1.00  0.00     0.079 A 
HETATM   20  N   UNK A   0      41.507 -16.337  -0.348  1.00  0.00    -0.257 NA
HETATM   21  C   UNK A   0      41.573 -16.513   1.017  1.00  0.00     0.133 A 
BRANCH  19  22
HETATM   22  C   UNK A   0      40.710 -14.710  -2.064  1.00  0.00     0.045 C 
HETATM   23  C   UNK A   0      40.510 -15.860  -3.098  1.00  0.00     0.011 C 
HETATM   24  C   UNK A   0      39.436 -14.981  -3.765  1.00  0.00     0.002 C 
HETATM   25  C   UNK A   0      39.227 -14.341  -2.382  1.00  0.00     0.011 C 
ENDBRANCH  19  22
ENDBRANCH  16  17
ENDBRANCH  13  16
ENDBRANCH   1  13
BRANCH   1  26
ATOM     26  C   TRP A   1      41.278 -16.379   6.183  1.00  0.00     0.197 C 
BRANCH  26  27
ATOM     27  O   TRP A   1      39.872 -16.499   6.450  1.00  0.00    -0.399 OA
ATOM     28  H   TRP A   1      39.514 -15.586   6.482  1.00  0.00     0.209 HD
ENDBRANCH  26  27
ENDBRANCH   1  26
TORSDOF 8
ENDMDL
MODEL 3
REMARK VINA RESULT:      -6.9      3.331      6.424
REMARK  8 active torsions:
REMARK  status: ('A' for Active; 'I' for Inactive)
REMARK    1  A    between atoms: CG_8  and  CB_9 
REMARK    2  A    between atoms: CB_9  and  CA_10 
REMARK    3  A    between atoms: CA_10  and  N_11 
REMARK    4  A    between atoms: CA_10  and  C_14 
REMARK    5  A    between atoms: N_11  and  C_19 
REMARK    6  A    between atoms: C_14  and  O_15 
REMARK    7  A    between atoms: C_19  and  C_20 
REMARK    8  A    between atoms: C_22  and  C_23 
ROOT
ATOM      1  CA  TRP A   1      41.377 -16.727   4.418  1.00  0.00     0.214 C 
ENDROOT
BRANCH   1   2
ATOM      2  CB  TRP A   1      42.850 -16.679   4.000  1.00  0.00     0.076 C 
BRANCH   2   3
ATOM      3  CG  TRP A   1      43.594 -17.917   4.376  1.00  0.00    -0.028 A 
ATOM      4  CD2 TRP A   1      43.745 -19.106   3.591  1.00  0.00    -0.002 A 
ATOM      5  CE3 TRP A   1      43.317 -19.501   2.305  1.00  0.00     0.014 A 
ATOM      6  CE2 TRP A   1      44.486 -20.013   4.349  1.00  0.00     0.042 A 
ATOM      7  CZ3 TRP A   1      43.630 -20.784   1.838  1.00  0.00     0.001 A 
ATOM      8  CH2 TRP A   1      44.363 -21.667   2.626  1.00  0.00     0.002 A 
ATOM      9  CZ2 TRP A   1      44.809 -21.296   3.897  1.00  0.00     0.030 A 
ATOM     10  NE1 TRP A   1      44.804 -19.392   5.535  1.00  0.00    -0.365 N 
ATOM     11  HE1 TRP A   1      45.361 -19.812   6.268  1.00  0.00     0.165 HD
ATOM     12  CD1 TRP A   1      44.264 -18.133   5.565  1.00  0.00     0.096 A 
ENDBRANCH   2   3
ENDBRANCH   1   2
BRANCH   1  13
ATOM     13  N   TRP A   1      40.476 -16.262   3.293  1.00  0.00    -0.064 N 
ATOM     14  H1  TRP A   1      39.517 -16.467   3.642  1.00  0.00     0.278 HD
ATOM     15  H2  TRP A   1      40.492 -15.240   3.198  1.00  0.00     0.278 HD
BRANCH  13  16
HETATM   16  C   UNK A   0      40.651 -16.907   1.967  1.00  0.00     0.280 C 
BRANCH  16  17
HETATM   17  C   UNK A   0      40.941 -15.902   0.915  1.00  0.00     0.027 A 
HETATM   18  S   UNK A   0      41.011 -14.223   1.278  1.00  0.00    -0.076 SA
HETATM   19  C   UNK A   0      41.328 -13.889  -0.374  1.00  0.00     0.079 A 
HETATM   20  N   UNK A   0      41.394 -14.941  -1.159  1.00  0.00    -0.257 NA
HETATM   21  C   UNK A   0      41.188 -16.091  -0.429  1.00  0.00     0.133 A 
BRANCH  19  22
HETATM   22  C   UNK A   0      41.508 -12.462  -0.894  1.00  0.00     0.045 C 
HETATM   23  C   UNK A   0      42.311 -11.528   0.063  1.00  0.00     0.011 C 
HETATM   24  C   UNK A   0      42.978 -10.933  -1.189  1.00  0.00     0.002 C 
HETATM   25  C   UNK A   0      42.716 -12.290  -1.866  1.00  0.00     0.011 C 
ENDBRANCH  19  22
ENDBRANCH  16  17
ENDBRANCH  13  16
ENDBRANCH   1  13
BRANCH   1  26
ATOM     26  C   TRP A   1      41.042 -15.820   5.621  1.00  0.00     0.197 C 
BRANCH  26  27
ATOM     27  O   TRP A   1      39.890 -16.386   6.266  1.00  0.00    -0.399 OA
ATOM     28  H   TRP A   1      40.054 -16.331   7.232  1.00  0.00     0.209 HD
ENDBRANCH  26  27
ENDBRANCH   1  26
TORSDOF 8
ENDMDL
MODEL 4
REMARK VINA RESULT:      -6.9      4.679      7.332
REMARK  8 active torsions:
REMARK  status: ('A' for Active; 'I' for Inactive)
REMARK    1  A    between atoms: CG_8  and  CB_9 
REMARK    2  A    between atoms: CB_9  and  CA_10 
REMARK    3  A    between atoms: CA_10  and  N_11 
REMARK    4  A    between atoms: CA_10  and  C_14 
REMARK    5  A    between atoms: N_11  and  C_19 
REMARK    6  A    between atoms: C_14  and  O_15 
REMARK    7  A    between atoms: C_19  and  C_20 
REMARK    8  A    between atoms: C_22  and  C_23 
ROOT
ATOM      1  CA  TRP A   1      44.639 -12.318   8.619  1.00  0.00     0.214 C 
ENDROOT
BRANCH   1   2
ATOM      2  CB  TRP A   1      44.188 -12.112  10.069  1.00  0.00     0.076 C 
BRANCH   2   3
ATOM      3  CG  TRP A   1      43.277 -10.940  10.226  1.00  0.00    -0.028 A 
ATOM      4  CD2 TRP A   1      43.111 -10.126  11.394  1.00  0.00    -0.002 A 
ATOM      5  CE3 TRP A   1      43.695 -10.112  12.678  1.00  0.00     0.014 A 
ATOM      6  CE2 TRP A   1      42.137  -9.172  11.099  1.00  0.00     0.042 A 
ATOM      7  CZ3 TRP A   1      43.273  -9.162  13.617  1.00  0.00     0.001 A 
ATOM      8  CH2 TRP A   1      42.291  -8.231  13.293  1.00  0.00     0.002 A 
ATOM      9  CZ2 TRP A   1      41.706  -8.216  12.024  1.00  0.00     0.030 A 
ATOM     10  NE1 TRP A   1      41.748  -9.372   9.795  1.00  0.00    -0.365 N 
ATOM     11  HE1 TRP A   1      41.067  -8.804   9.308  1.00  0.00     0.165 HD
ATOM     12  CD1 TRP A   1      42.422 -10.440   9.262  1.00  0.00     0.096 A 
ENDBRANCH   2   3
ENDBRANCH   1   2
BRANCH   1  13
ATOM     13  N   TRP A   1      44.194 -13.669   8.098  1.00  0.00    -0.064 N 
ATOM     14  H1  TRP A   1      44.981 -14.303   8.349  1.00  0.00     0.278 HD
ATOM     15  H2  TRP A   1      43.400 -14.035   8.635  1.00  0.00     0.278 HD
BRANCH  13  16
HETATM   16  C   UNK A   0      43.931 -13.787   6.642  1.00  0.00     0.280 C 
BRANCH  16  17
HETATM   17  C   UNK A   0      43.851 -15.208   6.223  1.00  0.00     0.027 A 
HETATM   18  S   UNK A   0      43.033 -15.669   4.782  1.00  0.00    -0.076 SA
HETATM   19  C   UNK A   0      43.397 -17.312   5.114  1.00  0.00     0.079 A 
HETATM   20  N   UNK A   0      44.089 -17.525   6.211  1.00  0.00    -0.257 NA
HETATM   21  C   UNK A   0      44.362 -16.331   6.839  1.00  0.00     0.133 A 
BRANCH  19  22
HETATM   22  C   UNK A   0      42.932 -18.447   4.200  1.00  0.00     0.045 C 
HETATM   23  C   UNK A   0      42.544 -17.991   2.760  1.00  0.00     0.011 C 
HETATM   24  C   UNK A   0      43.213 -19.278   2.246  1.00  0.00     0.002 C 
HETATM   25  C   UNK A   0      44.098 -19.215   3.503  1.00  0.00     0.011 C 
ENDBRANCH  19  22
ENDBRANCH  16  17
ENDBRANCH  13  16
ENDBRANCH   1  13
BRANCH   1  26
ATOM     26  C   TRP A   1      46.170 -12.285   8.433  1.00  0.00     0.197 C 
BRANCH  26  27
ATOM     27  O   TRP A   1      46.582 -10.918   8.594  1.00  0.00    -0.399 OA
ATOM     28  H   TRP A   1      47.147 -10.703   7.821  1.00  0.00     0.209 HD
ENDBRANCH  26  27
ENDBRANCH   1  26
TORSDOF 8
ENDMDL
MODEL 5
REMARK VINA RESULT:      -6.9      1.949      5.284
REMARK  8 active torsions:
REMARK  status: ('A' for Active; 'I' for Inactive)
REMARK    1  A    between atoms: CG_8  and  CB_9 
REMARK    2  A    between atoms: CB_9  and  CA_10 
REMARK    3  A    between atoms: CA_10  and  N_11 
REMARK    4  A    between atoms: CA_10  and  C_14 
REMARK    5  A    between atoms: N_11  and  C_19 
REMARK    6  A    between atoms: C_14  and  O_15 
REMARK    7  A    between atoms: C_19  and  C_20 
REMARK    8  A    between atoms: C_22  and  C_23 
ROOT
ATOM      1  CA  TRP A   1      43.463 -17.758   6.833  1.00  0.00     0.214 C 
ENDROOT
BRANCH   1   2
ATOM      2  CB  TRP A   1      44.651 -17.791   5.868  1.00  0.00     0.076 C 
BRANCH   2   3
ATOM      3  CG  TRP A   1      44.318 -18.445   4.568  1.00  0.00    -0.028 A 
ATOM      4  CD2 TRP A   1      44.429 -19.838   4.250  1.00  0.00    -0.002 A 
ATOM      5  CE3 TRP A   1      44.825 -20.986   4.967  1.00  0.00     0.014 A 
ATOM      6  CE2 TRP A   1      44.043 -19.990   2.917  1.00  0.00     0.042 A 
ATOM      7  CZ3 TRP A   1      44.837 -22.231   4.325  1.00  0.00     0.001 A 
ATOM      8  CH2 TRP A   1      44.455 -22.345   2.991  1.00  0.00     0.002 A 
ATOM      9  CZ2 TRP A   1      44.047 -21.226   2.262  1.00  0.00     0.030 A 
ATOM     10  NE1 TRP A   1      43.679 -18.749   2.451  1.00  0.00    -0.365 N 
ATOM     11  HE1 TRP A   1      43.332 -18.568   1.518  1.00  0.00     0.165 HD
ATOM     12  CD1 TRP A   1      43.849 -17.809   3.434  1.00  0.00     0.096 A 
ENDBRANCH   2   3
ENDBRANCH   1   2
BRANCH   1  13
ATOM     13  N   TRP A   1      43.124 -16.337   7.232  1.00  0.00    -0.064 N 
ATOM     14  H1  TRP A   1      42.142 -16.216   6.911  1.00  0.00     0.278 HD
ATOM     15  H2  TRP A   1      43.066 -16.238   8.252  1.00  0.00     0.278 HD
BRANCH  13  16
HETATM   16  C   UNK A   0      43.954 -15.249   6.654  1.00  0.00     0.280 C 
BRANCH  16  17
HETATM   17  C   UNK A   0      43.364 -14.735   5.393  1.00  0.00     0.027 A 
HETATM   18  S   UNK A   0      41.735 -15.078   4.964  1.00  0.00    -0.076 SA
HETATM   19  C   UNK A   0      41.945 -14.200   3.505  1.00  0.00     0.079 A 
HETATM   20  N   UNK A   0      43.135 -13.670   3.334  1.00  0.00    -0.257 NA
HETATM   21  C   UNK A   0      43.943 -13.959   4.411  1.00  0.00     0.133 A 
BRANCH  19  22
HETATM   22  C   UNK A   0      40.824 -14.061   2.474  1.00  0.00     0.045 C 
HETATM   23  C   UNK A   0      40.502 -15.375   1.698  1.00  0.00     0.011 C 
HETATM   24  C   UNK A   0      39.016 -14.986   1.795  1.00  0.00     0.002 C 
HETATM   25  C   UNK A   0      39.392 -14.215   3.072  1.00  0.00     0.011 C 
ENDBRANCH  19  22
ENDBRANCH  16  17
ENDBRANCH  13  16
ENDBRANCH   1  13
BRANCH   1  26
ATOM     26  C   TRP A   1      43.714 -18.512   8.156  1.00  0.00     0.197 C 
BRANCH  26  27
ATOM     27  O   TRP A   1      43.651 -17.540   9.211  1.00  0.00    -0.399 OA
ATOM     28  H   TRP A   1      43.327 -18.012  10.008  1.00  0.00     0.209 HD
ENDBRANCH  26  27
ENDBRANCH   1  26
TORSDOF 8
ENDMDL
MODEL 6
REMARK VINA RESULT:      -6.6      3.240      7.077
REMARK  8 active torsions:
REMARK  status: ('A' for Active; 'I' for Inactive)
REMARK    1  A    between atoms: CG_8  and  CB_9 
REMARK    2  A    between atoms: CB_9  and  CA_10 
REMARK    3  A    between atoms: CA_10  and  N_11 
REMARK    4  A    between atoms: CA_10  and  C_14 
REMARK    5  A    between atoms: N_11  and  C_19 
REMARK    6  A    between atoms: C_14  and  O_15 
REMARK    7  A    between atoms: C_19  and  C_20 
REMARK    8  A    between atoms: C_22  and  C_23 
ROOT
ATOM      1  CA  TRP A   1      43.272 -15.105   3.679  1.00  0.00     0.214 C 
ENDROOT
BRANCH   1   2
ATOM      2  CB  TRP A   1      42.591 -16.166   4.549  1.00  0.00     0.076 C 
BRANCH   2   3
ATOM      3  CG  TRP A   1      43.447 -17.372   4.758  1.00  0.00    -0.028 A 
ATOM      4  CD2 TRP A   1      43.635 -18.464   3.849  1.00  0.00    -0.002 A 
ATOM      5  CE3 TRP A   1      43.160 -18.765   2.555  1.00  0.00     0.014 A 
ATOM      6  CE2 TRP A   1      44.487 -19.378   4.471  1.00  0.00     0.042 A 
ATOM      7  CZ3 TRP A   1      43.537 -19.968   1.944  1.00  0.00     0.001 A 
ATOM      8  CH2 TRP A   1      44.380 -20.863   2.598  1.00  0.00     0.002 A 
ATOM      9  CZ2 TRP A   1      44.874 -20.582   3.875  1.00  0.00     0.030 A 
ATOM     10  NE1 TRP A   1      44.831 -18.851   5.694  1.00  0.00    -0.365 N 
ATOM     11  HE1 TRP A   1      45.461 -19.294   6.350  1.00  0.00     0.165 HD
ATOM     12  CD1 TRP A   1      44.203 -17.647   5.881  1.00  0.00     0.096 A 
ENDBRANCH   2   3
ENDBRANCH   1   2
BRANCH   1  13
ATOM     13  N   TRP A   1      43.725 -13.926   4.514  1.00  0.00    -0.064 N 
ATOM     14  H1  TRP A   1      44.620 -14.249   4.935  1.00  0.00     0.278 HD
ATOM     15  H2  TRP A   1      44.000 -13.132   3.925  1.00  0.00     0.278 HD
BRANCH  13  16
HETATM   16  C   UNK A   0      42.822 -13.472   5.603  1.00  0.00     0.280 C 
BRANCH  16  17
HETATM   17  C   UNK A   0      43.581 -13.175   6.842  1.00  0.00     0.027 A 
HETATM   18  S   UNK A   0      43.131 -11.875   7.875  1.00  0.00    -0.076 SA
HETATM   19  C   UNK A   0      44.452 -12.249   8.903  1.00  0.00     0.079 A 
HETATM   20  N   UNK A   0      45.185 -13.274   8.529  1.00  0.00    -0.257 NA
HETATM   21  C   UNK A   0      44.686 -13.814   7.364  1.00  0.00     0.133 A 
BRANCH  19  22
HETATM   22  C   UNK A   0      44.759 -11.432  10.159  1.00  0.00     0.045 C 
HETATM   23  C   UNK A   0      43.775 -10.249  10.410  1.00  0.00     0.011 C 
HETATM   24  C   UNK A   0      43.847 -10.596  11.907  1.00  0.00     0.002 C 
HETATM   25  C   UNK A   0      44.162 -12.036  11.468  1.00  0.00     0.011 C 
ENDBRANCH  19  22
ENDBRANCH  16  17
ENDBRANCH  13  16
ENDBRANCH   1  13
BRANCH   1  26
ATOM     26  C   TRP A   1      42.355 -14.513   2.588  1.00  0.00     0.197 C 
BRANCH  26  27
ATOM     27  O   TRP A   1      42.945 -13.270   2.173  1.00  0.00    -0.399 OA
ATOM     28  H   TRP A   1      42.423 -12.956   1.404  1.00  0.00     0.209 HD
ENDBRANCH  26  27
ENDBRANCH   1  26
TORSDOF 8
ENDMDL
MODEL 7
REMARK VINA RESULT:      -6.5      3.018      5.441
REMARK  8 active torsions:
REMARK  status: ('A' for Active; 'I' for Inactive)
REMARK    1  A    between atoms: CG_8  and  CB_9 
REMARK    2  A    between atoms: CB_9  and  CA_10 
REMARK    3  A    between atoms: CA_10  and  N_11 
REMARK    4  A    between atoms: CA_10  and  C_14 
REMARK    5  A    between atoms: N_11  and  C_19 
REMARK    6  A    between atoms: C_14  and  O_15 
REMARK    7  A    between atoms: C_19  and  C_20 
REMARK    8  A    between atoms: C_22  and  C_23 
ROOT
ATOM      1  CA  TRP A   1      39.493 -14.532   1.789  1.00  0.00     0.214 C 
ENDROOT
BRANCH   1   2
ATOM      2  CB  TRP A   1      39.642 -16.026   2.092  1.00  0.00     0.076 C 
BRANCH   2   3
ATOM      3  CG  TRP A   1      40.961 -16.572   1.655  1.00  0.00    -0.028 A 
ATOM      4  CD2 TRP A   1      41.855 -17.385   2.424  1.00  0.00    -0.002 A 
ATOM      5  CE3 TRP A   1      41.822 -17.933   3.724  1.00  0.00     0.014 A 
ATOM      6  CE2 TRP A   1      42.976 -17.632   1.630  1.00  0.00     0.042 A 
ATOM      7  CZ3 TRP A   1      42.909 -18.686   4.184  1.00  0.00     0.001 A 
ATOM      8  CH2 TRP A   1      44.017 -18.905   3.368  1.00  0.00     0.002 A 
ATOM      9  CZ2 TRP A   1      44.069 -18.384   2.073  1.00  0.00     0.030 A 
ATOM     10  NE1 TRP A   1      42.761 -17.025   0.416  1.00  0.00    -0.365 N 
ATOM     11  HE1 TRP A   1      43.404 -17.063  -0.364  1.00  0.00     0.165 HD
ATOM     12  CD1 TRP A   1      41.553 -16.376   0.422  1.00  0.00     0.096 A 
ENDBRANCH   2   3
ENDBRANCH   1   2
BRANCH   1  13
ATOM     13  N   TRP A   1      39.502 -13.715   3.063  1.00  0.00    -0.064 N 
ATOM     14  H1  TRP A   1      38.676 -13.089   2.963  1.00  0.00     0.278 HD
ATOM     15  H2  TRP A   1      39.277 -14.293   3.881  1.00  0.00     0.278 HD
BRANCH  13  16
HETATM   16  C   UNK A   0      40.702 -12.883   3.334  1.00  0.00     0.280 C 
BRANCH  16  17
HETATM   17  C   UNK A   0      41.709 -13.632   4.125  1.00  0.00     0.027 A 
HETATM   18  S   UNK A   0      41.281 -14.437   5.583  1.00  0.00    -0.076 SA
HETATM   19  C   UNK A   0      42.912 -14.931   5.777  1.00  0.00     0.079 A 
HETATM   20  N   UNK A   0      43.734 -14.545   4.827  1.00  0.00    -0.257 NA
HETATM   21  C   UNK A   0      43.053 -13.817   3.876  1.00  0.00     0.133 A 
BRANCH  19  22
HETATM   22  C   UNK A   0      43.373 -15.752   6.981  1.00  0.00     0.045 C 
HETATM   23  C   UNK A   0      42.452 -16.964   7.320  1.00  0.00     0.011 C 
HETATM   24  C   UNK A   0      43.731 -17.761   7.632  1.00  0.00     0.002 C 
HETATM   25  C   UNK A   0      44.448 -16.830   6.638  1.00  0.00     0.011 C 
ENDBRANCH  19  22
ENDBRANCH  16  17
ENDBRANCH  13  16
ENDBRANCH   1  13
BRANCH   1  26
ATOM     26  C   TRP A   1      38.175 -14.170   1.073  1.00  0.00     0.197 C 
BRANCH  26  27
ATOM     27  O   TRP A   1      38.503 -13.901  -0.300  1.00  0.00    -0.399 OA
ATOM     28  H   TRP A   1      37.726 -13.445  -0.689  1.00  0.00     0.209 HD
ENDBRANCH  26  27
ENDBRANCH   1  26
TORSDOF 8
ENDMDL
MODEL 8
REMARK VINA RESULT:      -6.4      4.744      7.665
REMARK  8 active torsions:
REMARK  status: ('A' for Active; 'I' for Inactive)
REMARK    1  A    between atoms: CG_8  and  CB_9 
REMARK    2  A    between atoms: CB_9  and  CA_10 
REMARK    3  A    between atoms: CA_10  and  N_11 
REMARK    4  A    between atoms: CA_10  and  C_14 
REMARK    5  A    between atoms: N_11  and  C_19 
REMARK    6  A    between atoms: C_14  and  O_15 
REMARK    7  A    between atoms: C_19  and  C_20 
REMARK    8  A    between atoms: C_22  and  C_23 
ROOT
ATOM      1  CA  TRP A   1      42.047 -16.267   2.052  1.00  0.00     0.214 C 
ENDROOT
BRANCH   1   2
ATOM      2  CB  TRP A   1      41.596 -17.149   3.221  1.00  0.00     0.076 C 
BRANCH   2   3
ATOM      3  CG  TRP A   1      42.708 -17.973   3.780  1.00  0.00    -0.028 A 
ATOM      4  CD2 TRP A   1      43.273 -19.160   3.210  1.00  0.00    -0.002 A 
ATOM      5  CE3 TRP A   1      43.037 -19.898   2.030  1.00  0.00     0.014 A 
ATOM      6  CE2 TRP A   1      44.260 -19.612   4.087  1.00  0.00     0.042 A 
ATOM      7  CZ3 TRP A   1      43.779 -21.060   1.783  1.00  0.00     0.001 A 
ATOM      8  CH2 TRP A   1      44.750 -21.488   2.686  1.00  0.00     0.002 A 
ATOM      9  CZ2 TRP A   1      45.011 -20.768   3.855  1.00  0.00     0.030 A 
ATOM     10  NE1 TRP A   1      44.319 -18.720   5.132  1.00  0.00    -0.365 N 
ATOM     11  HE1 TRP A   1      44.967 -18.789   5.906  1.00  0.00     0.165 HD
ATOM     12  CD1 TRP A   1      43.382 -17.734   4.962  1.00  0.00     0.096 A 
ENDBRANCH   2   3
ENDBRANCH   1   2
BRANCH   1  13
ATOM     13  N   TRP A   1      41.622 -14.828   2.261  1.00  0.00    -0.064 N 
ATOM     14  H1  TRP A   1      41.121 -14.847   3.174  1.00  0.00     0.278 HD
ATOM     15  H2  TRP A   1      42.431 -14.220   2.435  1.00  0.00     0.278 HD
BRANCH  13  16
HETATM   16  C   UNK A   0      40.731 -14.223   1.239  1.00  0.00     0.280 C 
BRANCH  16  17
HETATM   17  C   UNK A   0      41.425 -13.146   0.491  1.00  0.00     0.027 A 
HETATM   18  S   UNK A   0      41.606 -13.220  -1.217  1.00  0.00    -0.076 SA
HETATM   19  C   UNK A   0      42.462 -11.733  -1.180  1.00  0.00     0.079 A 
HETATM   20  N   UNK A   0      42.604 -11.195   0.010  1.00  0.00    -0.257 NA
HETATM   21  C   UNK A   0      42.004 -11.987   0.964  1.00  0.00     0.133 A 
BRANCH  19  22
HETATM   22  C   UNK A   0      43.029 -11.092  -2.447  1.00  0.00     0.045 C 
HETATM   23  C   UNK A   0      42.299 -11.513  -3.760  1.00  0.00     0.011 C 
HETATM   24  C   UNK A   0      42.454 -10.056  -4.231  1.00  0.00     0.002 C 
HETATM   25  C   UNK A   0      42.464  -9.668  -2.742  1.00  0.00     0.011 C 
ENDBRANCH  19  22
ENDBRANCH  16  17
ENDBRANCH  13  16
ENDBRANCH   1  13
BRANCH   1  26
ATOM     26  C   TRP A   1      41.449 -16.682   0.692  1.00  0.00     0.197 C 
BRANCH  26  27
ATOM     27  O   TRP A   1      40.504 -17.733   0.952  1.00  0.00    -0.399 OA
ATOM     28  H   TRP A   1      40.593 -18.378   0.217  1.00  0.00     0.209 HD
ENDBRANCH  26  27
ENDBRANCH   1  26
TORSDOF 8
ENDMDL
MODEL 9
REMARK VINA RESULT:      -6.4      4.785      7.910
REMARK  8 active torsions:
REMARK  status: ('A' for Active; 'I' for Inactive)
REMARK    1  A    between atoms: CG_8  and  CB_9 
REMARK    2  A    between atoms: CB_9  and  CA_10 
REMARK    3  A    between atoms: CA_10  and  N_11 
REMARK    4  A    between atoms: CA_10  and  C_14 
REMARK    5  A    between atoms: N_11  and  C_19 
REMARK    6  A    between atoms: C_14  and  O_15 
REMARK    7  A    between atoms: C_19  and  C_20 
REMARK    8  A    between atoms: C_22  and  C_23 
ROOT
ATOM      1  CA  TRP A   1      44.557 -12.299   8.698  1.00  0.00     0.214 C 
ENDROOT
BRANCH   1   2
ATOM      2  CB  TRP A   1      44.098 -12.103  10.146  1.00  0.00     0.076 C 
BRANCH   2   3
ATOM      3  CG  TRP A   1      43.224 -10.905  10.315  1.00  0.00    -0.028 A 
ATOM      4  CD2 TRP A   1      43.091 -10.092  11.487  1.00  0.00    -0.002 A 
ATOM      5  CE3 TRP A   1      43.685 -10.099  12.766  1.00  0.00     0.014 A 
ATOM      6  CE2 TRP A   1      42.143  -9.108  11.203  1.00  0.00     0.042 A 
ATOM      7  CZ3 TRP A   1      43.298  -9.141  13.712  1.00  0.00     0.001 A 
ATOM      8  CH2 TRP A   1      42.341  -8.180  13.399  1.00  0.00     0.002 A 
ATOM      9  CZ2 TRP A   1      41.747  -8.143  12.135  1.00  0.00     0.030 A 
ATOM     10  NE1 TRP A   1      41.738  -9.292   9.901  1.00  0.00    -0.365 N 
ATOM     11  HE1 TRP A   1      41.070  -8.703   9.422  1.00  0.00     0.165 HD
ATOM     12  CD1 TRP A   1      42.376 -10.377   9.360  1.00  0.00     0.096 A 
ENDBRANCH   2   3
ENDBRANCH   1   2
BRANCH   1  13
ATOM     13  N   TRP A   1      44.199 -13.682   8.196  1.00  0.00    -0.064 N 
ATOM     14  H1  TRP A   1      44.531 -14.315   8.953  1.00  0.00     0.278 HD
ATOM     15  H2  TRP A   1      43.182 -13.825   8.183  1.00  0.00     0.278 HD
BRANCH  13  16
HETATM   16  C   UNK A   0      44.799 -14.120   6.910  1.00  0.00     0.280 C 
BRANCH  16  17
HETATM   17  C   UNK A   0      43.763 -14.630   5.979  1.00  0.00     0.027 A 
HETATM   18  S   UNK A   0      43.450 -13.852   4.478  1.00  0.00    -0.076 SA
HETATM   19  C   UNK A   0      42.217 -15.000   4.152  1.00  0.00     0.079 A 
HETATM   20  N   UNK A   0      42.041 -15.915   5.078  1.00  0.00    -0.257 NA
HETATM   21  C   UNK A   0      42.927 -15.719   6.114  1.00  0.00     0.133 A 
BRANCH  19  22
HETATM   22  C   UNK A   0      41.376 -14.946   2.876  1.00  0.00     0.045 C 
HETATM   23  C   UNK A   0      40.672 -16.290   2.516  1.00  0.00     0.011 C 
HETATM   24  C   UNK A   0      39.452 -15.457   2.087  1.00  0.00     0.002 C 
HETATM   25  C   UNK A   0      39.932 -14.397   3.093  1.00  0.00     0.011 C 
ENDBRANCH  19  22
ENDBRANCH  16  17
ENDBRANCH  13  16
ENDBRANCH   1  13
BRANCH   1  26
ATOM     26  C   TRP A   1      46.082 -12.170   8.505  1.00  0.00     0.197 C 
BRANCH  26  27
ATOM     27  O   TRP A   1      46.431 -10.811   8.813  1.00  0.00    -0.399 OA
ATOM     28  H   TRP A   1      45.586 -10.324   8.928  1.00  0.00     0.209 HD
ENDBRANCH  26  27
ENDBRANCH   1  26
TORSDOF 8
ENDMDL
MODEL 10
REMARK VINA RESULT:      -6.3      2.990      5.598
REMARK  8 active torsions:
REMARK  status: ('A' for Active; 'I' for Inactive)
REMARK    1  A    between atoms: CG_8  and  CB_9 
REMARK    2  A    between atoms: CB_9  and  CA_10 
REMARK    3  A    between atoms: CA_10  and  N_11 
REMARK    4  A    between atoms: CA_10  and  C_14 
REMARK    5  A    between atoms: N_11  and  C_19 
REMARK    6  A    between atoms: C_14  and  O_15 
REMARK    7  A    between atoms: C_19  and  C_20 
REMARK    8  A    between atoms: C_22  and  C_23 
ROOT
ATOM      1  CA  TRP A   1      41.627 -15.620   4.797  1.00  0.00     0.214 C 
ENDROOT
BRANCH   1   2
ATOM      2  CB  TRP A   1      42.959 -16.308   4.486  1.00  0.00     0.076 C 
BRANCH   2   3
ATOM      3  CG  TRP A   1      42.828 -17.369   3.444  1.00  0.00    -0.028 A 
ATOM      4  CD2 TRP A   1      43.493 -18.638   3.417  1.00  0.00    -0.002 A 
ATOM      5  CE3 TRP A   1      44.397 -19.298   4.276  1.00  0.00     0.014 A 
ATOM      6  CE2 TRP A   1      43.099 -19.287   2.246  1.00  0.00     0.042 A 
ATOM      7  CZ3 TRP A   1      44.883 -20.564   3.925  1.00  0.00     0.001 A 
ATOM      8  CH2 TRP A   1      44.476 -21.178   2.744  1.00  0.00     0.002 A 
ATOM      9  CZ2 TRP A   1      43.572 -20.552   1.882  1.00  0.00     0.030 A 
ATOM     10  NE1 TRP A   1      42.205 -18.464   1.602  1.00  0.00    -0.365 N 
ATOM     11  HE1 TRP A   1      41.737 -18.695   0.735  1.00  0.00     0.165 HD
ATOM     12  CD1 TRP A   1      42.041 -17.302   2.310  1.00  0.00     0.096 A 
ENDBRANCH   2   3
ENDBRANCH   1   2
BRANCH   1  13
ATOM     13  N   TRP A   1      41.783 -14.114   4.817  1.00  0.00    -0.064 N 
ATOM     14  H1  TRP A   1      41.763 -13.875   5.829  1.00  0.00     0.278 HD
ATOM     15  H2  TRP A   1      42.722 -13.830   4.514  1.00  0.00     0.278 HD
BRANCH  13  16
HETATM   16  C   UNK A   0      40.750 -13.310   4.115  1.00  0.00     0.280 C 
BRANCH  16  17
HETATM   17  C   UNK A   0      40.607 -13.734   2.701  1.00  0.00     0.027 A 
HETATM   18  S   UNK A   0      41.894 -13.542   1.576  1.00  0.00    -0.076 SA
HETATM   19  C   UNK A   0      40.902 -14.203   0.343  1.00  0.00     0.079 A 
HETATM   20  N   UNK A   0      39.695 -14.560   0.723  1.00  0.00    -0.257 NA
HETATM   21  C   UNK A   0      39.526 -14.309   2.066  1.00  0.00     0.133 A 
BRANCH  19  22
HETATM   22  C   UNK A   0      41.389 -14.350  -1.098  1.00  0.00     0.045 C 
HETATM   23  C   UNK A   0      41.004 -15.704  -1.770  1.00  0.00     0.011 C 
HETATM   24  C   UNK A   0      40.743 -14.910  -3.062  1.00  0.00     0.002 C 
HETATM   25  C   UNK A   0      40.441 -13.704  -2.156  1.00  0.00     0.011 C 
ENDBRANCH  19  22
ENDBRANCH  16  17
ENDBRANCH  13  16
ENDBRANCH   1  13
BRANCH   1  26
ATOM     26  C   TRP A   1      41.040 -15.994   6.175  1.00  0.00     0.197 C 
BRANCH  26  27
ATOM     27  O   TRP A   1      40.146 -17.099   5.964  1.00  0.00    -0.399 OA
ATOM     28  H   TRP A   1      39.277 -16.830   6.333  1.00  0.00     0.209 HD
ENDBRANCH  26  27
ENDBRANCH   1  26
TORSDOF 8
ENDMDL
