MODEL 1
REMARK VINA RESULT:      -8.7      0.000      0.000
REMARK  6 active torsions:
REMARK  status: ('A' for Active; 'I' for Inactive)
REMARK    1  A    between atoms: C_3  and  C_4 
REMARK    2  A    between atoms: C_5  and  C_6 
REMARK    3  A    between atoms: C_8  and  N_9 
REMARK       I    between atoms: N_9  and  C_10 
REMARK    4  A    between atoms: C_10  and  C_11 
REMARK    5  A    between atoms: C_11  and  C_12 
REMARK    6  A    between atoms: C_15  and  O_16 
ROOT
HETATM    1  C   UNL     1      43.250 -16.039   2.950  1.00  0.00     0.020 A 
HETATM    2  C   UNL     1      42.478 -15.715   1.827  1.00  0.00     0.050 A 
HETATM    3  C   UNL     1      42.053 -14.403   1.618  1.00  0.00     0.036 A 
HETATM    4  C   UNL     1      42.418 -13.415   2.541  1.00  0.00     0.029 A 
HETATM    5  C   UNL     1      43.204 -13.733   3.653  1.00  0.00     0.004 A 
HETATM    6  C   UNL     1      43.618 -15.048   3.859  1.00  0.00     0.021 A 
ENDROOT
BRANCH   3   7
HETATM    7  N   UNL     1      41.226 -14.011   0.545  1.00  0.00    -0.327 N 
HETATM    8  C   UNL     1      39.851 -14.161   0.445  1.00  0.00     0.226 C 
HETATM    9  O   UNL     1      39.129 -14.794   1.211  1.00  0.00    -0.273 OA
HETATM   10  H   UNL     1      41.692 -13.547  -0.225  1.00  0.00     0.169 HD
BRANCH   8  11
HETATM   11  C   UNL     1      39.262 -13.418  -0.744  1.00  0.00     0.141 C 
BRANCH  11  12
HETATM   12  C   UNL     1      39.140 -14.314  -1.953  1.00  0.00    -0.049 A 
HETATM   13  C   UNL     1      40.218 -15.103  -2.376  1.00  0.00     0.010 A 
HETATM   14  C   UNL     1      40.106 -15.889  -3.525  1.00  0.00     0.037 A 
HETATM   15  C   UNL     1      38.921 -15.887  -4.251  1.00  0.00     0.065 A 
HETATM   16  C   UNL     1      37.838 -15.116  -3.844  1.00  0.00     0.037 A 
HETATM   17  C   UNL     1      37.950 -14.330  -2.696  1.00  0.00     0.010 A 
BRANCH  15  18
HETATM   18  O   UNL     1      38.861 -16.661  -5.371  1.00  0.00    -0.361 OA
HETATM   19  H   UNL     1      38.734 -17.585  -5.099  1.00  0.00     0.217 HD
ENDBRANCH  15  18
ENDBRANCH  11  12
ENDBRANCH   8  11
ENDBRANCH   3   7
BRANCH   1  20
HETATM   20  C   UNL     1      43.622 -17.401   3.179  1.00  0.00    -0.060 C 
HETATM   21  C   UNL     1      43.904 -18.559   3.327  1.00  0.00    -0.041 C 
BRANCH  21  22
HETATM   22  C   UNL     1      44.215 -19.946   3.452  1.00  0.00     0.110 A 
HETATM   23  C   UNL     1      44.073 -20.809   2.375  1.00  0.00     0.041 A 
HETATM   24  C   UNL     1      44.366 -22.156   2.569  1.00  0.00     0.004 A 
HETATM   25  C   UNL     1      44.784 -22.585   3.824  1.00  0.00     0.019 A 
HETATM   26  C   UNL     1      44.897 -21.645   4.838  1.00  0.00     0.118 A 
HETATM   27  N   UNL     1      44.622 -20.332   4.681  1.00  0.00    -0.252 NA
ENDBRANCH  21  22
ENDBRANCH   1  20
TORSDOF 6
ENDMDL
MODEL 2
REMARK VINA RESULT:      -8.2      1.490      1.804
REMARK  6 active torsions:
REMARK  status: ('A' for Active; 'I' for Inactive)
REMARK    1  A    between atoms: C_3  and  C_4 
REMARK    2  A    between atoms: C_5  and  C_6 
REMARK    3  A    between atoms: C_8  and  N_9 
REMARK       I    between atoms: N_9  and  C_10 
REMARK    4  A    between atoms: C_10  and  C_11 
REMARK    5  A    between atoms: C_11  and  C_12 
REMARK    6  A    between atoms: C_15  and  O_16 
ROOT
HETATM    1  C   UNL     1      43.063 -15.603   2.725  1.00  0.00     0.020 A 
HETATM    2  C   UNL     1      42.426 -15.067   1.599  1.00  0.00     0.050 A 
HETATM    3  C   UNL     1      41.997 -13.739   1.596  1.00  0.00     0.036 A 
HETATM    4  C   UNL     1      42.223 -12.950   2.732  1.00  0.00     0.029 A 
HETATM    5  C   UNL     1      42.876 -13.478   3.849  1.00  0.00     0.004 A 
HETATM    6  C   UNL     1      43.294 -14.809   3.847  1.00  0.00     0.021 A 
ENDROOT
BRANCH   3   7
HETATM    7  N   UNL     1      41.297 -13.146   0.525  1.00  0.00    -0.327 N 
HETATM    8  C   UNL     1      41.821 -12.352  -0.484  1.00  0.00     0.226 C 
HETATM    9  O   UNL     1      42.963 -11.905  -0.542  1.00  0.00    -0.273 OA
HETATM   10  H   UNL     1      40.306 -13.348   0.481  1.00  0.00     0.169 HD
BRANCH   8  11
HETATM   11  C   UNL     1      40.820 -12.079  -1.597  1.00  0.00     0.141 C 
BRANCH  11  12
HETATM   12  C   UNL     1      40.354 -13.358  -2.249  1.00  0.00    -0.049 A 
HETATM   13  C   UNL     1      39.000 -13.563  -2.546  1.00  0.00     0.010 A 
HETATM   14  C   UNL     1      38.577 -14.771  -3.103  1.00  0.00     0.037 A 
HETATM   15  C   UNL     1      39.503 -15.774  -3.363  1.00  0.00     0.065 A 
HETATM   16  C   UNL     1      40.852 -15.588  -3.081  1.00  0.00     0.037 A 
HETATM   17  C   UNL     1      41.275 -14.381  -2.525  1.00  0.00     0.010 A 
BRANCH  15  18
HETATM   18  O   UNL     1      39.043 -16.941  -3.897  1.00  0.00    -0.361 OA
HETATM   19  H   UNL     1      39.409 -17.679  -3.381  1.00  0.00     0.217 HD
ENDBRANCH  15  18
ENDBRANCH  11  12
ENDBRANCH   8  11
ENDBRANCH   3   7
BRANCH   1  20
HETATM   20  C   UNL     1      43.438 -16.984   2.731  1.00  0.00    -0.060 C 
HETATM   21  C   UNL     1      43.708 -18.153   2.767  1.00  0.00    -0.041 C 
BRANCH  21  22
HETATM   22  C   UNL     1      43.978 -19.552   2.835  1.00  0.00     0.110 A 
HETATM   23  C   UNL     1      43.599 -20.403   1.807  1.00  0.00     0.041 A 
HETATM   24  C   UNL     1      43.867 -21.762   1.946  1.00  0.00     0.004 A 
HETATM   25  C   UNL     1      44.496 -22.215   3.100  1.00  0.00     0.019 A 
HETATM   26  C   UNL     1      44.837 -21.286   4.072  1.00  0.00     0.118 A 
HETATM   27  N   UNL     1      44.593 -19.962   3.966  1.00  0.00    -0.252 NA
ENDBRANCH  21  22
ENDBRANCH   1  20
TORSDOF 6
ENDMDL
MODEL 3
REMARK VINA RESULT:      -7.9      5.556      9.370
REMARK  6 active torsions:
REMARK  status: ('A' for Active; 'I' for Inactive)
REMARK    1  A    between atoms: C_3  and  C_4 
REMARK    2  A    between atoms: C_5  and  C_6 
REMARK    3  A    between atoms: C_8  and  N_9 
REMARK       I    between atoms: N_9  and  C_10 
REMARK    4  A    between atoms: C_10  and  C_11 
REMARK    5  A    between atoms: C_11  and  C_12 
REMARK    6  A    between atoms: C_15  and  O_16 
ROOT
HETATM    1  C   UNL     1      42.348 -15.663   4.678  1.00  0.00     0.020 A 
HETATM    2  C   UNL     1      43.047 -14.981   5.682  1.00  0.00     0.050 A 
HETATM    3  C   UNL     1      42.689 -13.678   6.031  1.00  0.00     0.036 A 
HETATM    4  C   UNL     1      41.615 -13.069   5.370  1.00  0.00     0.029 A 
HETATM    5  C   UNL     1      40.905 -13.754   4.380  1.00  0.00     0.004 A 
HETATM    6  C   UNL     1      41.275 -15.053   4.032  1.00  0.00     0.021 A 
ENDROOT
BRANCH   3   7
HETATM    7  N   UNL     1      43.381 -12.908   6.989  1.00  0.00    -0.327 N 
HETATM    8  C   UNL     1      44.372 -13.339   7.857  1.00  0.00     0.226 C 
HETATM    9  O   UNL     1      44.721 -14.501   8.047  1.00  0.00    -0.273 OA
HETATM   10  H   UNL     1      43.139 -11.925   7.023  1.00  0.00     0.169 HD
BRANCH   8  11
HETATM   11  C   UNL     1      45.056 -12.192   8.586  1.00  0.00     0.141 C 
BRANCH  11  12
HETATM   12  C   UNL     1      44.283 -11.776   9.814  1.00  0.00    -0.049 A 
HETATM   13  C   UNL     1      44.356 -12.521  10.998  1.00  0.00     0.010 A 
HETATM   14  C   UNL     1      43.596 -12.152  12.110  1.00  0.00     0.037 A 
HETATM   15  C   UNL     1      42.763 -11.042  12.039  1.00  0.00     0.065 A 
HETATM   16  C   UNL     1      42.680 -10.286  10.875  1.00  0.00     0.037 A 
HETATM   17  C   UNL     1      43.440 -10.655   9.765  1.00  0.00     0.010 A 
BRANCH  15  18
HETATM   18  O   UNL     1      42.031 -10.726  13.145  1.00  0.00    -0.361 OA
HETATM   19  H   UNL     1      41.240 -10.238  12.860  1.00  0.00     0.217 HD
ENDBRANCH  15  18
ENDBRANCH  11  12
ENDBRANCH   8  11
ENDBRANCH   3   7
BRANCH   1  20
HETATM   20  C   UNL     1      42.772 -16.973   4.291  1.00  0.00    -0.060 C 
HETATM   21  C   UNL     1      43.136 -18.054   3.915  1.00  0.00    -0.041 C 
BRANCH  21  22
HETATM   22  C   UNL     1      43.584 -19.314   3.419  1.00  0.00     0.110 A 
HETATM   23  C   UNL     1      43.221 -19.753   2.154  1.00  0.00     0.041 A 
HETATM   24  C   UNL     1      43.667 -21.004   1.739  1.00  0.00     0.004 A 
HETATM   25  C   UNL     1      44.452 -21.765   2.600  1.00  0.00     0.019 A 
HETATM   26  C   UNL     1      44.762 -21.239   3.845  1.00  0.00     0.118 A 
HETATM   27  N   UNL     1      44.346 -20.028   4.276  1.00  0.00    -0.252 NA
ENDBRANCH  21  22
ENDBRANCH   1  20
TORSDOF 6
ENDMDL
MODEL 4
REMARK VINA RESULT:      -7.8      1.686      1.965
REMARK  6 active torsions:
REMARK  status: ('A' for Active; 'I' for Inactive)
REMARK    1  A    between atoms: C_3  and  C_4 
REMARK    2  A    between atoms: C_5  and  C_6 
REMARK    3  A    between atoms: C_8  and  N_9 
REMARK       I    between atoms: N_9  and  C_10 
REMARK    4  A    between atoms: C_10  and  C_11 
REMARK    5  A    between atoms: C_11  and  C_12 
REMARK    6  A    between atoms: C_15  and  O_16 
ROOT
HETATM    1  C   UNL     1      41.466 -15.706   4.370  1.00  0.00     0.020 A 
HETATM    2  C   UNL     1      41.269 -15.322   3.037  1.00  0.00     0.050 A 
HETATM    3  C   UNL     1      40.504 -14.195   2.733  1.00  0.00     0.036 A 
HETATM    4  C   UNL     1      39.946 -13.450   3.780  1.00  0.00     0.029 A 
HETATM    5  C   UNL     1      40.157 -13.822   5.112  1.00  0.00     0.004 A 
HETATM    6  C   UNL     1      40.916 -14.954   5.406  1.00  0.00     0.021 A 
ENDROOT
BRANCH   3   7
HETATM    7  N   UNL     1      40.212 -13.781   1.417  1.00  0.00    -0.327 N 
HETATM    8  C   UNL     1      39.024 -13.954   0.726  1.00  0.00     0.226 C 
HETATM    9  O   UNL     1      38.062 -14.628   1.085  1.00  0.00    -0.273 OA
HETATM   10  H   UNL     1      40.951 -13.279   0.940  1.00  0.00     0.169 HD
BRANCH   8  11
HETATM   11  C   UNL     1      38.985 -13.178  -0.583  1.00  0.00     0.141 C 
BRANCH  11  12
HETATM   12  C   UNL     1      38.969 -14.104  -1.775  1.00  0.00    -0.049 A 
HETATM   13  C   UNL     1      40.127 -14.785  -2.174  1.00  0.00     0.010 A 
HETATM   14  C   UNL     1      40.109 -15.599  -3.308  1.00  0.00     0.037 A 
HETATM   15  C   UNL     1      38.938 -15.732  -4.044  1.00  0.00     0.065 A 
HETATM   16  C   UNL     1      37.777 -15.070  -3.662  1.00  0.00     0.037 A 
HETATM   17  C   UNL     1      37.795 -14.257  -2.528  1.00  0.00     0.010 A 
BRANCH  15  18
HETATM   18  O   UNL     1      38.970 -16.528  -5.151  1.00  0.00    -0.361 OA
HETATM   19  H   UNL     1      39.209 -15.980  -5.917  1.00  0.00     0.217 HD
ENDBRANCH  15  18
ENDBRANCH  11  12
ENDBRANCH   8  11
ENDBRANCH   3   7
BRANCH   1  20
HETATM   20  C   UNL     1      42.200 -16.900   4.657  1.00  0.00    -0.060 C 
HETATM   21  C   UNL     1      42.787 -17.928   4.858  1.00  0.00    -0.041 C 
BRANCH  21  22
HETATM   22  C   UNL     1      43.461 -19.170   5.050  1.00  0.00     0.110 A 
HETATM   23  C   UNL     1      43.489 -19.782   6.296  1.00  0.00     0.041 A 
HETATM   24  C   UNL     1      44.188 -20.979   6.425  1.00  0.00     0.004 A 
HETATM   25  C   UNL     1      44.828 -21.514   5.312  1.00  0.00     0.019 A 
HETATM   26  C   UNL     1      44.741 -20.829   4.109  1.00  0.00     0.118 A 
HETATM   27  N   UNL     1      44.070 -19.667   3.952  1.00  0.00    -0.252 NA
ENDBRANCH  21  22
ENDBRANCH   1  20
TORSDOF 6
ENDMDL
MODEL 5
REMARK VINA RESULT:      -7.8      3.486      8.731
REMARK  6 active torsions:
REMARK  status: ('A' for Active; 'I' for Inactive)
REMARK    1  A    between atoms: C_3  and  C_4 
REMARK    2  A    between atoms: C_5  and  C_6 
REMARK    3  A    between atoms: C_8  and  N_9 
REMARK       I    between atoms: N_9  and  C_10 
REMARK    4  A    between atoms: C_10  and  C_11 
REMARK    5  A    between atoms: C_11  and  C_12 
REMARK    6  A    between atoms: C_15  and  O_16 
ROOT
HETATM    1  C   UNL     1      40.749 -15.487   3.210  1.00  0.00     0.020 A 
HETATM    2  C   UNL     1      41.519 -16.568   3.659  1.00  0.00     0.050 A 
HETATM    3  C   UNL     1      41.652 -16.821   5.025  1.00  0.00     0.036 A 
HETATM    4  C   UNL     1      40.996 -15.985   5.937  1.00  0.00     0.029 A 
HETATM    5  C   UNL     1      40.212 -14.917   5.491  1.00  0.00     0.004 A 
HETATM    6  C   UNL     1      40.091 -14.666   4.125  1.00  0.00     0.021 A 
ENDROOT
BRANCH   3   7
HETATM    7  N   UNL     1      42.456 -17.852   5.553  1.00  0.00    -0.327 N 
HETATM    8  C   UNL     1      43.679 -17.719   6.192  1.00  0.00     0.226 C 
HETATM    9  O   UNL     1      44.349 -16.694   6.281  1.00  0.00    -0.273 OA
HETATM   10  H   UNL     1      42.079 -18.788   5.477  1.00  0.00     0.169 HD
BRANCH   8  11
HETATM   11  C   UNL     1      44.151 -19.015   6.837  1.00  0.00     0.141 C 
BRANCH  11  12
HETATM   12  C   UNL     1      44.304 -20.117   5.817  1.00  0.00    -0.049 A 
HETATM   13  C   UNL     1      44.266 -21.464   6.202  1.00  0.00     0.010 A 
HETATM   14  C   UNL     1      44.459 -22.471   5.254  1.00  0.00     0.037 A 
HETATM   15  C   UNL     1      44.690 -22.136   3.926  1.00  0.00     0.065 A 
HETATM   16  C   UNL     1      44.725 -20.806   3.523  1.00  0.00     0.037 A 
HETATM   17  C   UNL     1      44.533 -19.799   4.469  1.00  0.00     0.010 A 
BRANCH  15  18
HETATM   18  O   UNL     1      44.884 -23.152   3.038  1.00  0.00    -0.361 OA
HETATM   19  H   UNL     1      44.781 -23.996   3.510  1.00  0.00     0.217 HD
ENDBRANCH  15  18
ENDBRANCH  11  12
ENDBRANCH   8  11
ENDBRANCH   3   7
BRANCH   1  20
HETATM   20  C   UNL     1      40.677 -15.208   1.809  1.00  0.00    -0.060 C 
HETATM   21  C   UNL     1      40.670 -14.989   0.628  1.00  0.00    -0.041 C 
BRANCH  21  22
HETATM   22  C   UNL     1      40.712 -14.755  -0.778  1.00  0.00     0.110 A 
HETATM   23  C   UNL     1      40.990 -15.785  -1.665  1.00  0.00     0.041 A 
HETATM   24  C   UNL     1      41.045 -15.486  -3.024  1.00  0.00     0.004 A 
HETATM   25  C   UNL     1      40.824 -14.177  -3.440  1.00  0.00     0.019 A 
HETATM   26  C   UNL     1      40.552 -13.218  -2.476  1.00  0.00     0.118 A 
HETATM   27  N   UNL     1      40.490 -13.477  -1.152  1.00  0.00    -0.252 NA
ENDBRANCH  21  22
ENDBRANCH   1  20
TORSDOF 6
ENDMDL
MODEL 6
REMARK VINA RESULT:      -7.7      4.196      6.475
REMARK  6 active torsions:
REMARK  status: ('A' for Active; 'I' for Inactive)
REMARK    1  A    between atoms: C_3  and  C_4 
REMARK    2  A    between atoms: C_5  and  C_6 
REMARK    3  A    between atoms: C_8  and  N_9 
REMARK       I    between atoms: N_9  and  C_10 
REMARK    4  A    between atoms: C_10  and  C_11 
REMARK    5  A    between atoms: C_11  and  C_12 
REMARK    6  A    between atoms: C_15  and  O_16 
ROOT
HETATM    1  C   UNL     1      43.833 -15.823   5.968  1.00  0.00     0.020 A 
HETATM    2  C   UNL     1      42.966 -15.541   4.904  1.00  0.00     0.050 A 
HETATM    3  C   UNL     1      42.617 -16.540   3.995  1.00  0.00     0.036 A 
HETATM    4  C   UNL     1      43.138 -17.829   4.168  1.00  0.00     0.029 A 
HETATM    5  C   UNL     1      43.989 -18.116   5.239  1.00  0.00     0.004 A 
HETATM    6  C   UNL     1      44.339 -17.110   6.139  1.00  0.00     0.021 A 
ENDROOT
BRANCH   3   7
HETATM    7  N   UNL     1      41.798 -16.319   2.868  1.00  0.00    -0.327 N 
HETATM    8  C   UNL     1      42.148 -16.463   1.534  1.00  0.00     0.226 C 
HETATM    9  O   UNL     1      43.276 -16.669   1.094  1.00  0.00    -0.273 OA
HETATM   10  H   UNL     1      40.842 -16.049   3.063  1.00  0.00     0.169 HD
BRANCH   8  11
HETATM   11  C   UNL     1      40.953 -16.367   0.598  1.00  0.00     0.141 C 
BRANCH  11  12
HETATM   12  C   UNL     1      41.226 -15.432  -0.555  1.00  0.00    -0.049 A 
HETATM   13  C   UNL     1      41.040 -15.848  -1.880  1.00  0.00     0.010 A 
HETATM   14  C   UNL     1      41.344 -14.987  -2.937  1.00  0.00     0.037 A 
HETATM   15  C   UNL     1      41.835 -13.714  -2.672  1.00  0.00     0.065 A 
HETATM   16  C   UNL     1      42.021 -13.280  -1.364  1.00  0.00     0.037 A 
HETATM   17  C   UNL     1      41.717 -14.140  -0.308  1.00  0.00     0.010 A 
BRANCH  15  18
HETATM   18  O   UNL     1      42.129 -12.913  -3.735  1.00  0.00    -0.361 OA
HETATM   19  H   UNL     1      43.087 -12.953  -3.893  1.00  0.00     0.217 HD
ENDBRANCH  15  18
ENDBRANCH  11  12
ENDBRANCH   8  11
ENDBRANCH   3   7
BRANCH   1  20
HETATM   20  C   UNL     1      44.228 -14.770   6.851  1.00  0.00    -0.060 C 
HETATM   21  C   UNL     1      44.556 -13.921   7.636  1.00  0.00    -0.041 C 
BRANCH  21  22
HETATM   22  C   UNL     1      44.947 -12.954   8.608  1.00  0.00     0.110 A 
HETATM   23  C   UNL     1      45.924 -12.010   8.322  1.00  0.00     0.041 A 
HETATM   24  C   UNL     1      46.282 -11.110   9.322  1.00  0.00     0.004 A 
HETATM   25  C   UNL     1      45.656 -11.190  10.562  1.00  0.00     0.019 A 
HETATM   26  C   UNL     1      44.691 -12.168  10.750  1.00  0.00     0.118 A 
HETATM   27  N   UNL     1      44.321 -13.053   9.800  1.00  0.00    -0.252 NA
ENDBRANCH  21  22
ENDBRANCH   1  20
TORSDOF 6
ENDMDL
MODEL 7
REMARK VINA RESULT:      -7.6      7.518     11.069
REMARK  6 active torsions:
REMARK  status: ('A' for Active; 'I' for Inactive)
REMARK    1  A    between atoms: C_3  and  C_4 
REMARK    2  A    between atoms: C_5  and  C_6 
REMARK    3  A    between atoms: C_8  and  N_9 
REMARK       I    between atoms: N_9  and  C_10 
REMARK    4  A    between atoms: C_10  and  C_11 
REMARK    5  A    between atoms: C_11  and  C_12 
REMARK    6  A    between atoms: C_15  and  O_16 
ROOT
HETATM    1  C   UNL     1      45.087 -13.276   7.660  1.00  0.00     0.020 A 
HETATM    2  C   UNL     1      44.342 -12.602   8.636  1.00  0.00     0.050 A 
HETATM    3  C   UNL     1      44.914 -11.560   9.367  1.00  0.00     0.036 A 
HETATM    4  C   UNL     1      46.239 -11.192   9.101  1.00  0.00     0.029 A 
HETATM    5  C   UNL     1      46.978 -11.850   8.114  1.00  0.00     0.004 A 
HETATM    6  C   UNL     1      46.401 -12.896   7.395  1.00  0.00     0.021 A 
ENDROOT
BRANCH   3   7
HETATM    7  N   UNL     1      44.247 -10.875  10.404  1.00  0.00    -0.327 N 
HETATM    8  C   UNL     1      43.925 -11.363  11.661  1.00  0.00     0.226 C 
HETATM    9  O   UNL     1      44.032 -12.525  12.042  1.00  0.00    -0.273 OA
HETATM   10  H   UNL     1      44.003  -9.912  10.211  1.00  0.00     0.169 HD
BRANCH   8  11
HETATM   11  C   UNL     1      43.418 -10.280  12.601  1.00  0.00     0.141 C 
BRANCH  11  12
HETATM   12  C   UNL     1      41.933 -10.061  12.445  1.00  0.00    -0.049 A 
HETATM   13  C   UNL     1      41.016 -11.056  12.812  1.00  0.00     0.010 A 
HETATM   14  C   UNL     1      39.648 -10.857  12.615  1.00  0.00     0.037 A 
HETATM   15  C   UNL     1      39.195  -9.670  12.053  1.00  0.00     0.065 A 
HETATM   16  C   UNL     1      40.088  -8.669  11.688  1.00  0.00     0.037 A 
HETATM   17  C   UNL     1      41.455  -8.866  11.885  1.00  0.00     0.010 A 
BRANCH  15  18
HETATM   18  O   UNL     1      37.852  -9.526  11.869  1.00  0.00    -0.361 OA
HETATM   19  H   UNL     1      37.443  -9.334  12.730  1.00  0.00     0.217 HD
ENDBRANCH  15  18
ENDBRANCH  11  12
ENDBRANCH   8  11
ENDBRANCH   3   7
BRANCH   1  20
HETATM   20  C   UNL     1      44.502 -14.382   6.967  1.00  0.00    -0.060 C 
HETATM   21  C   UNL     1      43.987 -15.275   6.351  1.00  0.00    -0.041 C 
BRANCH  21  22
HETATM   22  C   UNL     1      43.359 -16.298   5.580  1.00  0.00     0.110 A 
HETATM   23  C   UNL     1      43.949 -17.546   5.435  1.00  0.00     0.041 A 
HETATM   24  C   UNL     1      43.300 -18.492   4.647  1.00  0.00     0.004 A 
HETATM   25  C   UNL     1      42.096 -18.156   4.037  1.00  0.00     0.019 A 
HETATM   26  C   UNL     1      41.586 -16.883   4.244  1.00  0.00     0.118 A 
HETATM   27  N   UNL     1      42.191 -15.944   5.004  1.00  0.00    -0.252 NA
ENDBRANCH  21  22
ENDBRANCH   1  20
TORSDOF 6
ENDMDL
MODEL 8
REMARK VINA RESULT:      -7.6      2.434      3.030
REMARK  6 active torsions:
REMARK  status: ('A' for Active; 'I' for Inactive)
REMARK    1  A    between atoms: C_3  and  C_4 
REMARK    2  A    between atoms: C_5  and  C_6 
REMARK    3  A    between atoms: C_8  and  N_9 
REMARK       I    between atoms: N_9  and  C_10 
REMARK    4  A    between atoms: C_10  and  C_11 
REMARK    5  A    between atoms: C_11  and  C_12 
REMARK    6  A    between atoms: C_15  and  O_16 
ROOT
HETATM    1  C   UNL     1      43.327 -15.821   4.313  1.00  0.00     0.020 A 
HETATM    2  C   UNL     1      43.015 -14.938   3.272  1.00  0.00     0.050 A 
HETATM    3  C   UNL     1      42.720 -13.601   3.544  1.00  0.00     0.036 A 
HETATM    4  C   UNL     1      42.752 -13.155   4.872  1.00  0.00     0.029 A 
HETATM    5  C   UNL     1      43.081 -14.031   5.911  1.00  0.00     0.004 A 
HETATM    6  C   UNL     1      43.366 -15.367   5.630  1.00  0.00     0.021 A 
ENDROOT
BRANCH   3   7
HETATM    7  N   UNL     1      42.340 -12.668   2.557  1.00  0.00    -0.327 N 
HETATM    8  C   UNL     1      41.057 -12.392   2.112  1.00  0.00     0.226 C 
HETATM    9  O   UNL     1      40.037 -13.015   2.393  1.00  0.00    -0.273 OA
HETATM   10  H   UNL     1      43.092 -12.125   2.151  1.00  0.00     0.169 HD
BRANCH   8  11
HETATM   11  C   UNL     1      40.997 -11.169   1.209  1.00  0.00     0.141 C 
BRANCH  11  12
HETATM   12  C   UNL     1      41.429 -11.497  -0.199  1.00  0.00    -0.049 A 
HETATM   13  C   UNL     1      42.645 -11.022  -0.709  1.00  0.00     0.010 A 
HETATM   14  C   UNL     1      43.007 -11.293  -2.030  1.00  0.00     0.037 A 
HETATM   15  C   UNL     1      42.158 -12.035  -2.841  1.00  0.00     0.065 A 
HETATM   16  C   UNL     1      40.950 -12.520  -2.353  1.00  0.00     0.037 A 
HETATM   17  C   UNL     1      40.588 -12.250  -1.033  1.00  0.00     0.010 A 
BRANCH  15  18
HETATM   18  O   UNL     1      42.548 -12.265  -4.127  1.00  0.00    -0.361 OA
HETATM   19  H   UNL     1      43.517 -12.205  -4.170  1.00  0.00     0.217 HD
ENDBRANCH  15  18
ENDBRANCH  11  12
ENDBRANCH   8  11
ENDBRANCH   3   7
BRANCH   1  20
HETATM   20  C   UNL     1      43.564 -17.200   4.019  1.00  0.00    -0.060 C 
HETATM   21  C   UNL     1      43.753 -18.347   3.718  1.00  0.00    -0.041 C 
BRANCH  21  22
HETATM   22  C   UNL     1      43.978 -19.694   3.306  1.00  0.00     0.110 A 
HETATM   23  C   UNL     1      43.558 -20.139   2.060  1.00  0.00     0.041 A 
HETATM   24  C   UNL     1      43.781 -21.472   1.728  1.00  0.00     0.004 A 
HETATM   25  C   UNL     1      44.408 -22.305   2.649  1.00  0.00     0.019 A 
HETATM   26  C   UNL     1      44.792 -21.766   3.869  1.00  0.00     0.118 A 
HETATM   27  N   UNL     1      44.591 -20.478   4.219  1.00  0.00    -0.252 NA
ENDBRANCH  21  22
ENDBRANCH   1  20
TORSDOF 6
ENDMDL
MODEL 9
REMARK VINA RESULT:      -7.5      7.794     11.449
REMARK  6 active torsions:
REMARK  status: ('A' for Active; 'I' for Inactive)
REMARK    1  A    between atoms: C_3  and  C_4 
REMARK    2  A    between atoms: C_5  and  C_6 
REMARK    3  A    between atoms: C_8  and  N_9 
REMARK       I    between atoms: N_9  and  C_10 
REMARK    4  A    between atoms: C_10  and  C_11 
REMARK    5  A    between atoms: C_11  and  C_12 
REMARK    6  A    between atoms: C_15  and  O_16 
ROOT
HETATM    1  C   UNL     1      44.825 -13.207   7.947  1.00  0.00     0.020 A 
HETATM    2  C   UNL     1      43.736 -12.548   8.531  1.00  0.00     0.050 A 
HETATM    3  C   UNL     1      43.934 -11.397   9.295  1.00  0.00     0.036 A 
HETATM    4  C   UNL     1      45.236 -10.906   9.458  1.00  0.00     0.029 A 
HETATM    5  C   UNL     1      46.322 -11.552   8.861  1.00  0.00     0.004 A 
HETATM    6  C   UNL     1      46.116 -12.706   8.106  1.00  0.00     0.021 A 
ENDROOT
BRANCH   3   7
HETATM    7  N   UNL     1      42.896 -10.713   9.962  1.00  0.00    -0.327 N 
HETATM    8  C   UNL     1      42.014  -9.792   9.420  1.00  0.00     0.226 C 
HETATM    9  O   UNL     1      42.072  -9.298   8.297  1.00  0.00    -0.273 OA
HETATM   10  H   UNL     1      42.773 -10.946  10.939  1.00  0.00     0.169 HD
BRANCH   8  11
HETATM   11  C   UNL     1      40.881  -9.432  10.371  1.00  0.00     0.141 C 
BRANCH  11  12
HETATM   12  C   UNL     1      41.379  -9.259  11.785  1.00  0.00    -0.049 A 
HETATM   13  C   UNL     1      42.204  -8.181  12.132  1.00  0.00     0.010 A 
HETATM   14  C   UNL     1      42.697  -8.062  13.433  1.00  0.00     0.037 A 
HETATM   15  C   UNL     1      42.368  -9.018  14.386  1.00  0.00     0.065 A 
HETATM   16  C   UNL     1      41.546 -10.092  14.064  1.00  0.00     0.037 A 
HETATM   17  C   UNL     1      41.053 -10.211  12.764  1.00  0.00     0.010 A 
BRANCH  15  18
HETATM   18  O   UNL     1      42.881  -8.868  15.640  1.00  0.00    -0.361 OA
HETATM   19  H   UNL     1      42.142  -8.779  16.265  1.00  0.00     0.217 HD
ENDBRANCH  15  18
ENDBRANCH  11  12
ENDBRANCH   8  11
ENDBRANCH   3   7
BRANCH   1  20
HETATM   20  C   UNL     1      44.607 -14.420   7.221  1.00  0.00    -0.060 C 
HETATM   21  C   UNL     1      44.456 -15.465   6.649  1.00  0.00    -0.041 C 
BRANCH  21  22
HETATM   22  C   UNL     1      44.303 -16.732   6.013  1.00  0.00     0.110 A 
HETATM   23  C   UNL     1      44.996 -17.847   6.465  1.00  0.00     0.041 A 
HETATM   24  C   UNL     1      44.825 -19.048   5.783  1.00  0.00     0.004 A 
HETATM   25  C   UNL     1      43.976 -19.089   4.683  1.00  0.00     0.019 A 
HETATM   26  C   UNL     1      43.326 -17.922   4.309  1.00  0.00     0.118 A 
HETATM   27  N   UNL     1      43.469 -16.742   4.950  1.00  0.00    -0.252 NA
ENDBRANCH  21  22
ENDBRANCH   1  20
TORSDOF 6
ENDMDL
MODEL 10
REMARK VINA RESULT:      -7.3      3.553      6.417
REMARK  6 active torsions:
REMARK  status: ('A' for Active; 'I' for Inactive)
REMARK    1  A    between atoms: C_3  and  C_4 
REMARK    2  A    between atoms: C_5  and  C_6 
REMARK    3  A    between atoms: C_8  and  N_9 
REMARK       I    between atoms: N_9  and  C_10 
REMARK    4  A    between atoms: C_10  and  C_11 
REMARK    5  A    between atoms: C_11  and  C_12 
REMARK    6  A    between atoms: C_15  and  O_16 
ROOT
HETATM    1  C   UNL     1      41.518 -16.553   1.202  1.00  0.00     0.020 A 
HETATM    2  C   UNL     1      40.829 -15.699   2.072  1.00  0.00     0.050 A 
HETATM    3  C   UNL     1      40.172 -14.570   1.580  1.00  0.00     0.036 A 
HETATM    4  C   UNL     1      40.204 -14.312   0.204  1.00  0.00     0.029 A 
HETATM    5  C   UNL     1      40.876 -15.173  -0.669  1.00  0.00     0.004 A 
HETATM    6  C   UNL     1      41.536 -16.294  -0.168  1.00  0.00     0.021 A 
ENDROOT
BRANCH   3   7
HETATM    7  N   UNL     1      39.508 -13.634   2.400  1.00  0.00    -0.327 N 
HETATM    8  C   UNL     1      39.979 -12.397   2.813  1.00  0.00     0.226 C 
HETATM    9  O   UNL     1      41.116 -11.960   2.658  1.00  0.00    -0.273 OA
HETATM   10  H   UNL     1      38.574 -13.890   2.694  1.00  0.00     0.169 HD
BRANCH   8  11
HETATM   11  C   UNL     1      38.908 -11.557   3.494  1.00  0.00     0.141 C 
BRANCH  11  12
HETATM   12  C   UNL     1      39.134 -11.474   4.984  1.00  0.00    -0.049 A 
HETATM   13  C   UNL     1      39.417 -10.249   5.602  1.00  0.00     0.010 A 
HETATM   14  C   UNL     1      39.673 -10.197   6.974  1.00  0.00     0.037 A 
HETATM   15  C   UNL     1      39.647 -11.364   7.727  1.00  0.00     0.065 A 
HETATM   16  C   UNL     1      39.362 -12.589   7.134  1.00  0.00     0.037 A 
HETATM   17  C   UNL     1      39.106 -12.641   5.763  1.00  0.00     0.010 A 
BRANCH  15  18
HETATM   18  O   UNL     1      39.913 -11.266   9.061  1.00  0.00    -0.361 OA
HETATM   19  H   UNL     1      40.812 -11.600   9.220  1.00  0.00     0.217 HD
ENDBRANCH  15  18
ENDBRANCH  11  12
ENDBRANCH   8  11
ENDBRANCH   3   7
BRANCH   1  20
HETATM   20  C   UNL     1      42.238 -17.669   1.734  1.00  0.00    -0.060 C 
HETATM   21  C   UNL     1      42.830 -18.634   2.134  1.00  0.00    -0.041 C 
BRANCH  21  22
HETATM   22  C   UNL     1      43.527 -19.804   2.559  1.00  0.00     0.110 A 
HETATM   23  C   UNL     1      43.547 -20.947   1.772  1.00  0.00     0.041 A 
HETATM   24  C   UNL     1      44.221 -22.065   2.255  1.00  0.00     0.004 A 
HETATM   25  C   UNL     1      44.841 -21.999   3.499  1.00  0.00     0.019 A 
HETATM   26  C   UNL     1      44.765 -20.811   4.210  1.00  0.00     0.118 A 
HETATM   27  N   UNL     1      44.121 -19.709   3.768  1.00  0.00    -0.252 NA
ENDBRANCH  21  22
ENDBRANCH   1  20
TORSDOF 6
ENDMDL
