MODEL 1
REMARK VINA RESULT:      -9.0      0.000      0.000
REMARK  1 active torsions:
REMARK  status: ('A' for Active; 'I' for Inactive)
REMARK    1  A    between atoms: C_8  and  C_9 
ROOT
HETATM    1  C   UNL     1      43.493 -16.768   8.033  1.00  0.00     0.073 C 
HETATM    2  C   UNL     1      43.752 -15.704   7.029  1.00  0.00     0.062 C 
HETATM    3  N   UNL     1      44.732 -14.825   7.268  1.00  0.00    -0.178 NA
HETATM    4  N   UNL     1      44.730 -14.039   6.189  1.00  0.00    -0.262 N 
HETATM    5  H   UNL     1      45.411 -13.290   6.144  1.00  0.00     0.191 HD
HETATM    6  C   UNL     1      43.689 -14.286   5.340  1.00  0.00     0.134 C 
HETATM    7  C   UNL     1      43.100 -15.459   5.773  1.00  0.00     0.032 C 
HETATM    8  C   UNL     1      42.081 -16.331   5.105  1.00  0.00     0.120 C 
HETATM    9  S   UNL     1      40.634 -15.569   4.304  1.00  0.00    -0.141 SA
HETATM   10  C   UNL     1      40.932 -13.781   4.390  1.00  0.00     0.136 C 
HETATM   11  C   UNL     1      40.702 -13.175   5.771  1.00  0.00     0.031 C 
HETATM   12  C   UNL     1      42.204 -13.311   3.691  1.00  0.00     0.236 C 
HETATM   13  O   UNL     1      42.152 -12.693   2.622  1.00  0.00    -0.272 OA
HETATM   14  N   UNL     1      43.427 -13.458   4.282  1.00  0.00    -0.311 N 
HETATM   15  H   UNL     1      44.158 -12.878   3.885  1.00  0.00     0.170 HD
ENDROOT
BRANCH   8  16
HETATM   16  C   UNL     1      42.872 -17.239   4.147  1.00  0.00    -0.029 A 
HETATM   17  C   UNL     1      43.436 -18.495   4.554  1.00  0.00    -0.018 A 
HETATM   18  C   UNL     1      44.212 -19.232   3.616  1.00  0.00    -0.025 A 
HETATM   19  C   UNL     1      43.281 -19.082   5.835  1.00  0.00     0.013 A 
HETATM   20  C   UNL     1      44.811 -20.450   3.979  1.00  0.00     0.012 A 
HETATM   21  C   UNL     1      44.390 -18.759   2.312  1.00  0.00     0.012 A 
HETATM   22  C   UNL     1      44.656 -20.976   5.257  1.00  0.00     0.001 A 
HETATM   23  C   UNL     1      43.885 -20.295   6.183  1.00  0.00     0.001 A 
HETATM   24  C   UNL     1      43.818 -17.562   1.906  1.00  0.00     0.002 A 
HETATM   25  C   UNL     1      43.076 -16.813   2.811  1.00  0.00     0.009 A 
ENDBRANCH   8  16
TORSDOF 1
ENDMDL
MODEL 2
REMARK VINA RESULT:      -8.6      1.853      2.356
REMARK  1 active torsions:
REMARK  status: ('A' for Active; 'I' for Inactive)
REMARK    1  A    between atoms: C_8  and  C_9 
ROOT
HETATM    1  C   UNL     1      42.578 -15.254   6.221  1.00  0.00     0.073 C 
HETATM    2  C   UNL     1      42.757 -14.810   4.815  1.00  0.00     0.062 C 
HETATM    3  N   UNL     1      43.563 -13.772   4.569  1.00  0.00    -0.178 NA
HETATM    4  N   UNL     1      43.534 -13.648   3.240  1.00  0.00    -0.262 N 
HETATM    5  H   UNL     1      44.093 -12.915   2.817  1.00  0.00     0.191 HD
HETATM    6  C   UNL     1      42.624 -14.469   2.638  1.00  0.00     0.134 C 
HETATM    7  C   UNL     1      42.188 -15.349   3.611  1.00  0.00     0.032 C 
HETATM    8  C   UNL     1      41.380 -16.604   3.483  1.00  0.00     0.120 C 
HETATM    9  S   UNL     1      39.909 -16.620   2.409  1.00  0.00    -0.141 SA
HETATM   10  C   UNL     1      39.917 -15.010   1.572  1.00  0.00     0.136 C 
HETATM   11  C   UNL     1      39.474 -13.846   2.452  1.00  0.00     0.031 C 
HETATM   12  C   UNL     1      41.158 -14.736   0.727  1.00  0.00     0.236 C 
HETATM   13  O   UNL     1      41.105 -14.758  -0.508  1.00  0.00    -0.272 OA
HETATM   14  N   UNL     1      42.331 -14.346   1.307  1.00  0.00    -0.311 N 
HETATM   15  H   UNL     1      42.996 -13.923   0.668  1.00  0.00     0.170 HD
ENDROOT
BRANCH   8  16
HETATM   16  C   UNL     1      42.384 -17.713   3.118  1.00  0.00    -0.029 A 
HETATM   17  C   UNL     1      43.004 -18.554   4.103  1.00  0.00    -0.018 A 
HETATM   18  C   UNL     1      43.974 -19.505   3.676  1.00  0.00    -0.025 A 
HETATM   19  C   UNL     1      42.726 -18.525   5.493  1.00  0.00     0.013 A 
HETATM   20  C   UNL     1      44.630 -20.328   4.607  1.00  0.00     0.012 A 
HETATM   21  C   UNL     1      44.288 -19.641   2.320  1.00  0.00     0.012 A 
HETATM   22  C   UNL     1      44.348 -20.246   5.966  1.00  0.00     0.001 A 
HETATM   23  C   UNL     1      43.390 -19.349   6.408  1.00  0.00     0.001 A 
HETATM   24  C   UNL     1      43.666 -18.852   1.364  1.00  0.00     0.002 A 
HETATM   25  C   UNL     1      42.733 -17.900   1.758  1.00  0.00     0.009 A 
ENDBRANCH   8  16
TORSDOF 1
ENDMDL
MODEL 3
REMARK VINA RESULT:      -8.3      2.055      2.796
REMARK  1 active torsions:
REMARK  status: ('A' for Active; 'I' for Inactive)
REMARK    1  A    between atoms: C_8  and  C_9 
ROOT
HETATM    1  C   UNL     1      41.767 -14.651   5.922  1.00  0.00     0.073 C 
HETATM    2  C   UNL     1      42.023 -14.097   4.568  1.00  0.00     0.062 C 
HETATM    3  N   UNL     1      42.743 -12.974   4.463  1.00  0.00    -0.178 NA
HETATM    4  N   UNL     1      42.817 -12.761   3.146  1.00  0.00    -0.262 N 
HETATM    5  H   UNL     1      43.336 -11.953   2.823  1.00  0.00     0.191 HD
HETATM    6  C   UNL     1      42.046 -13.618   2.414  1.00  0.00     0.134 C 
HETATM    7  C   UNL     1      41.616 -14.600   3.286  1.00  0.00     0.032 C 
HETATM    8  C   UNL     1      40.947 -15.912   3.007  1.00  0.00     0.120 C 
HETATM    9  S   UNL     1      39.583 -15.987   1.804  1.00  0.00    -0.141 SA
HETATM   10  C   UNL     1      39.506 -14.329   1.070  1.00  0.00     0.136 C 
HETATM   11  C   UNL     1      38.879 -13.274   1.976  1.00  0.00     0.031 C 
HETATM   12  C   UNL     1      40.784 -13.884   0.363  1.00  0.00     0.236 C 
HETATM   13  O   UNL     1      40.840 -13.825  -0.871  1.00  0.00    -0.272 OA
HETATM   14  N   UNL     1      41.859 -13.430   1.071  1.00  0.00    -0.311 N 
HETATM   15  H   UNL     1      42.532 -12.904   0.523  1.00  0.00     0.170 HD
ENDROOT
BRANCH   8  16
HETATM   16  C   UNL     1      42.082 -16.896   2.670  1.00  0.00    -0.029 A 
HETATM   17  C   UNL     1      42.665 -17.773   3.646  1.00  0.00    -0.018 A 
HETATM   18  C   UNL     1      43.759 -18.597   3.257  1.00  0.00    -0.025 A 
HETATM   19  C   UNL     1      42.237 -17.898   4.991  1.00  0.00     0.013 A 
HETATM   20  C   UNL     1      44.383 -19.448   4.184  1.00  0.00     0.012 A 
HETATM   21  C   UNL     1      44.230 -18.579   1.939  1.00  0.00     0.012 A 
HETATM   22  C   UNL     1      43.947 -19.518   5.503  1.00  0.00     0.001 A 
HETATM   23  C   UNL     1      42.869 -18.748   5.905  1.00  0.00     0.001 A 
HETATM   24  C   UNL     1      43.646 -17.757   0.988  1.00  0.00     0.002 A 
HETATM   25  C   UNL     1      42.594 -16.925   1.350  1.00  0.00     0.009 A 
ENDBRANCH   8  16
TORSDOF 1
ENDMDL
MODEL 4
REMARK VINA RESULT:      -7.3      1.896      3.436
REMARK  1 active torsions:
REMARK  status: ('A' for Active; 'I' for Inactive)
REMARK    1  A    between atoms: C_8  and  C_9 
ROOT
HETATM    1  C   UNL     1      41.154 -13.594   5.712  1.00  0.00     0.073 C 
HETATM    2  C   UNL     1      42.172 -14.023   4.720  1.00  0.00     0.062 C 
HETATM    3  N   UNL     1      43.141 -13.164   4.386  1.00  0.00    -0.178 NA
HETATM    4  N   UNL     1      43.893 -13.846   3.518  1.00  0.00    -0.262 N 
HETATM    5  H   UNL     1      44.710 -13.387   3.132  1.00  0.00     0.191 HD
HETATM    6  C   UNL     1      43.359 -15.054   3.169  1.00  0.00     0.134 C 
HETATM    7  C   UNL     1      42.303 -15.278   4.034  1.00  0.00     0.032 C 
HETATM    8  C   UNL     1      41.506 -16.524   4.279  1.00  0.00     0.120 C 
HETATM    9  S   UNL     1      40.928 -17.513   2.865  1.00  0.00    -0.141 SA
HETATM   10  C   UNL     1      41.688 -16.746   1.407  1.00  0.00     0.136 C 
HETATM   11  C   UNL     1      41.036 -15.436   0.978  1.00  0.00     0.031 C 
HETATM   12  C   UNL     1      43.215 -16.724   1.420  1.00  0.00     0.236 C 
HETATM   13  O   UNL     1      43.868 -17.471   0.683  1.00  0.00    -0.272 OA
HETATM   14  N   UNL     1      43.899 -15.802   2.159  1.00  0.00    -0.311 N 
HETATM   15  H   UNL     1      44.869 -15.684   1.890  1.00  0.00     0.170 HD
ENDROOT
BRANCH   8  16
HETATM   16  C   UNL     1      42.329 -17.355   5.280  1.00  0.00    -0.029 A 
HETATM   17  C   UNL     1      43.129 -18.480   4.883  1.00  0.00    -0.018 A 
HETATM   18  C   UNL     1      43.798 -19.232   5.890  1.00  0.00    -0.025 A 
HETATM   19  C   UNL     1      43.321 -18.914   3.547  1.00  0.00     0.013 A 
HETATM   20  C   UNL     1      44.567 -20.358   5.553  1.00  0.00     0.012 A 
HETATM   21  C   UNL     1      43.707 -18.858   7.235  1.00  0.00     0.012 A 
HETATM   22  C   UNL     1      44.704 -20.767   4.231  1.00  0.00     0.001 A 
HETATM   23  C   UNL     1      44.087 -20.039   3.227  1.00  0.00     0.001 A 
HETATM   24  C   UNL     1      42.961 -17.753   7.617  1.00  0.00     0.002 A 
HETATM   25  C   UNL     1      42.280 -17.018   6.655  1.00  0.00     0.009 A 
ENDBRANCH   8  16
TORSDOF 1
ENDMDL
MODEL 5
REMARK VINA RESULT:      -7.3      4.980      7.080
REMARK  1 active torsions:
REMARK  status: ('A' for Active; 'I' for Inactive)
REMARK    1  A    between atoms: C_8  and  C_9 
ROOT
HETATM    1  C   UNL     1      41.920 -11.068   0.601  1.00  0.00     0.073 C 
HETATM    2  C   UNL     1      42.106 -12.003  -0.537  1.00  0.00     0.062 C 
HETATM    3  N   UNL     1      43.215 -11.895  -1.278  1.00  0.00    -0.178 NA
HETATM    4  N   UNL     1      43.097 -12.875  -2.179  1.00  0.00    -0.262 N 
HETATM    5  H   UNL     1      43.844 -12.993  -2.853  1.00  0.00     0.191 HD
HETATM    6  C   UNL     1      41.887 -13.507  -2.138  1.00  0.00     0.134 C 
HETATM    7  C   UNL     1      41.255 -13.067  -0.990  1.00  0.00     0.032 C 
HETATM    8  C   UNL     1      40.024 -13.584  -0.309  1.00  0.00     0.120 C 
HETATM    9  S   UNL     1      38.554 -13.994  -1.302  1.00  0.00    -0.141 SA
HETATM   10  C   UNL     1      39.081 -13.810  -3.029  1.00  0.00     0.136 C 
HETATM   11  C   UNL     1      39.205 -12.362  -3.493  1.00  0.00     0.031 C 
HETATM   12  C   UNL     1      40.240 -14.714  -3.442  1.00  0.00     0.236 C 
HETATM   13  O   UNL     1      40.055 -15.688  -4.180  1.00  0.00    -0.272 OA
HETATM   14  N   UNL     1      41.526 -14.407  -3.104  1.00  0.00    -0.311 N 
HETATM   15  H   UNL     1      42.231 -14.893  -3.647  1.00  0.00     0.170 HD
ENDROOT
BRANCH   8  16
HETATM   16  C   UNL     1      40.492 -14.765   0.560  1.00  0.00    -0.029 A 
HETATM   17  C   UNL     1      40.437 -14.743   1.995  1.00  0.00    -0.018 A 
HETATM   18  C   UNL     1      40.959 -15.854   2.716  1.00  0.00    -0.025 A 
HETATM   19  C   UNL     1      39.892 -13.693   2.775  1.00  0.00     0.013 A 
HETATM   20  C   UNL     1      40.956 -15.865   4.121  1.00  0.00     0.012 A 
HETATM   21  C   UNL     1      41.480 -16.961   2.037  1.00  0.00     0.012 A 
HETATM   22  C   UNL     1      40.437 -14.798   4.847  1.00  0.00     0.001 A 
HETATM   23  C   UNL     1      39.898 -13.715   4.174  1.00  0.00     0.001 A 
HETATM   24  C   UNL     1      41.504 -16.998   0.651  1.00  0.00     0.002 A 
HETATM   25  C   UNL     1      41.023 -15.915  -0.074  1.00  0.00     0.009 A 
ENDBRANCH   8  16
TORSDOF 1
ENDMDL
MODEL 6
REMARK VINA RESULT:      -7.1      3.019      5.924
REMARK  1 active torsions:
REMARK  status: ('A' for Active; 'I' for Inactive)
REMARK    1  A    between atoms: C_8  and  C_9 
ROOT
HETATM    1  C   UNL     1      43.578 -16.612   7.385  1.00  0.00     0.073 C 
HETATM    2  C   UNL     1      42.295 -16.295   6.707  1.00  0.00     0.062 C 
HETATM    3  N   UNL     1      41.216 -17.027   7.006  1.00  0.00    -0.178 NA
HETATM    4  N   UNL     1      40.243 -16.484   6.269  1.00  0.00    -0.262 N 
HETATM    5  H   UNL     1      39.313 -16.878   6.343  1.00  0.00     0.191 HD
HETATM    6  C   UNL     1      40.690 -15.532   5.398  1.00  0.00     0.134 C 
HETATM    7  C   UNL     1      42.004 -15.271   5.743  1.00  0.00     0.032 C 
HETATM    8  C   UNL     1      42.916 -14.168   5.300  1.00  0.00     0.120 C 
HETATM    9  S   UNL     1      42.993 -13.720   3.537  1.00  0.00    -0.141 SA
HETATM   10  C   UNL     1      41.696 -14.707   2.739  1.00  0.00     0.136 C 
HETATM   11  C   UNL     1      42.054 -16.179   2.558  1.00  0.00     0.031 C 
HETATM   12  C   UNL     1      40.286 -14.453   3.266  1.00  0.00     0.236 C 
HETATM   13  O   UNL     1      39.458 -13.831   2.592  1.00  0.00    -0.272 OA
HETATM   14  N   UNL     1      39.865 -15.003   4.442  1.00  0.00    -0.311 N 
HETATM   15  H   UNL     1      38.858 -15.016   4.564  1.00  0.00     0.170 HD
ENDROOT
BRANCH   8  16
HETATM   16  C   UNL     1      42.582 -12.964   6.198  1.00  0.00    -0.029 A 
HETATM   17  C   UNL     1      43.399 -12.574   7.312  1.00  0.00    -0.018 A 
HETATM   18  C   UNL     1      42.971 -11.489   8.128  1.00  0.00    -0.025 A 
HETATM   19  C   UNL     1      44.626 -13.184   7.677  1.00  0.00     0.013 A 
HETATM   20  C   UNL     1      43.721 -11.092   9.247  1.00  0.00     0.012 A 
HETATM   21  C   UNL     1      41.795 -10.793   7.826  1.00  0.00     0.012 A 
HETATM   22  C   UNL     1      44.905 -11.738   9.586  1.00  0.00     0.001 A 
HETATM   23  C   UNL     1      45.361 -12.780   8.796  1.00  0.00     0.001 A 
HETATM   24  C   UNL     1      41.022 -11.147   6.731  1.00  0.00     0.002 A 
HETATM   25  C   UNL     1      41.406 -12.218   5.934  1.00  0.00     0.009 A 
ENDBRANCH   8  16
TORSDOF 1
ENDMDL
MODEL 7
REMARK VINA RESULT:      -7.0      3.719      5.355
REMARK  1 active torsions:
REMARK  status: ('A' for Active; 'I' for Inactive)
REMARK    1  A    between atoms: C_8  and  C_9 
ROOT
HETATM    1  C   UNL     1      41.506 -11.900   3.327  1.00  0.00     0.073 C 
HETATM    2  C   UNL     1      41.502 -12.310   1.900  1.00  0.00     0.062 C 
HETATM    3  N   UNL     1      42.414 -11.777   1.079  1.00  0.00    -0.178 NA
HETATM    4  N   UNL     1      42.168 -12.359  -0.098  1.00  0.00    -0.262 N 
HETATM    5  H   UNL     1      42.757 -12.111  -0.884  1.00  0.00     0.191 HD
HETATM    6  C   UNL     1      41.040 -13.129  -0.097  1.00  0.00     0.134 C 
HETATM    7  C   UNL     1      40.644 -13.242   1.223  1.00  0.00     0.032 C 
HETATM    8  C   UNL     1      39.627 -14.146   1.850  1.00  0.00     0.120 C 
HETATM    9  S   UNL     1      38.007 -14.366   1.050  1.00  0.00    -0.141 SA
HETATM   10  C   UNL     1      38.134 -13.482  -0.530  1.00  0.00     0.136 C 
HETATM   11  C   UNL     1      38.058 -11.964  -0.404  1.00  0.00     0.031 C 
HETATM   12  C   UNL     1      39.232 -13.992  -1.460  1.00  0.00     0.236 C 
HETATM   13  O   UNL     1      38.955 -14.639  -2.475  1.00  0.00    -0.272 OA
HETATM   14  N   UNL     1      40.538 -13.650  -1.259  1.00  0.00    -0.311 N 
HETATM   15  H   UNL     1      41.139 -13.793  -2.063  1.00  0.00     0.170 HD
ENDROOT
BRANCH   8  16
HETATM   16  C   UNL     1      40.349 -15.484   2.091  1.00  0.00    -0.029 A 
HETATM   17  C   UNL     1      40.769 -15.917   3.394  1.00  0.00    -0.018 A 
HETATM   18  C   UNL     1      41.493 -17.137   3.509  1.00  0.00    -0.025 A 
HETATM   19  C   UNL     1      40.516 -15.224   4.605  1.00  0.00     0.013 A 
HETATM   20  C   UNL     1      41.952 -17.585   4.759  1.00  0.00     0.012 A 
HETATM   21  C   UNL     1      41.757 -17.916   2.377  1.00  0.00     0.012 A 
HETATM   22  C   UNL     1      41.707 -16.859   5.919  1.00  0.00     0.001 A 
HETATM   23  C   UNL     1      40.981 -15.681   5.843  1.00  0.00     0.001 A 
HETATM   24  C   UNL     1      41.323 -17.516   1.122  1.00  0.00     0.002 A 
HETATM   25  C   UNL     1      40.636 -16.317   0.982  1.00  0.00     0.009 A 
ENDBRANCH   8  16
TORSDOF 1
ENDMDL
MODEL 8
REMARK VINA RESULT:      -7.0      1.787      2.748
REMARK  1 active torsions:
REMARK  status: ('A' for Active; 'I' for Inactive)
REMARK    1  A    between atoms: C_8  and  C_9 
ROOT
HETATM    1  C   UNL     1      43.741 -14.585   7.081  1.00  0.00     0.073 C 
HETATM    2  C   UNL     1      43.725 -14.599   5.597  1.00  0.00     0.062 C 
HETATM    3  N   UNL     1      44.391 -13.641   4.941  1.00  0.00    -0.178 NA
HETATM    4  N   UNL     1      44.210 -13.946   3.654  1.00  0.00    -0.262 N 
HETATM    5  H   UNL     1      44.644 -13.349   2.958  1.00  0.00     0.191 HD
HETATM    6  C   UNL     1      43.330 -14.971   3.457  1.00  0.00     0.134 C 
HETATM    7  C   UNL     1      43.092 -15.526   4.701  1.00  0.00     0.032 C 
HETATM    8  C   UNL     1      42.407 -16.806   5.071  1.00  0.00     0.120 C 
HETATM    9  S   UNL     1      40.841 -17.254   4.257  1.00  0.00    -0.141 SA
HETATM   10  C   UNL     1      40.595 -15.995   2.974  1.00  0.00     0.136 C 
HETATM   11  C   UNL     1      40.132 -14.643   3.507  1.00  0.00     0.031 C 
HETATM   12  C   UNL     1      41.707 -15.922   1.930  1.00  0.00     0.236 C 
HETATM   13  O   UNL     1      41.527 -16.337   0.780  1.00  0.00    -0.272 OA
HETATM   14  N   UNL     1      42.888 -15.294   2.203  1.00  0.00    -0.311 N 
HETATM   15  H   UNL     1      43.435 -15.053   1.384  1.00  0.00     0.170 HD
ENDROOT
BRANCH   8  16
HETATM   16  C   UNL     1      43.475 -17.906   4.933  1.00  0.00    -0.029 A 
HETATM   17  C   UNL     1      43.503 -18.828   3.833  1.00  0.00    -0.018 A 
HETATM   18  C   UNL     1      44.488 -19.857   3.829  1.00  0.00    -0.025 A 
HETATM   19  C   UNL     1      42.622 -18.803   2.723  1.00  0.00     0.013 A 
HETATM   20  C   UNL     1      44.535 -20.802   2.791  1.00  0.00     0.012 A 
HETATM   21  C   UNL     1      45.431 -19.942   4.859  1.00  0.00     0.012 A 
HETATM   22  C   UNL     1      43.631 -20.757   1.735  1.00  0.00     0.001 A 
HETATM   23  C   UNL     1      42.679 -19.752   1.697  1.00  0.00     0.001 A 
HETATM   24  C   UNL     1      45.426 -19.032   5.905  1.00  0.00     0.002 A 
HETATM   25  C   UNL     1      44.460 -18.034   5.943  1.00  0.00     0.009 A 
ENDBRANCH   8  16
TORSDOF 1
ENDMDL
MODEL 9
REMARK VINA RESULT:      -6.8      5.408      8.237
REMARK  1 active torsions:
REMARK  status: ('A' for Active; 'I' for Inactive)
REMARK    1  A    between atoms: C_8  and  C_9 
ROOT
HETATM    1  C   UNL     1      39.025 -10.330   0.773  1.00  0.00     0.073 C 
HETATM    2  C   UNL     1      38.645 -11.760   0.891  1.00  0.00     0.062 C 
HETATM    3  N   UNL     1      37.345 -12.076   0.930  1.00  0.00    -0.178 NA
HETATM    4  N   UNL     1      37.339 -13.410   1.006  1.00  0.00    -0.262 N 
HETATM    5  H   UNL     1      36.442 -13.881   1.036  1.00  0.00     0.191 HD
HETATM    6  C   UNL     1      38.583 -13.949   1.171  1.00  0.00     0.134 C 
HETATM    7  C   UNL     1      39.486 -12.923   0.962  1.00  0.00     0.032 C 
HETATM    8  C   UNL     1      40.972 -12.969   0.779  1.00  0.00     0.120 C 
HETATM    9  S   UNL     1      41.980 -14.011   1.880  1.00  0.00    -0.141 SA
HETATM   10  C   UNL     1      40.785 -14.933   2.887  1.00  0.00     0.136 C 
HETATM   11  C   UNL     1      40.127 -14.106   3.987  1.00  0.00     0.031 C 
HETATM   12  C   UNL     1      39.826 -15.815   2.091  1.00  0.00     0.236 C 
HETATM   13  O   UNL     1      39.942 -17.045   2.094  1.00  0.00    -0.272 OA
HETATM   14  N   UNL     1      38.746 -15.279   1.449  1.00  0.00    -0.311 N 
HETATM   15  H   UNL     1      38.031 -15.952   1.196  1.00  0.00     0.170 HD
ENDROOT
BRANCH   8  16
HETATM   16  C   UNL     1      41.201 -13.293  -0.708  1.00  0.00    -0.029 A 
HETATM   17  C   UNL     1      41.666 -12.318  -1.654  1.00  0.00    -0.018 A 
HETATM   18  C   UNL     1      41.779 -12.693  -3.022  1.00  0.00    -0.025 A 
HETATM   19  C   UNL     1      42.036 -10.986  -1.338  1.00  0.00     0.013 A 
HETATM   20  C   UNL     1      42.200 -11.764  -3.989  1.00  0.00     0.012 A 
HETATM   21  C   UNL     1      41.479 -13.997  -3.430  1.00  0.00     0.012 A 
HETATM   22  C   UNL     1      42.525 -10.459  -3.639  1.00  0.00     0.001 A 
HETATM   23  C   UNL     1      42.450 -10.072  -2.312  1.00  0.00     0.001 A 
HETATM   24  C   UNL     1      41.061 -14.950  -2.512  1.00  0.00     0.002 A 
HETATM   25  C   UNL     1      40.919 -14.601  -1.175  1.00  0.00     0.009 A 
ENDBRANCH   8  16
TORSDOF 1
ENDMDL
MODEL 10
REMARK VINA RESULT:      -6.8      0.837      2.639
REMARK  1 active torsions:
REMARK  status: ('A' for Active; 'I' for Inactive)
REMARK    1  A    between atoms: C_8  and  C_9 
ROOT
HETATM    1  C   UNL     1      43.362 -16.973   8.375  1.00  0.00     0.073 C 
HETATM    2  C   UNL     1      43.676 -15.902   7.395  1.00  0.00     0.062 C 
HETATM    3  N   UNL     1      44.677 -15.058   7.669  1.00  0.00    -0.178 NA
HETATM    4  N   UNL     1      44.722 -14.255   6.603  1.00  0.00    -0.262 N 
HETATM    5  H   UNL     1      45.428 -13.527   6.584  1.00  0.00     0.191 HD
HETATM    6  C   UNL     1      43.692 -14.455   5.728  1.00  0.00     0.134 C 
HETATM    7  C   UNL     1      43.058 -15.617   6.130  1.00  0.00     0.032 C 
HETATM    8  C   UNL     1      42.027 -16.445   5.426  1.00  0.00     0.120 C 
HETATM    9  S   UNL     1      40.622 -15.625   4.608  1.00  0.00    -0.141 SA
HETATM   10  C   UNL     1      40.973 -13.849   4.731  1.00  0.00     0.136 C 
HETATM   11  C   UNL     1      40.733 -13.259   6.116  1.00  0.00     0.031 C 
HETATM   12  C   UNL     1      42.274 -13.408   4.066  1.00  0.00     0.236 C 
HETATM   13  O   UNL     1      42.264 -12.772   3.007  1.00  0.00    -0.272 OA
HETATM   14  N   UNL     1      43.478 -13.603   4.679  1.00  0.00    -0.311 N 
HETATM   15  H   UNL     1      44.236 -13.040   4.308  1.00  0.00     0.170 HD
ENDROOT
BRANCH   8  16
HETATM   16  C   UNL     1      42.810 -17.362   4.469  1.00  0.00    -0.029 A 
HETATM   17  C   UNL     1      42.807 -17.182   3.045  1.00  0.00    -0.018 A 
HETATM   18  C   UNL     1      43.503 -18.124   2.235  1.00  0.00    -0.025 A 
HETATM   19  C   UNL     1      42.162 -16.123   2.357  1.00  0.00     0.013 A 
HETATM   20  C   UNL     1      43.502 -18.007   0.835  1.00  0.00     0.012 A 
HETATM   21  C   UNL     1      44.207 -19.181   2.821  1.00  0.00     0.012 A 
HETATM   22  C   UNL     1      42.831 -16.968   0.200  1.00  0.00     0.001 A 
HETATM   23  C   UNL     1      42.167 -16.021   0.962  1.00  0.00     0.001 A 
HETATM   24  C   UNL     1      44.239 -19.338   4.198  1.00  0.00     0.002 A 
HETATM   25  C   UNL     1      43.546 -18.446   5.008  1.00  0.00     0.009 A 
ENDBRANCH   8  16
TORSDOF 1
ENDMDL
