MODEL 1
REMARK VINA RESULT:      -9.5      0.000      0.000
REMARK  4 active torsions:
REMARK  status: ('A' for Active; 'I' for Inactive)
REMARK    1  A    between atoms: C_3  and  C_4 
REMARK    2  A    between atoms: C_14  and  N_15 
REMARK       I    between atoms: N_15  and  C_16 
REMARK    3  A    between atoms: C_16  and  C_17 
REMARK    4  A    between atoms: C_19  and  N_20 
ROOT
HETATM    1  N   UNL     1      42.733 -18.874   2.145  1.00  0.00    -0.322 N 
HETATM    2  C   UNL     1      43.135 -17.743   1.469  1.00  0.00     0.256 C 
HETATM    3  O   UNL     1      44.260 -17.434   1.104  1.00  0.00    -0.267 OA
HETATM    4  H   UNL     1      41.754 -18.926   2.407  1.00  0.00     0.169 HD
ENDROOT
BRANCH   1   5
HETATM    5  C   UNL     1      43.506 -20.037   2.406  1.00  0.00     0.049 A 
HETATM    6  C   UNL     1      44.013 -20.259   3.708  1.00  0.00     0.037 A 
HETATM    7  C   UNL     1      44.648 -21.476   4.004  1.00  0.00     0.017 A 
HETATM    8  C   UNL     1      44.826 -22.446   3.022  1.00  0.00     0.001 A 
HETATM    9  C   UNL     1      44.373 -22.208   1.729  1.00  0.00     0.002 A 
HETATM   10  C   UNL     1      43.717 -21.012   1.423  1.00  0.00     0.030 A 
BRANCH   6  11
HETATM   11  C   UNL     1      43.978 -19.240   4.759  1.00  0.00     0.141 A 
HETATM   12  N   UNL     1      44.133 -17.938   4.608  1.00  0.00    -0.228 NA
HETATM   13  C   UNL     1      43.973 -17.392   5.859  1.00  0.00     0.086 A 
HETATM   14  C   UNL     1      43.700 -18.377   6.800  1.00  0.00     0.062 A 
HETATM   15  C   UNL     1      44.042 -16.053   6.269  1.00  0.00     0.034 A 
HETATM   16  N   UNL     1      43.680 -19.535   6.071  1.00  0.00    -0.338 N 
HETATM   17  C   UNL     1      43.495 -18.110   8.154  1.00  0.00     0.032 A 
HETATM   18  H   UNL     1      43.467 -20.459   6.421  1.00  0.00     0.167 HD
HETATM   19  C   UNL     1      43.574 -16.769   8.547  1.00  0.00     0.002 A 
HETATM   20  C   UNL     1      43.839 -15.755   7.623  1.00  0.00     0.002 A 
ENDBRANCH   6  11
ENDBRANCH   1   5
BRANCH   2  21
HETATM   21  C   UNL     1      42.031 -16.802   1.209  1.00  0.00     0.034 A 
HETATM   22  C   UNL     1      42.092 -15.988   0.072  1.00  0.00     0.047 A 
HETATM   23  C   UNL     1      41.063 -15.079  -0.221  1.00  0.00     0.046 A 
HETATM   24  C   UNL     1      39.984 -15.030   0.682  1.00  0.00     0.030 A 
HETATM   25  C   UNL     1      39.931 -15.844   1.824  1.00  0.00     0.003 A 
HETATM   26  C   UNL     1      40.959 -16.737   2.094  1.00  0.00     0.017 A 
BRANCH  23  27
HETATM   27  N   UNL     1      41.117 -14.236  -1.380  1.00  0.00    -0.252 N 
HETATM   28  C   UNL     1      41.664 -12.970  -1.400  1.00  0.00     0.231 C 
HETATM   29  O   UNL     1      42.290 -12.379  -0.530  1.00  0.00    -0.273 OA
HETATM   30  C   UNL     1      41.383 -12.335  -2.728  1.00  0.00     0.113 C 
HETATM   31  C   UNL     1      40.991 -13.495  -3.602  1.00  0.00     0.113 C 
HETATM   32  C   UNL     1      40.643 -14.580  -2.629  1.00  0.00     0.231 C 
HETATM   33  O   UNL     1      40.044 -15.586  -2.986  1.00  0.00    -0.273 OA
ENDBRANCH  23  27
ENDBRANCH   2  21
TORSDOF 4
ENDMDL
MODEL 2
REMARK VINA RESULT:      -9.3      5.574      8.932
REMARK  4 active torsions:
REMARK  status: ('A' for Active; 'I' for Inactive)
REMARK    1  A    between atoms: C_3  and  C_4 
REMARK    2  A    between atoms: C_14  and  N_15 
REMARK       I    between atoms: N_15  and  C_16 
REMARK    3  A    between atoms: C_16  and  C_17 
REMARK    4  A    between atoms: C_19  and  N_20 
ROOT
HETATM    1  N   UNL     1      44.193 -14.648   7.606  1.00  0.00    -0.322 N 
HETATM    2  C   UNL     1      45.053 -13.586   7.435  1.00  0.00     0.256 C 
HETATM    3  O   UNL     1      45.942 -13.452   6.607  1.00  0.00    -0.267 OA
HETATM    4  H   UNL     1      43.551 -14.594   8.391  1.00  0.00     0.169 HD
ENDROOT
BRANCH   1   5
HETATM    5  C   UNL     1      44.013 -15.754   6.734  1.00  0.00     0.049 A 
HETATM    6  C   UNL     1      43.180 -15.617   5.599  1.00  0.00     0.037 A 
HETATM    7  C   UNL     1      43.119 -16.657   4.656  1.00  0.00     0.017 A 
HETATM    8  C   UNL     1      43.832 -17.837   4.848  1.00  0.00     0.001 A 
HETATM    9  C   UNL     1      44.611 -17.993   5.989  1.00  0.00     0.002 A 
HETATM   10  C   UNL     1      44.703 -16.958   6.925  1.00  0.00     0.030 A 
BRANCH   6  11
HETATM   11  C   UNL     1      42.305 -14.462   5.390  1.00  0.00     0.141 A 
HETATM   12  N   UNL     1      42.586 -13.365   4.713  1.00  0.00    -0.228 NA
HETATM   13  C   UNL     1      41.449 -12.595   4.753  1.00  0.00     0.086 A 
HETATM   14  C   UNL     1      40.440 -13.236   5.460  1.00  0.00     0.062 A 
HETATM   15  C   UNL     1      41.202 -11.330   4.200  1.00  0.00     0.034 A 
HETATM   16  N   UNL     1      40.999 -14.430   5.827  1.00  0.00    -0.338 N 
HETATM   17  C   UNL     1      39.174 -12.684   5.664  1.00  0.00     0.032 A 
HETATM   18  H   UNL     1      40.537 -15.180   6.323  1.00  0.00     0.167 HD
HETATM   19  C   UNL     1      38.947 -11.419   5.110  1.00  0.00     0.002 A 
HETATM   20  C   UNL     1      39.939 -10.752   4.388  1.00  0.00     0.002 A 
ENDBRANCH   6  11
ENDBRANCH   1   5
BRANCH   2  21
HETATM   21  C   UNL     1      44.855 -12.516   8.429  1.00  0.00     0.034 A 
HETATM   22  C   UNL     1      43.587 -11.936   8.553  1.00  0.00     0.047 A 
HETATM   23  C   UNL     1      43.347 -10.916   9.487  1.00  0.00     0.046 A 
HETATM   24  C   UNL     1      44.439 -10.512  10.279  1.00  0.00     0.030 A 
HETATM   25  C   UNL     1      45.710 -11.092  10.147  1.00  0.00     0.003 A 
HETATM   26  C   UNL     1      45.925 -12.100   9.216  1.00  0.00     0.017 A 
BRANCH  23  27
HETATM   27  N   UNL     1      42.054 -10.311   9.619  1.00  0.00    -0.252 N 
HETATM   28  C   UNL     1      41.513  -9.418   8.717  1.00  0.00     0.231 C 
HETATM   29  O   UNL     1      41.934  -9.067   7.623  1.00  0.00    -0.273 OA
HETATM   30  C   UNL     1      40.234  -8.872   9.274  1.00  0.00     0.113 C 
HETATM   31  C   UNL     1      39.885  -9.834  10.377  1.00  0.00     0.113 C 
HETATM   32  C   UNL     1      41.174 -10.548  10.655  1.00  0.00     0.231 C 
HETATM   33  O   UNL     1      41.320 -11.227  11.662  1.00  0.00    -0.273 OA
ENDBRANCH  23  27
ENDBRANCH   2  21
TORSDOF 4
ENDMDL
MODEL 3
REMARK VINA RESULT:      -9.3      3.127      8.601
REMARK  4 active torsions:
REMARK  status: ('A' for Active; 'I' for Inactive)
REMARK    1  A    between atoms: C_3  and  C_4 
REMARK    2  A    between atoms: C_14  and  N_15 
REMARK       I    between atoms: N_15  and  C_16 
REMARK    3  A    between atoms: C_16  and  C_17 
REMARK    4  A    between atoms: C_19  and  N_20 
ROOT
HETATM    1  N   UNL     1      41.820 -15.022   3.936  1.00  0.00    -0.322 N 
HETATM    2  C   UNL     1      41.590 -16.378   4.011  1.00  0.00     0.256 C 
HETATM    3  O   UNL     1      40.716 -16.969   4.626  1.00  0.00    -0.267 OA
HETATM    4  H   UNL     1      42.636 -14.725   3.409  1.00  0.00     0.169 HD
ENDROOT
BRANCH   1   5
HETATM    5  C   UNL     1      40.974 -13.982   4.404  1.00  0.00     0.049 A 
HETATM    6  C   UNL     1      40.533 -12.984   3.503  1.00  0.00     0.037 A 
HETATM    7  C   UNL     1      39.579 -12.043   3.926  1.00  0.00     0.017 A 
HETATM    8  C   UNL     1      39.098 -12.053   5.233  1.00  0.00     0.001 A 
HETATM    9  C   UNL     1      39.569 -13.002   6.133  1.00  0.00     0.002 A 
HETATM   10  C   UNL     1      40.500 -13.961   5.721  1.00  0.00     0.030 A 
BRANCH   6  11
HETATM   11  C   UNL     1      41.084 -12.831   2.155  1.00  0.00     0.141 A 
HETATM   12  N   UNL     1      41.043 -13.714   1.176  1.00  0.00    -0.228 NA
HETATM   13  C   UNL     1      41.641 -13.109   0.097  1.00  0.00     0.086 A 
HETATM   14  C   UNL     1      42.048 -11.819   0.414  1.00  0.00     0.062 A 
HETATM   15  C   UNL     1      41.869 -13.601  -1.196  1.00  0.00     0.034 A 
HETATM   16  N   UNL     1      41.656 -11.657   1.715  1.00  0.00    -0.338 N 
HETATM   17  C   UNL     1      42.689 -10.971  -0.491  1.00  0.00     0.032 A 
HETATM   18  H   UNL     1      41.749 -10.817   2.269  1.00  0.00     0.167 HD
HETATM   19  C   UNL     1      42.913 -11.481  -1.775  1.00  0.00     0.002 A 
HETATM   20  C   UNL     1      42.509 -12.771  -2.126  1.00  0.00     0.002 A 
ENDBRANCH   6  11
ENDBRANCH   1   5
BRANCH   2  21
HETATM   21  C   UNL     1      42.578 -17.174   3.260  1.00  0.00     0.034 A 
HETATM   22  C   UNL     1      42.950 -18.429   3.755  1.00  0.00     0.047 A 
HETATM   23  C   UNL     1      43.884 -19.226   3.075  1.00  0.00     0.046 A 
HETATM   24  C   UNL     1      44.420 -18.698   1.885  1.00  0.00     0.030 A 
HETATM   25  C   UNL     1      44.048 -17.437   1.395  1.00  0.00     0.003 A 
HETATM   26  C   UNL     1      43.122 -16.665   2.085  1.00  0.00     0.017 A 
BRANCH  23  27
HETATM   27  N   UNL     1      44.278 -20.511   3.576  1.00  0.00    -0.252 N 
HETATM   28  C   UNL     1      44.647 -20.761   4.881  1.00  0.00     0.231 C 
HETATM   29  O   UNL     1      44.605 -20.023   5.856  1.00  0.00    -0.273 OA
HETATM   30  C   UNL     1      45.155 -22.166   4.986  1.00  0.00     0.113 C 
HETATM   31  C   UNL     1      44.659 -22.821   3.726  1.00  0.00     0.113 C 
HETATM   32  C   UNL     1      44.327 -21.668   2.827  1.00  0.00     0.231 C 
HETATM   33  O   UNL     1      44.129 -21.832   1.630  1.00  0.00    -0.273 OA
ENDBRANCH  23  27
ENDBRANCH   2  21
TORSDOF 4
ENDMDL
MODEL 4
REMARK VINA RESULT:      -9.2      1.685      4.507
REMARK  4 active torsions:
REMARK  status: ('A' for Active; 'I' for Inactive)
REMARK    1  A    between atoms: C_3  and  C_4 
REMARK    2  A    between atoms: C_14  and  N_15 
REMARK       I    between atoms: N_15  and  C_16 
REMARK    3  A    between atoms: C_16  and  C_17 
REMARK    4  A    between atoms: C_19  and  N_20 
ROOT
HETATM    1  N   UNL     1      42.464 -15.468   3.527  1.00  0.00    -0.322 N 
HETATM    2  C   UNL     1      42.652 -14.536   2.529  1.00  0.00     0.256 C 
HETATM    3  O   UNL     1      43.184 -13.439   2.602  1.00  0.00    -0.267 OA
HETATM    4  H   UNL     1      41.950 -16.307   3.278  1.00  0.00     0.169 HD
ENDROOT
BRANCH   1   5
HETATM    5  C   UNL     1      43.020 -15.446   4.833  1.00  0.00     0.049 A 
HETATM    6  C   UNL     1      43.774 -16.554   5.287  1.00  0.00     0.037 A 
HETATM    7  C   UNL     1      44.449 -16.474   6.517  1.00  0.00     0.017 A 
HETATM    8  C   UNL     1      44.347 -15.338   7.315  1.00  0.00     0.001 A 
HETATM    9  C   UNL     1      43.565 -14.268   6.893  1.00  0.00     0.002 A 
HETATM   10  C   UNL     1      42.907 -14.321   5.660  1.00  0.00     0.030 A 
BRANCH   6  11
HETATM   11  C   UNL     1      43.828 -17.828   4.567  1.00  0.00     0.141 A 
HETATM   12  N   UNL     1      43.419 -18.061   3.335  1.00  0.00    -0.228 NA
HETATM   13  C   UNL     1      43.714 -19.379   3.082  1.00  0.00     0.086 A 
HETATM   14  C   UNL     1      44.332 -19.968   4.178  1.00  0.00     0.062 A 
HETATM   15  C   UNL     1      43.488 -20.144   1.929  1.00  0.00     0.034 A 
HETATM   16  N   UNL     1      44.418 -18.955   5.095  1.00  0.00    -0.338 N 
HETATM   17  C   UNL     1      44.740 -21.302   4.205  1.00  0.00     0.032 A 
HETATM   18  H   UNL     1      44.854 -19.007   6.005  1.00  0.00     0.167 HD
HETATM   19  C   UNL     1      44.501 -22.053   3.048  1.00  0.00     0.002 A 
HETATM   20  C   UNL     1      43.890 -21.487   1.927  1.00  0.00     0.002 A 
ENDBRANCH   6  11
ENDBRANCH   1   5
BRANCH   2  21
HETATM   21  C   UNL     1      42.087 -14.956   1.234  1.00  0.00     0.034 A 
HETATM   22  C   UNL     1      41.811 -13.980   0.269  1.00  0.00     0.047 A 
HETATM   23  C   UNL     1      41.276 -14.330  -0.980  1.00  0.00     0.046 A 
HETATM   24  C   UNL     1      41.032 -15.698  -1.205  1.00  0.00     0.030 A 
HETATM   25  C   UNL     1      41.304 -16.672  -0.232  1.00  0.00     0.003 A 
HETATM   26  C   UNL     1      41.834 -16.304   0.997  1.00  0.00     0.017 A 
BRANCH  23  27
HETATM   27  N   UNL     1      40.985 -13.338  -1.974  1.00  0.00    -0.252 N 
HETATM   28  C   UNL     1      39.719 -12.870  -2.264  1.00  0.00     0.231 C 
HETATM   29  O   UNL     1      38.659 -13.091  -1.694  1.00  0.00    -0.273 OA
HETATM   30  C   UNL     1      39.790 -11.979  -3.466  1.00  0.00     0.113 C 
HETATM   31  C   UNL     1      41.253 -11.653  -3.584  1.00  0.00     0.113 C 
HETATM   32  C   UNL     1      41.927 -12.710  -2.762  1.00  0.00     0.231 C 
HETATM   33  O   UNL     1      43.134 -12.900  -2.836  1.00  0.00    -0.273 OA
ENDBRANCH  23  27
ENDBRANCH   2  21
TORSDOF 4
ENDMDL
MODEL 5
REMARK VINA RESULT:      -9.2      2.989      6.141
REMARK  4 active torsions:
REMARK  status: ('A' for Active; 'I' for Inactive)
REMARK    1  A    between atoms: C_3  and  C_4 
REMARK    2  A    between atoms: C_14  and  N_15 
REMARK       I    between atoms: N_15  and  C_16 
REMARK    3  A    between atoms: C_16  and  C_17 
REMARK    4  A    between atoms: C_19  and  N_20 
ROOT
HETATM    1  N   UNL     1      43.404 -17.337   4.575  1.00  0.00    -0.322 N 
HETATM    2  C   UNL     1      44.068 -16.933   5.713  1.00  0.00     0.256 C 
HETATM    3  O   UNL     1      44.816 -17.582   6.428  1.00  0.00    -0.267 OA
HETATM    4  H   UNL     1      42.782 -16.660   4.145  1.00  0.00     0.169 HD
ENDROOT
BRANCH   1   5
HETATM    5  C   UNL     1      43.590 -18.549   3.860  1.00  0.00     0.049 A 
HETATM    6  C   UNL     1      43.145 -18.643   2.520  1.00  0.00     0.037 A 
HETATM    7  C   UNL     1      43.460 -19.785   1.765  1.00  0.00     0.017 A 
HETATM    8  C   UNL     1      44.163 -20.844   2.332  1.00  0.00     0.001 A 
HETATM    9  C   UNL     1      44.557 -20.775   3.664  1.00  0.00     0.002 A 
HETATM   10  C   UNL     1      44.273 -19.635   4.422  1.00  0.00     0.030 A 
BRANCH   6  11
HETATM   11  C   UNL     1      42.294 -17.630   1.892  1.00  0.00     0.141 A 
HETATM   12  N   UNL     1      41.279 -16.993   2.444  1.00  0.00    -0.228 NA
HETATM   13  C   UNL     1      40.824 -16.112   1.493  1.00  0.00     0.086 A 
HETATM   14  C   UNL     1      41.584 -16.198   0.333  1.00  0.00     0.062 A 
HETATM   15  C   UNL     1      39.763 -15.198   1.551  1.00  0.00     0.034 A 
HETATM   16  N   UNL     1      42.527 -17.146   0.623  1.00  0.00    -0.338 N 
HETATM   17  C   UNL     1      41.345 -15.421  -0.802  1.00  0.00     0.032 A 
HETATM   18  H   UNL     1      43.284 -17.441   0.023  1.00  0.00     0.167 HD
HETATM   19  C   UNL     1      40.278 -14.518  -0.728  1.00  0.00     0.002 A 
HETATM   20  C   UNL     1      39.501 -14.403   0.427  1.00  0.00     0.002 A 
ENDBRANCH   6  11
ENDBRANCH   1   5
BRANCH   2  21
HETATM   21  C   UNL     1      43.773 -15.539   6.090  1.00  0.00     0.034 A 
HETATM   22  C   UNL     1      42.709 -14.880   5.462  1.00  0.00     0.047 A 
HETATM   23  C   UNL     1      42.387 -13.554   5.790  1.00  0.00     0.046 A 
HETATM   24  C   UNL     1      43.185 -12.931   6.768  1.00  0.00     0.030 A 
HETATM   25  C   UNL     1      44.254 -13.594   7.390  1.00  0.00     0.003 A 
HETATM   26  C   UNL     1      44.555 -14.906   7.051  1.00  0.00     0.017 A 
BRANCH  23  27
HETATM   27  N   UNL     1      41.303 -12.867   5.149  1.00  0.00    -0.252 N 
HETATM   28  C   UNL     1      40.111 -12.543   5.764  1.00  0.00     0.231 C 
HETATM   29  O   UNL     1      39.788 -12.651   6.939  1.00  0.00    -0.273 OA
HETATM   30  C   UNL     1      39.166 -11.993   4.740  1.00  0.00     0.113 C 
HETATM   31  C   UNL     1      40.057 -11.650   3.578  1.00  0.00     0.113 C 
HETATM   32  C   UNL     1      41.311 -12.428   3.841  1.00  0.00     0.231 C 
HETATM   33  O   UNL     1      42.159 -12.581   2.972  1.00  0.00    -0.273 OA
ENDBRANCH  23  27
ENDBRANCH   2  21
TORSDOF 4
ENDMDL
MODEL 6
REMARK VINA RESULT:      -9.1      3.967      8.013
REMARK  4 active torsions:
REMARK  status: ('A' for Active; 'I' for Inactive)
REMARK    1  A    between atoms: C_3  and  C_4 
REMARK    2  A    between atoms: C_14  and  N_15 
REMARK       I    between atoms: N_15  and  C_16 
REMARK    3  A    between atoms: C_16  and  C_17 
REMARK    4  A    between atoms: C_19  and  N_20 
ROOT
HETATM    1  N   UNL     1      42.185 -14.633   5.482  1.00  0.00    -0.322 N 
HETATM    2  C   UNL     1      41.875 -15.907   5.908  1.00  0.00     0.256 C 
HETATM    3  O   UNL     1      40.803 -16.337   6.307  1.00  0.00    -0.267 OA
HETATM    4  H   UNL     1      43.154 -14.457   5.235  1.00  0.00     0.169 HD
ENDROOT
BRANCH   1   5
HETATM    5  C   UNL     1      41.277 -13.572   5.225  1.00  0.00     0.049 A 
HETATM    6  C   UNL     1      41.454 -12.331   5.880  1.00  0.00     0.037 A 
HETATM    7  C   UNL     1      40.651 -11.236   5.517  1.00  0.00     0.017 A 
HETATM    8  C   UNL     1      39.653 -11.371   4.556  1.00  0.00     0.001 A 
HETATM    9  C   UNL     1      39.445 -12.604   3.948  1.00  0.00     0.002 A 
HETATM   10  C   UNL     1      40.252 -13.697   4.279  1.00  0.00     0.030 A 
BRANCH   6  11
HETATM   11  C   UNL     1      42.394 -12.143   6.988  1.00  0.00     0.141 A 
HETATM   12  N   UNL     1      43.565 -12.729   7.142  1.00  0.00    -0.228 NA
HETATM   13  C   UNL     1      44.099 -12.207   8.296  1.00  0.00     0.086 A 
HETATM   14  C   UNL     1      43.244 -11.268   8.858  1.00  0.00     0.062 A 
HETATM   15  C   UNL     1      45.321 -12.485   8.925  1.00  0.00     0.034 A 
HETATM   16  N   UNL     1      42.184 -11.225   7.993  1.00  0.00    -0.338 N 
HETATM   17  C   UNL     1      43.528 -10.578  10.037  1.00  0.00     0.032 A 
HETATM   18  H   UNL     1      41.381 -10.615   8.059  1.00  0.00     0.167 HD
HETATM   19  C   UNL     1      44.748 -10.872  10.656  1.00  0.00     0.002 A 
HETATM   20  C   UNL     1      45.633 -11.806  10.111  1.00  0.00     0.002 A 
ENDBRANCH   6  11
ENDBRANCH   1   5
BRANCH   2  21
HETATM   21  C   UNL     1      43.033 -16.819   5.893  1.00  0.00     0.034 A 
HETATM   22  C   UNL     1      43.067 -17.851   4.948  1.00  0.00     0.047 A 
HETATM   23  C   UNL     1      44.150 -18.743   4.892  1.00  0.00     0.046 A 
HETATM   24  C   UNL     1      45.183 -18.546   5.827  1.00  0.00     0.030 A 
HETATM   25  C   UNL     1      45.142 -17.512   6.776  1.00  0.00     0.003 A 
HETATM   26  C   UNL     1      44.061 -16.641   6.814  1.00  0.00     0.017 A 
BRANCH  23  27
HETATM   27  N   UNL     1      44.193 -19.808   3.932  1.00  0.00    -0.252 N 
HETATM   28  C   UNL     1      43.979 -19.649   2.579  1.00  0.00     0.231 C 
HETATM   29  O   UNL     1      43.839 -18.623   1.929  1.00  0.00    -0.273 OA
HETATM   30  C   UNL     1      43.931 -20.998   1.929  1.00  0.00     0.113 C 
HETATM   31  C   UNL     1      44.544 -21.912   2.955  1.00  0.00     0.113 C 
HETATM   32  C   UNL     1      44.465 -21.127   4.230  1.00  0.00     0.231 C 
HETATM   33  O   UNL     1      44.647 -21.660   5.317  1.00  0.00    -0.273 OA
ENDBRANCH  23  27
ENDBRANCH   2  21
TORSDOF 4
ENDMDL
MODEL 7
REMARK VINA RESULT:      -9.1      3.045      8.774
REMARK  4 active torsions:
REMARK  status: ('A' for Active; 'I' for Inactive)
REMARK    1  A    between atoms: C_3  and  C_4 
REMARK    2  A    between atoms: C_14  and  N_15 
REMARK       I    between atoms: N_15  and  C_16 
REMARK    3  A    between atoms: C_16  and  C_17 
REMARK    4  A    between atoms: C_19  and  N_20 
ROOT
HETATM    1  N   UNL     1      41.786 -15.178   3.298  1.00  0.00    -0.322 N 
HETATM    2  C   UNL     1      41.637 -16.501   3.651  1.00  0.00     0.256 C 
HETATM    3  O   UNL     1      40.852 -16.993   4.448  1.00  0.00    -0.267 OA
HETATM    4  H   UNL     1      42.536 -14.959   2.650  1.00  0.00     0.169 HD
ENDROOT
BRANCH   1   5
HETATM    5  C   UNL     1      40.927 -14.099   3.638  1.00  0.00     0.049 A 
HETATM    6  C   UNL     1      40.196 -13.444   2.620  1.00  0.00     0.037 A 
HETATM    7  C   UNL     1      39.236 -12.479   2.969  1.00  0.00     0.017 A 
HETATM    8  C   UNL     1      39.028 -12.128   4.300  1.00  0.00     0.001 A 
HETATM    9  C   UNL     1      39.781 -12.736   5.298  1.00  0.00     0.002 A 
HETATM   10  C   UNL     1      40.723 -13.716   4.970  1.00  0.00     0.030 A 
BRANCH   6  11
HETATM   11  C   UNL     1      40.446 -13.665   1.194  1.00  0.00     0.141 A 
HETATM   12  N   UNL     1      40.497 -14.825   0.568  1.00  0.00    -0.228 NA
HETATM   13  C   UNL     1      40.707 -14.529  -0.757  1.00  0.00     0.086 A 
HETATM   14  C   UNL     1      40.774 -13.156  -0.955  1.00  0.00     0.062 A 
HETATM   15  C   UNL     1      40.847 -15.388  -1.857  1.00  0.00     0.034 A 
HETATM   16  N   UNL     1      40.575 -12.631   0.293  1.00  0.00    -0.338 N 
HETATM   17  C   UNL     1      40.984 -12.569  -2.204  1.00  0.00     0.032 A 
HETATM   18  H   UNL     1      40.516 -11.650   0.527  1.00  0.00     0.167 HD
HETATM   19  C   UNL     1      41.127 -13.441  -3.290  1.00  0.00     0.002 A 
HETATM   20  C   UNL     1      41.057 -14.826  -3.123  1.00  0.00     0.002 A 
ENDBRANCH   6  11
ENDBRANCH   1   5
BRANCH   2  21
HETATM   21  C   UNL     1      42.599 -17.391   2.976  1.00  0.00     0.034 A 
HETATM   22  C   UNL     1      42.978 -18.581   3.609  1.00  0.00     0.047 A 
HETATM   23  C   UNL     1      43.888 -19.462   3.004  1.00  0.00     0.046 A 
HETATM   24  C   UNL     1      44.394 -19.086   1.745  1.00  0.00     0.030 A 
HETATM   25  C   UNL     1      44.016 -17.889   1.118  1.00  0.00     0.003 A 
HETATM   26  C   UNL     1      43.114 -17.032   1.734  1.00  0.00     0.017 A 
BRANCH  23  27
HETATM   27  N   UNL     1      44.287 -20.681   3.645  1.00  0.00    -0.252 N 
HETATM   28  C   UNL     1      44.648 -20.784   4.973  1.00  0.00     0.231 C 
HETATM   29  O   UNL     1      44.592 -19.944   5.861  1.00  0.00    -0.273 OA
HETATM   30  C   UNL     1      45.166 -22.165   5.235  1.00  0.00     0.113 C 
HETATM   31  C   UNL     1      44.686 -22.957   4.050  1.00  0.00     0.113 C 
HETATM   32  C   UNL     1      44.352 -21.913   3.028  1.00  0.00     0.231 C 
HETATM   33  O   UNL     1      44.165 -22.208   1.855  1.00  0.00    -0.273 OA
ENDBRANCH  23  27
ENDBRANCH   2  21
TORSDOF 4
ENDMDL
MODEL 8
REMARK VINA RESULT:      -9.0      2.993      7.351
REMARK  4 active torsions:
REMARK  status: ('A' for Active; 'I' for Inactive)
REMARK    1  A    between atoms: C_3  and  C_4 
REMARK    2  A    between atoms: C_14  and  N_15 
REMARK       I    between atoms: N_15  and  C_16 
REMARK    3  A    between atoms: C_16  and  C_17 
REMARK    4  A    between atoms: C_19  and  N_20 
ROOT
HETATM    1  N   UNL     1      40.627 -13.661   1.279  1.00  0.00    -0.322 N 
HETATM    2  C   UNL     1      39.500 -13.451   2.044  1.00  0.00     0.256 C 
HETATM    3  O   UNL     1      38.338 -13.362   1.678  1.00  0.00    -0.267 OA
HETATM    4  H   UNL     1      41.518 -13.653   1.767  1.00  0.00     0.169 HD
ENDROOT
BRANCH   1   5
HETATM    5  C   UNL     1      40.675 -14.017  -0.094  1.00  0.00     0.049 A 
HETATM    6  C   UNL     1      41.108 -15.313  -0.463  1.00  0.00     0.037 A 
HETATM    7  C   UNL     1      41.015 -15.717  -1.806  1.00  0.00     0.017 A 
HETATM    8  C   UNL     1      40.546 -14.844  -2.783  1.00  0.00     0.001 A 
HETATM    9  C   UNL     1      40.168 -13.553  -2.429  1.00  0.00     0.002 A 
HETATM   10  C   UNL     1      40.231 -13.143  -1.094  1.00  0.00     0.030 A 
BRANCH   6  11
HETATM   11  C   UNL     1      41.729 -16.242   0.482  1.00  0.00     0.141 A 
HETATM   12  N   UNL     1      41.282 -16.576   1.677  1.00  0.00    -0.228 NA
HETATM   13  C   UNL     1      42.167 -17.506   2.166  1.00  0.00     0.086 A 
HETATM   14  C   UNL     1      43.176 -17.762   1.246  1.00  0.00     0.062 A 
HETATM   15  C   UNL     1      42.170 -18.184   3.393  1.00  0.00     0.034 A 
HETATM   16  N   UNL     1      42.858 -16.970   0.176  1.00  0.00    -0.338 N 
HETATM   17  C   UNL     1      44.216 -18.663   1.477  1.00  0.00     0.032 A 
HETATM   18  H   UNL     1      43.351 -16.928  -0.705  1.00  0.00     0.167 HD
HETATM   19  C   UNL     1      44.207 -19.327   2.710  1.00  0.00     0.002 A 
HETATM   20  C   UNL     1      43.202 -19.096   3.652  1.00  0.00     0.002 A 
ENDBRANCH   6  11
ENDBRANCH   1   5
BRANCH   2  21
HETATM   21  C   UNL     1      39.798 -13.283   3.478  1.00  0.00     0.034 A 
HETATM   22  C   UNL     1      40.675 -14.183   4.095  1.00  0.00     0.047 A 
HETATM   23  C   UNL     1      40.992 -14.063   5.457  1.00  0.00     0.046 A 
HETATM   24  C   UNL     1      40.385 -13.004   6.159  1.00  0.00     0.030 A 
HETATM   25  C   UNL     1      39.502 -12.108   5.537  1.00  0.00     0.003 A 
HETATM   26  C   UNL     1      39.202 -12.245   4.188  1.00  0.00     0.017 A 
BRANCH  23  27
HETATM   27  N   UNL     1      41.884 -14.982   6.102  1.00  0.00    -0.252 N 
HETATM   28  C   UNL     1      41.528 -16.242   6.535  1.00  0.00     0.231 C 
HETATM   29  O   UNL     1      40.483 -16.856   6.367  1.00  0.00    -0.273 OA
HETATM   30  C   UNL     1      42.667 -16.834   7.309  1.00  0.00     0.113 C 
HETATM   31  C   UNL     1      43.842 -15.976   6.928  1.00  0.00     0.113 C 
HETATM   32  C   UNL     1      43.217 -14.737   6.362  1.00  0.00     0.231 C 
HETATM   33  O   UNL     1      43.873 -13.720   6.179  1.00  0.00    -0.273 OA
ENDBRANCH  23  27
ENDBRANCH   2  21
TORSDOF 4
ENDMDL
MODEL 9
REMARK VINA RESULT:      -8.8      4.465      7.730
REMARK  4 active torsions:
REMARK  status: ('A' for Active; 'I' for Inactive)
REMARK    1  A    between atoms: C_3  and  C_4 
REMARK    2  A    between atoms: C_14  and  N_15 
REMARK       I    between atoms: N_15  and  C_16 
REMARK    3  A    between atoms: C_16  and  C_17 
REMARK    4  A    between atoms: C_19  and  N_20 
ROOT
HETATM    1  N   UNL     1      42.219 -15.033   3.810  1.00  0.00    -0.322 N 
HETATM    2  C   UNL     1      42.886 -13.830   3.726  1.00  0.00     0.256 C 
HETATM    3  O   UNL     1      44.072 -13.630   3.511  1.00  0.00    -0.267 OA
HETATM    4  H   UNL     1      41.233 -14.993   4.048  1.00  0.00     0.169 HD
ENDROOT
BRANCH   1   5
HETATM    5  C   UNL     1      42.724 -16.317   3.473  1.00  0.00     0.049 A 
HETATM    6  C   UNL     1      42.605 -16.785   2.144  1.00  0.00     0.037 A 
HETATM    7  C   UNL     1      43.234 -17.987   1.775  1.00  0.00     0.017 A 
HETATM    8  C   UNL     1      43.932 -18.743   2.712  1.00  0.00     0.001 A 
HETATM    9  C   UNL     1      44.007 -18.309   4.030  1.00  0.00     0.002 A 
HETATM   10  C   UNL     1      43.408 -17.103   4.409  1.00  0.00     0.030 A 
BRANCH   6  11
HETATM   11  C   UNL     1      41.784 -16.113   1.134  1.00  0.00     0.141 A 
HETATM   12  N   UNL     1      40.758 -15.313   1.350  1.00  0.00    -0.228 NA
HETATM   13  C   UNL     1      40.342 -14.890   0.111  1.00  0.00     0.086 A 
HETATM   14  C   UNL     1      41.137 -15.431  -0.891  1.00  0.00     0.062 A 
HETATM   15  C   UNL     1      39.288 -14.034  -0.238  1.00  0.00     0.034 A 
HETATM   16  N   UNL     1      42.062 -16.179  -0.213  1.00  0.00    -0.338 N 
HETATM   17  C   UNL     1      40.941 -15.177  -2.249  1.00  0.00     0.032 A 
HETATM   18  H   UNL     1      42.835 -16.687  -0.620  1.00  0.00     0.167 HD
HETATM   19  C   UNL     1      39.881 -14.325  -2.580  1.00  0.00     0.002 A 
HETATM   20  C   UNL     1      39.069 -13.759  -1.594  1.00  0.00     0.002 A 
ENDBRANCH   6  11
ENDBRANCH   1   5
BRANCH   2  21
HETATM   21  C   UNL     1      42.013 -12.667   3.969  1.00  0.00     0.034 A 
HETATM   22  C   UNL     1      41.753 -12.283   5.290  1.00  0.00     0.047 A 
HETATM   23  C   UNL     1      40.931 -11.181   5.573  1.00  0.00     0.046 A 
HETATM   24  C   UNL     1      40.388 -10.496   4.470  1.00  0.00     0.030 A 
HETATM   25  C   UNL     1      40.646 -10.888   3.148  1.00  0.00     0.003 A 
HETATM   26  C   UNL     1      41.463 -11.982   2.891  1.00  0.00     0.017 A 
BRANCH  23  27
HETATM   27  N   UNL     1      40.653 -10.782   6.922  1.00  0.00    -0.252 N 
HETATM   28  C   UNL     1      41.274  -9.734   7.570  1.00  0.00     0.231 C 
HETATM   29  O   UNL     1      42.051  -8.898   7.130  1.00  0.00    -0.273 OA
HETATM   30  C   UNL     1      40.855  -9.731   9.009  1.00  0.00     0.113 C 
HETATM   31  C   UNL     1      39.633 -10.608   9.027  1.00  0.00     0.113 C 
HETATM   32  C   UNL     1      39.723 -11.381   7.746  1.00  0.00     0.231 C 
HETATM   33  O   UNL     1      39.025 -12.367   7.548  1.00  0.00    -0.273 OA
ENDBRANCH  23  27
ENDBRANCH   2  21
TORSDOF 4
ENDMDL
MODEL 10
REMARK VINA RESULT:      -8.7      2.751      3.702
REMARK  4 active torsions:
REMARK  status: ('A' for Active; 'I' for Inactive)
REMARK    1  A    between atoms: C_3  and  C_4 
REMARK    2  A    between atoms: C_14  and  N_15 
REMARK       I    between atoms: N_15  and  C_16 
REMARK    3  A    between atoms: C_16  and  C_17 
REMARK    4  A    between atoms: C_19  and  N_20 
ROOT
HETATM    1  N   UNL     1      42.921 -16.986   1.193  1.00  0.00    -0.322 N 
HETATM    2  C   UNL     1      41.622 -16.932   0.737  1.00  0.00     0.256 C 
HETATM    3  O   UNL     1      40.694 -17.684   0.994  1.00  0.00    -0.267 OA
HETATM    4  H   UNL     1      43.564 -16.293   0.821  1.00  0.00     0.169 HD
ENDROOT
BRANCH   1   5
HETATM    5  C   UNL     1      43.434 -17.818   2.222  1.00  0.00     0.049 A 
HETATM    6  C   UNL     1      43.216 -17.468   3.575  1.00  0.00     0.037 A 
HETATM    7  C   UNL     1      43.590 -18.364   4.591  1.00  0.00     0.017 A 
HETATM    8  C   UNL     1      44.215 -19.570   4.285  1.00  0.00     0.001 A 
HETATM    9  C   UNL     1      44.475 -19.892   2.958  1.00  0.00     0.002 A 
HETATM   10  C   UNL     1      44.087 -19.023   1.933  1.00  0.00     0.030 A 
BRANCH   6  11
HETATM   11  C   UNL     1      42.682 -16.167   3.983  1.00  0.00     0.141 A 
HETATM   12  N   UNL     1      43.057 -14.981   3.542  1.00  0.00    -0.228 NA
HETATM   13  C   UNL     1      42.245 -14.070   4.173  1.00  0.00     0.086 A 
HETATM   14  C   UNL     1      41.341 -14.708   5.012  1.00  0.00     0.062 A 
HETATM   15  C   UNL     1      42.219 -12.671   4.074  1.00  0.00     0.034 A 
HETATM   16  N   UNL     1      41.619 -16.038   4.851  1.00  0.00    -0.338 N 
HETATM   17  C   UNL     1      40.396 -14.029   5.783  1.00  0.00     0.032 A 
HETATM   18  H   UNL     1      41.126 -16.810   5.277  1.00  0.00     0.167 HD
HETATM   19  C   UNL     1      40.388 -12.633   5.677  1.00  0.00     0.002 A 
HETATM   20  C   UNL     1      41.280 -11.963   4.836  1.00  0.00     0.002 A 
ENDBRANCH   6  11
ENDBRANCH   1   5
BRANCH   2  21
HETATM   21  C   UNL     1      41.386 -15.825  -0.207  1.00  0.00     0.034 A 
HETATM   22  C   UNL     1      41.388 -14.512   0.278  1.00  0.00     0.047 A 
HETATM   23  C   UNL     1      41.171 -13.425  -0.583  1.00  0.00     0.046 A 
HETATM   24  C   UNL     1      40.951 -13.724  -1.941  1.00  0.00     0.030 A 
HETATM   25  C   UNL     1      40.945 -15.043  -2.421  1.00  0.00     0.003 A 
HETATM   26  C   UNL     1      41.161 -16.104  -1.552  1.00  0.00     0.017 A 
BRANCH  23  27
HETATM   27  N   UNL     1      41.165 -12.075  -0.096  1.00  0.00    -0.252 N 
HETATM   28  C   UNL     1      42.231 -11.205  -0.194  1.00  0.00     0.231 C 
HETATM   29  O   UNL     1      43.294 -11.340  -0.784  1.00  0.00    -0.273 OA
HETATM   30  C   UNL     1      41.917  -9.957   0.574  1.00  0.00     0.113 C 
HETATM   31  C   UNL     1      40.427 -10.024   0.770  1.00  0.00     0.113 C 
HETATM   32  C   UNL     1      40.093 -11.464   0.521  1.00  0.00     0.231 C 
HETATM   33  O   UNL     1      39.006 -11.929   0.836  1.00  0.00    -0.273 OA
ENDBRANCH  23  27
ENDBRANCH   2  21
TORSDOF 4
ENDMDL
