MODEL 1
REMARK VINA RESULT:      -7.9      0.000      0.000
REMARK  5 active torsions:
REMARK  status: ('A' for Active; 'I' for Inactive)
REMARK    1  A    between atoms: C_2  and  C_3 
REMARK    2  A    between atoms: C_3  and  N_4 
REMARK       I    between atoms: N_4  and  C_5 
REMARK    3  A    between atoms: C_5  and  C_6 
REMARK    4  A    between atoms: C_10  and  N_11 
REMARK       I    between atoms: N_11  and  C_12 
REMARK       I    between atoms: C_12  and  N_13 
REMARK    5  A    between atoms: N_13  and  C_14 
ROOT
HETATM    1  C   UNL     1      44.016 -19.244   3.815  1.00  0.00     0.053 A 
HETATM    2  C   UNL     1      43.841 -19.892   2.587  1.00  0.00     0.051 A 
HETATM    3 CL   UNL     1      44.011 -21.602   2.382  1.00  0.00    -0.083 Cl
HETATM    4  C   UNL     1      43.524 -19.151   1.439  1.00  0.00     0.054 A 
HETATM    5  C   UNL     1      43.378 -17.762   1.498  1.00  0.00     0.038 A 
HETATM    6  C   UNL     1      43.634 -17.109   2.707  1.00  0.00     0.030 A 
HETATM    7  C   UNL     1      43.948 -17.842   3.855  1.00  0.00     0.021 A 
ENDROOT
BRANCH   5   8
HETATM    8  N   UNL     1      42.953 -16.966   0.413  1.00  0.00    -0.309 N 
HETATM    9  C   UNL     1      41.695 -16.403   0.241  1.00  0.00     0.325 C 
HETATM   10  N   UNL     1      41.681 -15.585  -0.874  1.00  0.00    -0.305 N 
HETATM   11  O   UNL     1      40.745 -16.582   0.989  1.00  0.00    -0.247 OA
HETATM   12  H   UNL     1      42.339 -15.798  -1.606  1.00  0.00     0.171 HD
HETATM   13  H   UNL     1      43.684 -16.579  -0.166  1.00  0.00     0.170 HD
BRANCH  10  14
HETATM   14  C   UNL     1      40.709 -14.648  -1.188  1.00  0.00     0.086 A 
HETATM   15  C   UNL     1      40.274 -13.440  -0.564  1.00  0.00     0.079 A 
HETATM   16  C   UNL     1      40.754 -12.759   0.666  1.00  0.00     0.075 C 
HETATM   17  N   UNL     1      39.302 -12.847  -1.274  1.00  0.00    -0.177 NA
HETATM   18  N   UNL     1      39.126 -13.646  -2.328  1.00  0.00    -0.280 N 
HETATM   19  H   UNL     1      38.426 -13.380  -3.013  1.00  0.00     0.189 HD
HETATM   20  C   UNL     1      39.954 -14.732  -2.344  1.00  0.00     0.052 A 
HETATM   21  C   UNL     1      39.923 -15.709  -3.457  1.00  0.00     0.072 C 
ENDBRANCH  10  14
ENDBRANCH   5   8
BRANCH   1  22
HETATM   22  C   UNL     1      44.216 -19.924   5.124  1.00  0.00     0.253 C 
HETATM   23  N   UNL     1      43.535 -19.406   6.201  1.00  0.00    -0.357 N 
HETATM   24  H   UNL     1      42.901 -18.629   6.059  1.00  0.00     0.162 HD
HETATM   25  O   UNL     1      45.030 -20.837   5.218  1.00  0.00    -0.268 OA
BRANCH  23  26
HETATM   26  C   UNL     1      43.809 -19.812   7.563  1.00  0.00     0.122 C 
BRANCH  26  27
HETATM   27  C   UNL     1      44.158 -18.622   8.457  1.00  0.00     0.015 C 
HETATM   28  C   UNL     1      43.389 -17.361   8.087  1.00  0.00     0.006 C 
ENDBRANCH  26  27
ENDBRANCH  23  26
ENDBRANCH   1  22
TORSDOF 5
ENDMDL
MODEL 2
REMARK VINA RESULT:      -7.6      2.297      2.771
REMARK  5 active torsions:
REMARK  status: ('A' for Active; 'I' for Inactive)
REMARK    1  A    between atoms: C_2  and  C_3 
REMARK    2  A    between atoms: C_3  and  N_4 
REMARK       I    between atoms: N_4  and  C_5 
REMARK    3  A    between atoms: C_5  and  C_6 
REMARK    4  A    between atoms: C_10  and  N_11 
REMARK       I    between atoms: N_11  and  C_12 
REMARK       I    between atoms: C_12  and  N_13 
REMARK    5  A    between atoms: N_13  and  C_14 
ROOT
HETATM    1  C   UNL     1      42.923 -18.177   3.404  1.00  0.00     0.053 A 
HETATM    2  C   UNL     1      41.839 -17.500   3.975  1.00  0.00     0.051 A 
HETATM    3 CL   UNL     1      41.552 -17.431   5.680  1.00  0.00    -0.083 Cl
HETATM    4  C   UNL     1      40.909 -16.843   3.155  1.00  0.00     0.054 A 
HETATM    5  C   UNL     1      41.045 -16.852   1.764  1.00  0.00     0.038 A 
HETATM    6  C   UNL     1      42.080 -17.598   1.194  1.00  0.00     0.030 A 
HETATM    7  C   UNL     1      43.012 -18.252   2.005  1.00  0.00     0.021 A 
ENDROOT
BRANCH   5   8
HETATM    8  N   UNL     1      40.215 -16.124   0.885  1.00  0.00    -0.309 N 
HETATM    9  C   UNL     1      40.585 -15.036   0.105  1.00  0.00     0.325 C 
HETATM   10  N   UNL     1      39.545 -14.660  -0.723  1.00  0.00    -0.305 N 
HETATM   11  O   UNL     1      41.689 -14.509   0.127  1.00  0.00    -0.247 OA
HETATM   12  H   UNL     1      38.611 -14.872  -0.410  1.00  0.00     0.171 HD
HETATM   13  H   UNL     1      39.347 -16.569   0.624  1.00  0.00     0.170 HD
BRANCH  10  14
HETATM   14  C   UNL     1      39.638 -13.821  -1.823  1.00  0.00     0.086 A 
HETATM   15  C   UNL     1      39.739 -12.405  -1.970  1.00  0.00     0.079 A 
HETATM   16  C   UNL     1      39.797 -11.328  -0.949  1.00  0.00     0.075 C 
HETATM   17  N   UNL     1      39.838 -12.054  -3.261  1.00  0.00    -0.177 NA
HETATM   18  N   UNL     1      39.812 -13.213  -3.923  1.00  0.00    -0.280 N 
HETATM   19  H   UNL     1      39.881 -13.183  -4.935  1.00  0.00     0.189 HD
HETATM   20  C   UNL     1      39.714 -14.310  -3.114  1.00  0.00     0.052 A 
HETATM   21  C   UNL     1      39.707 -15.681  -3.674  1.00  0.00     0.072 C 
ENDBRANCH  10  14
ENDBRANCH   5   8
BRANCH   1  22
HETATM   22  C   UNL     1      44.047 -18.792   4.162  1.00  0.00     0.253 C 
HETATM   23  N   UNL     1      44.318 -20.114   3.902  1.00  0.00    -0.357 N 
HETATM   24  H   UNL     1      43.787 -20.598   3.188  1.00  0.00     0.162 HD
HETATM   25  O   UNL     1      44.617 -18.145   5.036  1.00  0.00    -0.268 OA
BRANCH  23  26
HETATM   26  C   UNL     1      45.218 -20.899   4.720  1.00  0.00     0.122 C 
BRANCH  26  27
HETATM   27  C   UNL     1      44.466 -21.853   5.647  1.00  0.00     0.015 C 
HETATM   28  C   UNL     1      43.780 -21.136   6.802  1.00  0.00     0.006 C 
ENDBRANCH  26  27
ENDBRANCH  23  26
ENDBRANCH   1  22
TORSDOF 5
ENDMDL
MODEL 3
REMARK VINA RESULT:      -7.6      1.714      1.984
REMARK  5 active torsions:
REMARK  status: ('A' for Active; 'I' for Inactive)
REMARK    1  A    between atoms: C_2  and  C_3 
REMARK    2  A    between atoms: C_3  and  N_4 
REMARK       I    between atoms: N_4  and  C_5 
REMARK    3  A    between atoms: C_5  and  C_6 
REMARK    4  A    between atoms: C_10  and  N_11 
REMARK       I    between atoms: N_11  and  C_12 
REMARK       I    between atoms: C_12  and  N_13 
REMARK    5  A    between atoms: N_13  and  C_14 
ROOT
HETATM    1  C   UNL     1      43.568 -18.245   3.833  1.00  0.00     0.053 A 
HETATM    2  C   UNL     1      43.357 -16.868   3.704  1.00  0.00     0.051 A 
HETATM    3 CL   UNL     1      43.536 -15.751   5.013  1.00  0.00    -0.083 Cl
HETATM    4  C   UNL     1      42.966 -16.330   2.468  1.00  0.00     0.054 A 
HETATM    5  C   UNL     1      42.780 -17.151   1.353  1.00  0.00     0.038 A 
HETATM    6  C   UNL     1      42.912 -18.534   1.506  1.00  0.00     0.030 A 
HETATM    7  C   UNL     1      43.304 -19.076   2.733  1.00  0.00     0.021 A 
ENDROOT
BRANCH   5   8
HETATM    8  N   UNL     1      42.497 -16.670   0.057  1.00  0.00    -0.309 N 
HETATM    9  C   UNL     1      41.429 -15.863  -0.313  1.00  0.00     0.325 C 
HETATM   10  N   UNL     1      41.543 -15.488  -1.638  1.00  0.00    -0.305 N 
HETATM   11  O   UNL     1      40.532 -15.510   0.439  1.00  0.00    -0.247 OA
HETATM   12  H   UNL     1      42.055 -16.107  -2.246  1.00  0.00     0.171 HD
HETATM   13  H   UNL     1      43.254 -16.719  -0.610  1.00  0.00     0.170 HD
BRANCH  10  14
HETATM   14  C   UNL     1      40.838 -14.472  -2.264  1.00  0.00     0.086 A 
HETATM   15  C   UNL     1      40.878 -13.048  -2.168  1.00  0.00     0.079 A 
HETATM   16  C   UNL     1      41.735 -12.158  -1.343  1.00  0.00     0.075 C 
HETATM   17  N   UNL     1      40.008 -12.477  -3.014  1.00  0.00    -0.177 NA
HETATM   18  N   UNL     1      39.435 -13.504  -3.644  1.00  0.00    -0.280 N 
HETATM   19  H   UNL     1      38.733 -13.298  -4.347  1.00  0.00     0.189 HD
HETATM   20  C   UNL     1      39.905 -14.726  -3.253  1.00  0.00     0.052 A 
HETATM   21  C   UNL     1      39.408 -15.977  -3.870  1.00  0.00     0.072 C 
ENDBRANCH  10  14
ENDBRANCH   5   8
BRANCH   1  22
HETATM   22  C   UNL     1      44.115 -18.920   5.042  1.00  0.00     0.253 C 
HETATM   23  N   UNL     1      43.247 -19.105   6.093  1.00  0.00    -0.357 N 
HETATM   24  H   UNL     1      42.279 -18.825   5.992  1.00  0.00     0.162 HD
HETATM   25  O   UNL     1      45.309 -19.196   5.098  1.00  0.00    -0.268 OA
BRANCH  23  26
HETATM   26  C   UNL     1      43.692 -19.531   7.403  1.00  0.00     0.122 C 
BRANCH  26  27
HETATM   27  C   UNL     1      44.228 -18.364   8.233  1.00  0.00     0.015 C 
HETATM   28  C   UNL     1      43.292 -17.162   8.235  1.00  0.00     0.006 C 
ENDBRANCH  26  27
ENDBRANCH  23  26
ENDBRANCH   1  22
TORSDOF 5
ENDMDL
MODEL 4
REMARK VINA RESULT:      -7.3      2.284      3.179
REMARK  5 active torsions:
REMARK  status: ('A' for Active; 'I' for Inactive)
REMARK    1  A    between atoms: C_2  and  C_3 
REMARK    2  A    between atoms: C_3  and  N_4 
REMARK       I    between atoms: N_4  and  C_5 
REMARK    3  A    between atoms: C_5  and  C_6 
REMARK    4  A    between atoms: C_10  and  N_11 
REMARK       I    between atoms: N_11  and  C_12 
REMARK       I    between atoms: C_12  and  N_13 
REMARK    5  A    between atoms: N_13  and  C_14 
ROOT
HETATM    1  C   UNL     1      42.928 -18.303   3.569  1.00  0.00     0.053 A 
HETATM    2  C   UNL     1      41.931 -17.549   4.200  1.00  0.00     0.051 A 
HETATM    3 CL   UNL     1      41.783 -17.419   5.919  1.00  0.00    -0.083 Cl
HETATM    4  C   UNL     1      40.978 -16.861   3.434  1.00  0.00     0.054 A 
HETATM    5  C   UNL     1      41.005 -16.914   2.037  1.00  0.00     0.038 A 
HETATM    6  C   UNL     1      41.949 -17.733   1.412  1.00  0.00     0.030 A 
HETATM    7  C   UNL     1      42.903 -18.418   2.170  1.00  0.00     0.021 A 
ENDROOT
BRANCH   5   8
HETATM    8  N   UNL     1      40.151 -16.162   1.203  1.00  0.00    -0.309 N 
HETATM    9  C   UNL     1      40.509 -15.078   0.412  1.00  0.00     0.325 C 
HETATM   10  N   UNL     1      39.439 -14.672  -0.364  1.00  0.00    -0.305 N 
HETATM   11  O   UNL     1      41.623 -14.575   0.384  1.00  0.00    -0.247 OA
HETATM   12  H   UNL     1      38.517 -14.866  -0.008  1.00  0.00     0.171 HD
HETATM   13  H   UNL     1      39.262 -16.586   0.980  1.00  0.00     0.170 HD
BRANCH  10  14
HETATM   14  C   UNL     1      39.499 -13.829  -1.462  1.00  0.00     0.086 A 
HETATM   15  C   UNL     1      39.608 -14.057  -2.868  1.00  0.00     0.079 A 
HETATM   16  C   UNL     1      39.679 -15.324  -3.640  1.00  0.00     0.075 C 
HETATM   17  N   UNL     1      39.596 -12.902  -3.552  1.00  0.00    -0.177 NA
HETATM   18  N   UNL     1      39.472 -11.962  -2.613  1.00  0.00    -0.280 N 
HETATM   19  H   UNL     1      39.436 -10.994  -2.914  1.00  0.00     0.189 HD
HETATM   20  C   UNL     1      39.388 -12.456  -1.341  1.00  0.00     0.052 A 
HETATM   21  C   UNL     1      39.211 -11.559  -0.176  1.00  0.00     0.072 C 
ENDBRANCH  10  14
ENDBRANCH   5   8
BRANCH   1  22
HETATM   22  C   UNL     1      44.072 -18.962   4.257  1.00  0.00     0.253 C 
HETATM   23  N   UNL     1      44.252 -20.302   4.011  1.00  0.00    -0.357 N 
HETATM   24  H   UNL     1      43.644 -20.772   3.350  1.00  0.00     0.162 HD
HETATM   25  O   UNL     1      44.739 -18.330   5.070  1.00  0.00    -0.268 OA
BRANCH  23  26
HETATM   26  C   UNL     1      45.168 -21.118   4.780  1.00  0.00     0.122 C 
BRANCH  26  27
HETATM   27  C   UNL     1      44.437 -22.008   5.785  1.00  0.00     0.015 C 
HETATM   28  C   UNL     1      43.747 -21.212   6.884  1.00  0.00     0.006 C 
ENDBRANCH  26  27
ENDBRANCH  23  26
ENDBRANCH   1  22
TORSDOF 5
ENDMDL
MODEL 5
REMARK VINA RESULT:      -7.3      2.360      3.142
REMARK  5 active torsions:
REMARK  status: ('A' for Active; 'I' for Inactive)
REMARK    1  A    between atoms: C_2  and  C_3 
REMARK    2  A    between atoms: C_3  and  N_4 
REMARK       I    between atoms: N_4  and  C_5 
REMARK    3  A    between atoms: C_5  and  C_6 
REMARK    4  A    between atoms: C_10  and  N_11 
REMARK       I    between atoms: N_11  and  C_12 
REMARK       I    between atoms: C_12  and  N_13 
REMARK    5  A    between atoms: N_13  and  C_14 
ROOT
HETATM    1  C   UNL     1      43.179 -18.198   3.108  1.00  0.00     0.053 A 
HETATM    2  C   UNL     1      41.897 -17.684   3.332  1.00  0.00     0.051 A 
HETATM    3 CL   UNL     1      41.075 -17.806   4.850  1.00  0.00    -0.083 Cl
HETATM    4  C   UNL     1      41.205 -17.042   2.294  1.00  0.00     0.054 A 
HETATM    5  C   UNL     1      41.778 -16.905   1.026  1.00  0.00     0.038 A 
HETATM    6  C   UNL     1      43.022 -17.492   0.782  1.00  0.00     0.030 A 
HETATM    7  C   UNL     1      43.718 -18.130   1.813  1.00  0.00     0.021 A 
ENDROOT
BRANCH   5   8
HETATM    8  N   UNL     1      41.190 -16.177  -0.031  1.00  0.00    -0.309 N 
HETATM    9  C   UNL     1      40.895 -14.820  -0.039  1.00  0.00     0.325 C 
HETATM   10  N   UNL     1      40.443 -14.432  -1.287  1.00  0.00    -0.305 N 
HETATM   11  O   UNL     1      41.045 -14.070   0.915  1.00  0.00    -0.247 OA
HETATM   12  H   UNL     1      39.999 -15.137  -1.852  1.00  0.00     0.171 HD
HETATM   13  H   UNL     1      41.200 -16.624  -0.936  1.00  0.00     0.170 HD
BRANCH  10  14
HETATM   14  C   UNL     1      40.333 -13.129  -1.747  1.00  0.00     0.086 A 
HETATM   15  C   UNL     1      39.288 -12.157  -1.696  1.00  0.00     0.079 A 
HETATM   16  C   UNL     1      37.933 -12.225  -1.093  1.00  0.00     0.075 C 
HETATM   17  N   UNL     1      39.669 -11.002  -2.263  1.00  0.00    -0.177 NA
HETATM   18  N   UNL     1      40.925 -11.223  -2.656  1.00  0.00    -0.280 N 
HETATM   19  H   UNL     1      41.418 -10.465  -3.115  1.00  0.00     0.189 HD
HETATM   20  C   UNL     1      41.387 -12.474  -2.357  1.00  0.00     0.052 A 
HETATM   21  C   UNL     1      42.771 -12.884  -2.688  1.00  0.00     0.072 C 
ENDBRANCH  10  14
ENDBRANCH   5   8
BRANCH   1  22
HETATM   22  C   UNL     1      44.068 -18.774   4.154  1.00  0.00     0.253 C 
HETATM   23  N   UNL     1      44.242 -20.138   4.135  1.00  0.00    -0.357 N 
HETATM   24  H   UNL     1      43.808 -20.683   3.401  1.00  0.00     0.162 HD
HETATM   25  O   UNL     1      44.528 -18.048   5.030  1.00  0.00    -0.268 OA
BRANCH  23  26
HETATM   26  C   UNL     1      44.883 -20.855   5.218  1.00  0.00     0.122 C 
BRANCH  26  27
HETATM   27  C   UNL     1      44.950 -22.358   4.949  1.00  0.00     0.015 C 
HETATM   28  C   UNL     1      44.630 -22.714   3.503  1.00  0.00     0.006 C 
ENDBRANCH  26  27
ENDBRANCH  23  26
ENDBRANCH   1  22
TORSDOF 5
ENDMDL
MODEL 6
REMARK VINA RESULT:      -7.1      3.813      5.060
REMARK  5 active torsions:
REMARK  status: ('A' for Active; 'I' for Inactive)
REMARK    1  A    between atoms: C_2  and  C_3 
REMARK    2  A    between atoms: C_3  and  N_4 
REMARK       I    between atoms: N_4  and  C_5 
REMARK    3  A    between atoms: C_5  and  C_6 
REMARK    4  A    between atoms: C_10  and  N_11 
REMARK       I    between atoms: N_11  and  C_12 
REMARK       I    between atoms: C_12  and  N_13 
REMARK    5  A    between atoms: N_13  and  C_14 
ROOT
HETATM    1  C   UNL     1      43.276 -18.144   4.721  1.00  0.00     0.053 A 
HETATM    2  C   UNL     1      43.570 -16.953   5.395  1.00  0.00     0.051 A 
HETATM    3 CL   UNL     1      44.688 -16.857   6.712  1.00  0.00    -0.083 Cl
HETATM    4  C   UNL     1      42.937 -15.759   5.021  1.00  0.00     0.054 A 
HETATM    5  C   UNL     1      42.007 -15.734   3.977  1.00  0.00     0.038 A 
HETATM    6  C   UNL     1      41.654 -16.938   3.362  1.00  0.00     0.030 A 
HETATM    7  C   UNL     1      42.284 -18.131   3.728  1.00  0.00     0.021 A 
ENDROOT
BRANCH   5   8
HETATM    8  N   UNL     1      41.416 -14.556   3.474  1.00  0.00    -0.309 N 
HETATM    9  C   UNL     1      40.266 -13.937   3.949  1.00  0.00     0.325 C 
HETATM   10  N   UNL     1      40.058 -12.738   3.294  1.00  0.00    -0.305 N 
HETATM   11  O   UNL     1      39.557 -14.379   4.842  1.00  0.00    -0.247 OA
HETATM   12  H   UNL     1      40.434 -12.654   2.363  1.00  0.00     0.171 HD
HETATM   13  H   UNL     1      41.998 -13.987   2.877  1.00  0.00     0.170 HD
BRANCH  10  14
HETATM   14  C   UNL     1      39.195 -11.729   3.691  1.00  0.00     0.086 A 
HETATM   15  C   UNL     1      39.113 -10.914   4.861  1.00  0.00     0.079 A 
HETATM   16  C   UNL     1      39.970 -10.873   6.073  1.00  0.00     0.075 C 
HETATM   17  N   UNL     1      38.103 -10.035   4.773  1.00  0.00    -0.177 NA
HETATM   18  N   UNL     1      37.561 -10.271   3.577  1.00  0.00    -0.280 N 
HETATM   19  H   UNL     1      36.768  -9.703   3.295  1.00  0.00     0.189 HD
HETATM   20  C   UNL     1      38.184 -11.261   2.871  1.00  0.00     0.052 A 
HETATM   21  C   UNL     1      37.740 -11.634   1.509  1.00  0.00     0.072 C 
ENDBRANCH  10  14
ENDBRANCH   5   8
BRANCH   1  22
HETATM   22  C   UNL     1      43.975 -19.443   4.927  1.00  0.00     0.253 C 
HETATM   23  N   UNL     1      44.455 -20.071   3.802  1.00  0.00    -0.357 N 
HETATM   24  H   UNL     1      44.360 -19.618   2.901  1.00  0.00     0.162 HD
HETATM   25  O   UNL     1      44.016 -19.941   6.047  1.00  0.00    -0.268 OA
BRANCH  23  26
HETATM   26  C   UNL     1      44.944 -21.434   3.822  1.00  0.00     0.122 C 
BRANCH  26  27
HETATM   27  C   UNL     1      44.501 -22.220   2.587  1.00  0.00     0.015 C 
HETATM   28  C   UNL     1      43.559 -21.427   1.691  1.00  0.00     0.006 C 
ENDBRANCH  26  27
ENDBRANCH  23  26
ENDBRANCH   1  22
TORSDOF 5
ENDMDL
MODEL 7
REMARK VINA RESULT:      -7.0      3.294      9.003
REMARK  5 active torsions:
REMARK  status: ('A' for Active; 'I' for Inactive)
REMARK    1  A    between atoms: C_2  and  C_3 
REMARK    2  A    between atoms: C_3  and  N_4 
REMARK       I    between atoms: N_4  and  C_5 
REMARK    3  A    between atoms: C_5  and  C_6 
REMARK    4  A    between atoms: C_10  and  N_11 
REMARK       I    between atoms: N_11  and  C_12 
REMARK       I    between atoms: C_12  and  N_13 
REMARK    5  A    between atoms: N_13  and  C_14 
ROOT
HETATM    1  C   UNL     1      41.203 -13.658  -1.159  1.00  0.00     0.053 A 
HETATM    2  C   UNL     1      41.679 -13.521   0.150  1.00  0.00     0.051 A 
HETATM    3 CL   UNL     1      42.011 -11.991   0.886  1.00  0.00    -0.083 Cl
HETATM    4  C   UNL     1      41.926 -14.660   0.932  1.00  0.00     0.054 A 
HETATM    5  C   UNL     1      41.702 -15.943   0.423  1.00  0.00     0.038 A 
HETATM    6  C   UNL     1      41.306 -16.079  -0.910  1.00  0.00     0.030 A 
HETATM    7  C   UNL     1      41.056 -14.948  -1.693  1.00  0.00     0.021 A 
ENDROOT
BRANCH   5   8
HETATM    8  N   UNL     1      41.821 -17.125   1.184  1.00  0.00    -0.309 N 
HETATM    9  C   UNL     1      43.000 -17.775   1.529  1.00  0.00     0.325 C 
HETATM   10  N   UNL     1      42.737 -18.829   2.384  1.00  0.00    -0.305 N 
HETATM   11  O   UNL     1      44.114 -17.440   1.151  1.00  0.00    -0.247 OA
HETATM   12  H   UNL     1      41.825 -19.251   2.323  1.00  0.00     0.171 HD
HETATM   13  H   UNL     1      41.007 -17.392   1.719  1.00  0.00     0.170 HD
BRANCH  10  14
HETATM   14  C   UNL     1      43.669 -19.509   3.152  1.00  0.00     0.086 A 
HETATM   15  C   UNL     1      44.304 -19.228   4.400  1.00  0.00     0.079 A 
HETATM   16  C   UNL     1      44.152 -18.076   5.324  1.00  0.00     0.075 C 
HETATM   17  N   UNL     1      45.127 -20.224   4.763  1.00  0.00    -0.177 NA
HETATM   18  N   UNL     1      45.015 -21.122   3.783  1.00  0.00    -0.280 N 
HETATM   19  H   UNL     1      45.559 -21.975   3.858  1.00  0.00     0.189 HD
HETATM   20  C   UNL     1      44.140 -20.760   2.798  1.00  0.00     0.052 A 
HETATM   21  C   UNL     1      43.863 -21.652   1.648  1.00  0.00     0.072 C 
ENDBRANCH  10  14
ENDBRANCH   5   8
BRANCH   1  22
HETATM   22  C   UNL     1      40.773 -12.536  -2.038  1.00  0.00     0.253 C 
HETATM   23  N   UNL     1      41.757 -11.906  -2.762  1.00  0.00    -0.357 N 
HETATM   24  H   UNL     1      42.709 -12.249  -2.708  1.00  0.00     0.162 HD
HETATM   25  O   UNL     1      39.605 -12.160  -2.018  1.00  0.00    -0.268 OA
BRANCH  23  26
HETATM   26  C   UNL     1      41.528 -10.665  -3.471  1.00  0.00     0.122 C 
BRANCH  26  27
HETATM   27  C   UNL     1      42.515  -9.575  -3.055  1.00  0.00     0.015 C 
HETATM   28  C   UNL     1      43.388  -9.989  -1.878  1.00  0.00     0.006 C 
ENDBRANCH  26  27
ENDBRANCH  23  26
ENDBRANCH   1  22
TORSDOF 5
ENDMDL
MODEL 8
REMARK VINA RESULT:      -6.9      2.641      3.537
REMARK  5 active torsions:
REMARK  status: ('A' for Active; 'I' for Inactive)
REMARK    1  A    between atoms: C_2  and  C_3 
REMARK    2  A    between atoms: C_3  and  N_4 
REMARK       I    between atoms: N_4  and  C_5 
REMARK    3  A    between atoms: C_5  and  C_6 
REMARK    4  A    between atoms: C_10  and  N_11 
REMARK       I    between atoms: N_11  and  C_12 
REMARK       I    between atoms: C_12  and  N_13 
REMARK    5  A    between atoms: N_13  and  C_14 
ROOT
HETATM    1  C   UNL     1      43.242 -18.178   4.919  1.00  0.00     0.053 A 
HETATM    2  C   UNL     1      43.584 -16.901   5.380  1.00  0.00     0.051 A 
HETATM    3 CL   UNL     1      44.727 -16.623   6.649  1.00  0.00    -0.083 Cl
HETATM    4  C   UNL     1      42.981 -15.766   4.818  1.00  0.00     0.054 A 
HETATM    5  C   UNL     1      42.035 -15.885   3.797  1.00  0.00     0.038 A 
HETATM    6  C   UNL     1      41.635 -17.163   3.396  1.00  0.00     0.030 A 
HETATM    7  C   UNL     1      42.234 -18.298   3.949  1.00  0.00     0.021 A 
ENDROOT
BRANCH   5   8
HETATM    8  N   UNL     1      41.471 -14.789   3.110  1.00  0.00    -0.309 N 
HETATM    9  C   UNL     1      41.493 -14.569   1.739  1.00  0.00     0.325 C 
HETATM   10  N   UNL     1      40.734 -13.459   1.416  1.00  0.00    -0.305 N 
HETATM   11  O   UNL     1      42.076 -15.278   0.930  1.00  0.00    -0.247 OA
HETATM   12  H   UNL     1      40.631 -12.753   2.127  1.00  0.00     0.171 HD
HETATM   13  H   UNL     1      40.798 -14.241   3.626  1.00  0.00     0.170 HD
BRANCH  10  14
HETATM   14  C   UNL     1      40.293 -13.112   0.149  1.00  0.00     0.086 A 
HETATM   15  C   UNL     1      40.935 -12.536  -0.989  1.00  0.00     0.079 A 
HETATM   16  C   UNL     1      42.346 -12.123  -1.197  1.00  0.00     0.075 C 
HETATM   17  N   UNL     1      40.085 -12.414  -2.020  1.00  0.00    -0.177 NA
HETATM   18  N   UNL     1      38.933 -12.907  -1.559  1.00  0.00    -0.280 N 
HETATM   19  H   UNL     1      38.137 -12.917  -2.188  1.00  0.00     0.189 HD
HETATM   20  C   UNL     1      38.999 -13.360  -0.272  1.00  0.00     0.052 A 
HETATM   21  C   UNL     1      37.825 -13.973   0.391  1.00  0.00     0.072 C 
ENDBRANCH  10  14
ENDBRANCH   5   8
BRANCH   1  22
HETATM   22  C   UNL     1      43.904 -19.446   5.331  1.00  0.00     0.253 C 
HETATM   23  N   UNL     1      44.513 -20.177   4.338  1.00  0.00    -0.357 N 
HETATM   24  H   UNL     1      44.529 -19.813   3.393  1.00  0.00     0.162 HD
HETATM   25  O   UNL     1      43.807 -19.834   6.491  1.00  0.00    -0.268 OA
BRANCH  23  26
HETATM   26  C   UNL     1      44.988 -21.528   4.547  1.00  0.00     0.122 C 
BRANCH  26  27
HETATM   27  C   UNL     1      44.553 -22.470   3.424  1.00  0.00     0.015 C 
HETATM   28  C   UNL     1      44.073 -21.726   2.185  1.00  0.00     0.006 C 
ENDBRANCH  26  27
ENDBRANCH  23  26
ENDBRANCH   1  22
TORSDOF 5
ENDMDL
MODEL 9
REMARK VINA RESULT:      -6.8      1.225      2.047
REMARK  5 active torsions:
REMARK  status: ('A' for Active; 'I' for Inactive)
REMARK    1  A    between atoms: C_2  and  C_3 
REMARK    2  A    between atoms: C_3  and  N_4 
REMARK       I    between atoms: N_4  and  C_5 
REMARK    3  A    between atoms: C_5  and  C_6 
REMARK    4  A    between atoms: C_10  and  N_11 
REMARK       I    between atoms: N_11  and  C_12 
REMARK       I    between atoms: C_12  and  N_13 
REMARK    5  A    between atoms: N_13  and  C_14 
ROOT
HETATM    1  C   UNL     1      43.627 -17.952   3.710  1.00  0.00     0.053 A 
HETATM    2  C   UNL     1      43.641 -18.771   2.575  1.00  0.00     0.051 A 
HETATM    3 CL   UNL     1      44.093 -20.440   2.613  1.00  0.00    -0.083 Cl
HETATM    4  C   UNL     1      43.290 -18.243   1.323  1.00  0.00     0.054 A 
HETATM    5  C   UNL     1      42.923 -16.902   1.186  1.00  0.00     0.038 A 
HETATM    6  C   UNL     1      42.989 -16.068   2.305  1.00  0.00     0.030 A 
HETATM    7  C   UNL     1      43.335 -16.587   3.556  1.00  0.00     0.021 A 
ENDROOT
BRANCH   5   8
HETATM    8  N   UNL     1      42.453 -16.332  -0.016  1.00  0.00    -0.309 N 
HETATM    9  C   UNL     1      41.300 -15.574  -0.179  1.00  0.00     0.325 C 
HETATM   10  N   UNL     1      41.226 -15.079  -1.467  1.00  0.00    -0.305 N 
HETATM   11  O   UNL     1      40.483 -15.353   0.704  1.00  0.00    -0.247 OA
HETATM   12  H   UNL     1      41.695 -15.604  -2.187  1.00  0.00     0.171 HD
HETATM   13  H   UNL     1      43.122 -16.268  -0.769  1.00  0.00     0.170 HD
BRANCH  10  14
HETATM   14  C   UNL     1      40.389 -14.065  -1.907  1.00  0.00     0.086 A 
HETATM   15  C   UNL     1      39.214 -14.047  -2.718  1.00  0.00     0.079 A 
HETATM   16  C   UNL     1      38.470 -15.156  -3.367  1.00  0.00     0.075 C 
HETATM   17  N   UNL     1      38.726 -12.803  -2.843  1.00  0.00    -0.177 NA
HETATM   18  N   UNL     1      39.558 -12.047  -2.123  1.00  0.00    -0.280 N 
HETATM   19  H   UNL     1      39.370 -11.051  -2.073  1.00  0.00     0.189 HD
HETATM   20  C   UNL     1      40.563 -12.749  -1.520  1.00  0.00     0.052 A 
HETATM   21  C   UNL     1      41.559 -12.078  -0.653  1.00  0.00     0.072 C 
ENDBRANCH  10  14
ENDBRANCH   5   8
BRANCH   1  22
HETATM   22  C   UNL     1      43.842 -18.417   5.108  1.00  0.00     0.253 C 
HETATM   23  N   UNL     1      42.914 -18.020   6.042  1.00  0.00    -0.357 N 
HETATM   24  H   UNL     1      42.112 -17.478   5.745  1.00  0.00     0.162 HD
HETATM   25  O   UNL     1      44.859 -19.042   5.392  1.00  0.00    -0.268 OA
BRANCH  23  26
HETATM   26  C   UNL     1      43.117 -18.199   7.464  1.00  0.00     0.122 C 
BRANCH  26  27
HETATM   27  C   UNL     1      43.808 -16.993   8.101  1.00  0.00     0.015 C 
HETATM   28  C   UNL     1      43.725 -15.742   7.237  1.00  0.00     0.006 C 
ENDBRANCH  26  27
ENDBRANCH  23  26
ENDBRANCH   1  22
TORSDOF 5
ENDMDL
MODEL 10
REMARK VINA RESULT:      -6.8      2.794      3.799
REMARK  5 active torsions:
REMARK  status: ('A' for Active; 'I' for Inactive)
REMARK    1  A    between atoms: C_2  and  C_3 
REMARK    2  A    between atoms: C_3  and  N_4 
REMARK       I    between atoms: N_4  and  C_5 
REMARK    3  A    between atoms: C_5  and  C_6 
REMARK    4  A    between atoms: C_10  and  N_11 
REMARK       I    between atoms: N_11  and  C_12 
REMARK       I    between atoms: C_12  and  N_13 
REMARK    5  A    between atoms: N_13  and  C_14 
ROOT
HETATM    1  C   UNL     1      43.015 -17.808   3.748  1.00  0.00     0.053 A 
HETATM    2  C   UNL     1      43.035 -17.219   2.478  1.00  0.00     0.051 A 
HETATM    3 CL   UNL     1      44.346 -17.403   1.365  1.00  0.00    -0.083 Cl
HETATM    4  C   UNL     1      41.959 -16.423   2.056  1.00  0.00     0.054 A 
HETATM    5  C   UNL     1      40.858 -16.202   2.887  1.00  0.00     0.038 A 
HETATM    6  C   UNL     1      40.879 -16.723   4.184  1.00  0.00     0.030 A 
HETATM    7  C   UNL     1      41.945 -17.520   4.610  1.00  0.00     0.021 A 
ENDROOT
BRANCH   5   8
HETATM    8  N   UNL     1      39.696 -15.508   2.490  1.00  0.00    -0.309 N 
HETATM    9  C   UNL     1      39.622 -14.184   2.075  1.00  0.00     0.325 C 
HETATM   10  N   UNL     1      38.343 -13.884   1.645  1.00  0.00    -0.305 N 
HETATM   11  O   UNL     1      40.565 -13.406   2.064  1.00  0.00    -0.247 OA
HETATM   12  H   UNL     1      37.589 -14.423   2.040  1.00  0.00     0.171 HD
HETATM   13  H   UNL     1      38.894 -16.077   2.264  1.00  0.00     0.170 HD
BRANCH  10  14
HETATM   14  C   UNL     1      37.970 -12.773   0.904  1.00  0.00     0.086 A 
HETATM   15  C   UNL     1      37.720 -11.409   1.242  1.00  0.00     0.079 A 
HETATM   16  C   UNL     1      37.798 -10.706   2.547  1.00  0.00     0.075 C 
HETATM   17  N   UNL     1      37.410 -10.686   0.154  1.00  0.00    -0.177 NA
HETATM   18  N   UNL     1      37.470 -11.560  -0.853  1.00  0.00    -0.280 N 
HETATM   19  H   UNL     1      37.272 -11.219  -1.788  1.00  0.00     0.189 HD
HETATM   20  C   UNL     1      37.821 -12.823  -0.470  1.00  0.00     0.052 A 
HETATM   21  C   UNL     1      37.972 -13.915  -1.460  1.00  0.00     0.072 C 
ENDBRANCH  10  14
ENDBRANCH   5   8
BRANCH   1  22
HETATM   22  C   UNL     1      44.021 -18.779   4.259  1.00  0.00     0.253 C 
HETATM   23  N   UNL     1      44.079 -19.999   3.628  1.00  0.00    -0.357 N 
HETATM   24  H   UNL     1      43.484 -20.172   2.827  1.00  0.00     0.162 HD
HETATM   25  O   UNL     1      44.679 -18.505   5.258  1.00  0.00    -0.268 OA
BRANCH  23  26
HETATM   26  C   UNL     1      44.835 -21.114   4.158  1.00  0.00     0.122 C 
BRANCH  26  27
HETATM   27  C   UNL     1      44.722 -22.356   3.274  1.00  0.00     0.015 C 
HETATM   28  C   UNL     1      44.271 -22.032   1.856  1.00  0.00     0.006 C 
ENDBRANCH  26  27
ENDBRANCH  23  26
ENDBRANCH   1  22
TORSDOF 5
ENDMDL
