MODEL 1
REMARK VINA RESULT:     -10.9      0.000      0.000
REMARK  4 active torsions:
REMARK  status: ('A' for Active; 'I' for Inactive)
REMARK       I    between atoms: C_2  and  N_3 
REMARK    1  A    between atoms: C_2  and  C_21 
REMARK    2  A    between atoms: N_3  and  C_4 
REMARK    3  A    between atoms: C_7  and  C_10 
REMARK    4  A    between atoms: C_24  and  N_27 
ROOT
HETATM    1  C   UNL     1      43.909 -15.370   6.703  1.00  0.00     0.035 A 
HETATM    2  C   UNL     1      44.700 -16.499   6.933  1.00  0.00     0.030 A 
HETATM    3  C   UNL     1      44.723 -17.550   6.009  1.00  0.00     0.016 A 
HETATM    4  C   UNL     1      43.966 -17.469   4.839  1.00  0.00    -0.005 A 
HETATM    5  C   UNL     1      43.159 -16.354   4.605  1.00  0.00     0.016 A 
HETATM    6  C   UNL     1      43.140 -15.307   5.532  1.00  0.00     0.030 A 
ENDROOT
BRANCH   1   7
HETATM    7  N   UNL     1      43.822 -14.275   7.589  1.00  0.00    -0.323 N 
HETATM    8  C   UNL     1      44.776 -13.299   7.817  1.00  0.00     0.256 C 
HETATM    9  O   UNL     1      45.893 -13.232   7.319  1.00  0.00    -0.267 OA
HETATM   10  H   UNL     1      42.997 -14.249   8.174  1.00  0.00     0.169 HD
BRANCH   8  11
HETATM   11  C   UNL     1      44.383 -12.259   8.811  1.00  0.00     0.032 A 
HETATM   12  C   UNL     1      43.297 -11.408   8.604  1.00  0.00     0.019 A 
HETATM   13  C   UNL     1      42.960 -10.458   9.578  1.00  0.00     0.030 A 
HETATM   14  C   UNL     1      43.690 -10.309  10.770  1.00  0.00     0.030 A 
HETATM   15  C   UNL     1      44.780 -11.176  10.945  1.00  0.00     0.030 A 
HETATM   16  C   UNL     1      45.133 -12.129   9.979  1.00  0.00     0.019 A 
BRANCH  14  17
HETATM   17  N   UNL     1      43.298  -9.375  11.726  1.00  0.00    -0.381 N 
HETATM   18  C   UNL     1      42.078  -8.571  11.555  1.00  0.00     0.123 C 
HETATM   19  C   UNL     1      40.892  -9.225  12.262  1.00  0.00     0.020 C 
HETATM   20  C   UNL     1      41.211  -9.506  13.730  1.00  0.00     0.003 C 
HETATM   21  C   UNL     1      42.508 -10.300  13.867  1.00  0.00     0.020 C 
HETATM   22  C   UNL     1      43.661  -9.610  13.134  1.00  0.00     0.123 C 
ENDBRANCH  14  17
ENDBRANCH   8  11
ENDBRANCH   1   7
BRANCH   4  23
HETATM   23  C   UNL     1      43.967 -18.615   3.896  1.00  0.00     0.098 A 
HETATM   24  N   UNL     1      43.753 -18.338   2.644  1.00  0.00    -0.170 NA
HETATM   25  N   UNL     1      43.798 -19.349   1.737  1.00  0.00    -0.242 N 
HETATM   26  C   UNL     1      44.100 -20.661   2.004  1.00  0.00     0.272 A 
HETATM   27  H   UNL     1      43.650 -19.093   0.766  1.00  0.00     0.192 HD
HETATM   28  O   UNL     1      44.182 -21.511   1.123  1.00  0.00    -0.266 OA
HETATM   29  C   UNL     1      44.304 -21.002   3.421  1.00  0.00     0.046 A 
HETATM   30  C   UNL     1      44.552 -22.329   3.794  1.00  0.00     0.018 A 
HETATM   31  C   UNL     1      44.214 -19.997   4.382  1.00  0.00     0.011 A 
HETATM   32  C   UNL     1      44.694 -22.655   5.142  1.00  0.00     0.001 A 
HETATM   33  C   UNL     1      44.574 -21.659   6.112  1.00  0.00     0.001 A 
HETATM   34  C   UNL     1      44.327 -20.335   5.737  1.00  0.00     0.015 A 
ENDBRANCH   4  23
TORSDOF 4
ENDMDL
MODEL 2
REMARK VINA RESULT:      -9.7      7.809     11.243
REMARK  4 active torsions:
REMARK  status: ('A' for Active; 'I' for Inactive)
REMARK       I    between atoms: C_2  and  N_3 
REMARK    1  A    between atoms: C_2  and  C_21 
REMARK    2  A    between atoms: N_3  and  C_4 
REMARK    3  A    between atoms: C_7  and  C_10 
REMARK    4  A    between atoms: C_24  and  N_27 
ROOT
HETATM    1  C   UNL     1      40.596 -15.235   0.752  1.00  0.00     0.035 A 
HETATM    2  C   UNL     1      41.969 -14.993   0.832  1.00  0.00     0.030 A 
HETATM    3  C   UNL     1      42.742 -15.601   1.828  1.00  0.00     0.016 A 
HETATM    4  C   UNL     1      42.145 -16.471   2.741  1.00  0.00    -0.005 A 
HETATM    5  C   UNL     1      40.770 -16.709   2.683  1.00  0.00     0.016 A 
HETATM    6  C   UNL     1      40.004 -16.099   1.686  1.00  0.00     0.030 A 
ENDROOT
BRANCH   1   7
HETATM    7  N   UNL     1      39.747 -14.653  -0.213  1.00  0.00    -0.323 N 
HETATM    8  C   UNL     1      39.874 -14.708  -1.590  1.00  0.00     0.256 C 
HETATM    9  O   UNL     1      40.777 -15.240  -2.223  1.00  0.00    -0.267 OA
HETATM   10  H   UNL     1      39.005 -14.068   0.151  1.00  0.00     0.169 HD
BRANCH   8  11
HETATM   11  C   UNL     1      38.805 -13.997  -2.347  1.00  0.00     0.032 A 
HETATM   12  C   UNL     1      38.613 -12.619  -2.244  1.00  0.00     0.019 A 
HETATM   13  C   UNL     1      37.603 -11.997  -2.990  1.00  0.00     0.030 A 
HETATM   14  C   UNL     1      36.743 -12.716  -3.840  1.00  0.00     0.030 A 
HETATM   15  C   UNL     1      36.958 -14.101  -3.916  1.00  0.00     0.030 A 
HETATM   16  C   UNL     1      37.962 -14.739  -3.174  1.00  0.00     0.019 A 
BRANCH  14  17
HETATM   17  N   UNL     1      35.775 -12.052  -4.590  1.00  0.00    -0.381 N 
HETATM   18  C   UNL     1      34.650 -12.778  -5.199  1.00  0.00     0.123 C 
HETATM   19  C   UNL     1      33.422 -12.740  -4.290  1.00  0.00     0.020 C 
HETATM   20  C   UNL     1      33.061 -11.305  -3.909  1.00  0.00     0.003 C 
HETATM   21  C   UNL     1      34.267 -10.573  -3.325  1.00  0.00     0.020 C 
HETATM   22  C   UNL     1      35.471 -10.648  -4.267  1.00  0.00     0.123 C 
ENDBRANCH  14  17
ENDBRANCH   8  11
ENDBRANCH   1   7
BRANCH   4  23
HETATM   23  C   UNL     1      42.972 -17.068   3.819  1.00  0.00     0.098 A 
HETATM   24  N   UNL     1      43.122 -16.359   4.899  1.00  0.00    -0.170 NA
HETATM   25  N   UNL     1      43.826 -16.889   5.933  1.00  0.00    -0.242 N 
HETATM   26  C   UNL     1      44.372 -18.147   5.978  1.00  0.00     0.272 A 
HETATM   27  H   UNL     1      43.903 -16.317   6.768  1.00  0.00     0.192 HD
HETATM   28  O   UNL     1      44.945 -18.582   6.971  1.00  0.00    -0.266 OA
HETATM   29  C   UNL     1      44.249 -18.950   4.750  1.00  0.00     0.046 A 
HETATM   30  C   UNL     1      44.833 -20.222   4.682  1.00  0.00     0.018 A 
HETATM   31  C   UNL     1      43.576 -18.415   3.653  1.00  0.00     0.011 A 
HETATM   32  C   UNL     1      44.757 -20.956   3.500  1.00  0.00     0.001 A 
HETATM   33  C   UNL     1      44.112 -20.415   2.387  1.00  0.00     0.001 A 
HETATM   34  C   UNL     1      43.529 -19.145   2.458  1.00  0.00     0.015 A 
ENDBRANCH   4  23
TORSDOF 4
ENDMDL
MODEL 3
REMARK VINA RESULT:      -9.5      2.477      2.890
REMARK  4 active torsions:
REMARK  status: ('A' for Active; 'I' for Inactive)
REMARK       I    between atoms: C_2  and  N_3 
REMARK    1  A    between atoms: C_2  and  C_21 
REMARK    2  A    between atoms: N_3  and  C_4 
REMARK    3  A    between atoms: C_7  and  C_10 
REMARK    4  A    between atoms: C_24  and  N_27 
ROOT
HETATM    1  C   UNL     1      41.929 -14.928   5.594  1.00  0.00     0.035 A 
HETATM    2  C   UNL     1      43.215 -15.081   5.069  1.00  0.00     0.030 A 
HETATM    3  C   UNL     1      43.568 -16.247   4.380  1.00  0.00     0.016 A 
HETATM    4  C   UNL     1      42.627 -17.261   4.196  1.00  0.00    -0.005 A 
HETATM    5  C   UNL     1      41.343 -17.129   4.729  1.00  0.00     0.016 A 
HETATM    6  C   UNL     1      40.996 -15.961   5.416  1.00  0.00     0.030 A 
ENDROOT
BRANCH   1   7
HETATM    7  N   UNL     1      41.499 -13.790   6.309  1.00  0.00    -0.323 N 
HETATM    8  C   UNL     1      41.401 -12.490   5.845  1.00  0.00     0.256 C 
HETATM    9  O   UNL     1      41.711 -12.082   4.732  1.00  0.00    -0.267 OA
HETATM   10  H   UNL     1      41.314 -13.936   7.294  1.00  0.00     0.169 HD
BRANCH   8  11
HETATM   11  C   UNL     1      40.900 -11.504   6.844  1.00  0.00     0.032 A 
HETATM   12  C   UNL     1      39.660 -11.645   7.468  1.00  0.00     0.019 A 
HETATM   13  C   UNL     1      39.243 -10.698   8.414  1.00  0.00     0.030 A 
HETATM   14  C   UNL     1      40.024  -9.580   8.755  1.00  0.00     0.030 A 
HETATM   15  C   UNL     1      41.263  -9.464   8.105  1.00  0.00     0.030 A 
HETATM   16  C   UNL     1      41.693 -10.400   7.154  1.00  0.00     0.019 A 
BRANCH  14  17
HETATM   17  N   UNL     1      39.586  -8.682   9.726  1.00  0.00    -0.381 N 
HETATM   18  C   UNL     1      38.485  -9.022  10.640  1.00  0.00     0.123 C 
HETATM   19  C   UNL     1      39.023  -9.587  11.954  1.00  0.00     0.020 C 
HETATM   20  C   UNL     1      40.043  -8.641  12.586  1.00  0.00     0.003 C 
HETATM   21  C   UNL     1      41.142  -8.275  11.590  1.00  0.00     0.020 C 
HETATM   22  C   UNL     1      40.552  -7.724  10.290  1.00  0.00     0.123 C 
ENDBRANCH  14  17
ENDBRANCH   8  11
ENDBRANCH   1   7
BRANCH   4  23
HETATM   23  C   UNL     1      43.035 -18.510   3.505  1.00  0.00     0.098 A 
HETATM   24  N   UNL     1      42.860 -18.545   2.217  1.00  0.00    -0.170 NA
HETATM   25  N   UNL     1      43.268 -19.648   1.535  1.00  0.00    -0.242 N 
HETATM   26  C   UNL     1      43.907 -20.738   2.071  1.00  0.00     0.272 A 
HETATM   27  H   UNL     1      43.138 -19.632   0.529  1.00  0.00     0.192 HD
HETATM   28  O   UNL     1      44.303 -21.674   1.384  1.00  0.00    -0.266 OA
HETATM   29  C   UNL     1      44.077 -20.735   3.533  1.00  0.00     0.046 A 
HETATM   30  C   UNL     1      44.659 -21.835   4.174  1.00  0.00     0.018 A 
HETATM   31  C   UNL     1      43.622 -19.641   4.268  1.00  0.00     0.011 A 
HETATM   32  C   UNL     1      44.771 -21.848   5.563  1.00  0.00     0.001 A 
HETATM   33  C   UNL     1      44.290 -20.771   6.308  1.00  0.00     0.001 A 
HETATM   34  C   UNL     1      43.710 -19.673   5.666  1.00  0.00     0.015 A 
ENDBRANCH   4  23
TORSDOF 4
ENDMDL
MODEL 4
REMARK VINA RESULT:      -9.4      7.909     11.273
REMARK  4 active torsions:
REMARK  status: ('A' for Active; 'I' for Inactive)
REMARK       I    between atoms: C_2  and  N_3 
REMARK    1  A    between atoms: C_2  and  C_21 
REMARK    2  A    between atoms: N_3  and  C_4 
REMARK    3  A    between atoms: C_7  and  C_10 
REMARK    4  A    between atoms: C_24  and  N_27 
ROOT
HETATM    1  C   UNL     1      40.530 -15.358   0.872  1.00  0.00     0.035 A 
HETATM    2  C   UNL     1      39.985 -16.199   1.846  1.00  0.00     0.030 A 
HETATM    3  C   UNL     1      40.799 -16.763   2.835  1.00  0.00     0.016 A 
HETATM    4  C   UNL     1      42.164 -16.473   2.865  1.00  0.00    -0.005 A 
HETATM    5  C   UNL     1      42.725 -15.647   1.889  1.00  0.00     0.016 A 
HETATM    6  C   UNL     1      41.906 -15.086   0.903  1.00  0.00     0.030 A 
ENDROOT
BRANCH   1   7
HETATM    7  N   UNL     1      39.780 -14.760  -0.163  1.00  0.00    -0.323 N 
HETATM    8  C   UNL     1      38.798 -13.793  -0.042  1.00  0.00     0.256 C 
HETATM    9  O   UNL     1      38.369 -13.308   0.998  1.00  0.00    -0.267 OA
HETATM   10  H   UNL     1      39.931 -15.141  -1.089  1.00  0.00     0.169 HD
BRANCH   8  11
HETATM   11  C   UNL     1      38.192 -13.351  -1.330  1.00  0.00     0.032 A 
HETATM   12  C   UNL     1      37.914 -14.244  -2.364  1.00  0.00     0.019 A 
HETATM   13  C   UNL     1      37.329 -13.779  -3.550  1.00  0.00     0.030 A 
HETATM   14  C   UNL     1      37.020 -12.423  -3.756  1.00  0.00     0.030 A 
HETATM   15  C   UNL     1      37.318 -11.549  -2.698  1.00  0.00     0.030 A 
HETATM   16  C   UNL     1      37.906 -11.998  -1.507  1.00  0.00     0.019 A 
BRANCH  14  17
HETATM   17  N   UNL     1      36.406 -12.010  -4.936  1.00  0.00    -0.381 N 
HETATM   18  C   UNL     1      35.571 -12.928  -5.725  1.00  0.00     0.123 C 
HETATM   19  C   UNL     1      34.096 -12.774  -5.356  1.00  0.00     0.020 C 
HETATM   20  C   UNL     1      33.645 -11.318  -5.473  1.00  0.00     0.003 C 
HETATM   21  C   UNL     1      34.566 -10.394  -4.679  1.00  0.00     0.020 C 
HETATM   22  C   UNL     1      36.030 -10.593  -5.079  1.00  0.00     0.123 C 
ENDBRANCH  14  17
ENDBRANCH   8  11
ENDBRANCH   1   7
BRANCH   4  23
HETATM   23  C   UNL     1      43.019 -17.119   3.892  1.00  0.00     0.098 A 
HETATM   24  N   UNL     1      43.235 -16.439   4.980  1.00  0.00    -0.170 NA
HETATM   25  N   UNL     1      43.967 -17.014   5.970  1.00  0.00    -0.242 N 
HETATM   26  C   UNL     1      44.478 -18.287   5.963  1.00  0.00     0.272 A 
HETATM   27  H   UNL     1      44.096 -16.465   6.814  1.00  0.00     0.192 HD
HETATM   28  O   UNL     1      45.079 -18.762   6.921  1.00  0.00    -0.266 OA
HETATM   29  C   UNL     1      44.279 -19.057   4.724  1.00  0.00     0.046 A 
HETATM   30  C   UNL     1      44.822 -20.342   4.602  1.00  0.00     0.018 A 
HETATM   31  C   UNL     1      43.576 -18.478   3.669  1.00  0.00     0.011 A 
HETATM   32  C   UNL     1      44.674 -21.046   3.408  1.00  0.00     0.001 A 
HETATM   33  C   UNL     1      43.998 -20.461   2.337  1.00  0.00     0.001 A 
HETATM   34  C   UNL     1      43.456 -19.177   2.461  1.00  0.00     0.015 A 
ENDBRANCH   4  23
TORSDOF 4
ENDMDL
MODEL 5
REMARK VINA RESULT:      -9.4      3.752      4.681
REMARK  4 active torsions:
REMARK  status: ('A' for Active; 'I' for Inactive)
REMARK       I    between atoms: C_2  and  N_3 
REMARK    1  A    between atoms: C_2  and  C_21 
REMARK    2  A    between atoms: N_3  and  C_4 
REMARK    3  A    between atoms: C_7  and  C_10 
REMARK    4  A    between atoms: C_24  and  N_27 
ROOT
HETATM    1  C   UNL     1      41.005 -12.545   6.114  1.00  0.00     0.035 A 
HETATM    2  C   UNL     1      40.118 -13.597   5.868  1.00  0.00     0.030 A 
HETATM    3  C   UNL     1      40.176 -14.308   4.664  1.00  0.00     0.016 A 
HETATM    4  C   UNL     1      41.136 -13.981   3.705  1.00  0.00    -0.005 A 
HETATM    5  C   UNL     1      42.018 -12.922   3.931  1.00  0.00     0.016 A 
HETATM    6  C   UNL     1      41.955 -12.215   5.136  1.00  0.00     0.030 A 
ENDROOT
BRANCH   1   7
HETATM    7  N   UNL     1      41.003 -11.773   7.295  1.00  0.00    -0.323 N 
HETATM    8  C   UNL     1      40.021 -10.901   7.730  1.00  0.00     0.256 C 
HETATM    9  O   UNL     1      38.987 -10.608   7.144  1.00  0.00    -0.267 OA
HETATM   10  H   UNL     1      41.853 -11.810   7.844  1.00  0.00     0.169 HD
BRANCH   8  11
HETATM   11  C   UNL     1      40.307 -10.236   9.033  1.00  0.00     0.032 A 
HETATM   12  C   UNL     1      39.292  -9.868   9.917  1.00  0.00     0.019 A 
HETATM   13  C   UNL     1      39.616  -9.259  11.137  1.00  0.00     0.030 A 
HETATM   14  C   UNL     1      40.942  -8.980  11.512  1.00  0.00     0.030 A 
HETATM   15  C   UNL     1      41.939  -9.357  10.598  1.00  0.00     0.030 A 
HETATM   16  C   UNL     1      41.632  -9.963   9.372  1.00  0.00     0.019 A 
BRANCH  14  17
HETATM   17  N   UNL     1      41.220  -8.406  12.750  1.00  0.00    -0.381 N 
HETATM   18  C   UNL     1      40.447  -8.763  13.949  1.00  0.00     0.123 C 
HETATM   19  C   UNL     1      41.145  -9.872  14.736  1.00  0.00     0.020 C 
HETATM   20  C   UNL     1      42.591  -9.495  15.058  1.00  0.00     0.003 C 
HETATM   21  C   UNL     1      43.344  -9.086  13.794  1.00  0.00     0.020 C 
HETATM   22  C   UNL     1      42.601  -7.982  13.038  1.00  0.00     0.123 C 
ENDBRANCH  14  17
ENDBRANCH   8  11
ENDBRANCH   1   7
BRANCH   4  23
HETATM   23  C   UNL     1      41.151 -14.715   2.415  1.00  0.00     0.098 A 
HETATM   24  N   UNL     1      40.280 -14.343   1.524  1.00  0.00    -0.170 NA
HETATM   25  N   UNL     1      40.292 -14.951   0.309  1.00  0.00    -0.242 N 
HETATM   26  C   UNL     1      41.182 -15.910  -0.106  1.00  0.00     0.272 A 
HETATM   27  H   UNL     1      39.615 -14.619  -0.370  1.00  0.00     0.192 HD
HETATM   28  O   UNL     1      41.171 -16.373  -1.242  1.00  0.00    -0.266 OA
HETATM   29  C   UNL     1      42.149 -16.375   0.902  1.00  0.00     0.046 A 
HETATM   30  C   UNL     1      43.053 -17.398   0.589  1.00  0.00     0.018 A 
HETATM   31  C   UNL     1      42.129 -15.807   2.175  1.00  0.00     0.011 A 
HETATM   32  C   UNL     1      43.932 -17.868   1.563  1.00  0.00     0.001 A 
HETATM   33  C   UNL     1      43.897 -17.327   2.848  1.00  0.00     0.001 A 
HETATM   34  C   UNL     1      42.994 -16.305   3.159  1.00  0.00     0.015 A 
ENDBRANCH   4  23
TORSDOF 4
ENDMDL
MODEL 6
REMARK VINA RESULT:      -9.2      5.092      6.532
REMARK  4 active torsions:
REMARK  status: ('A' for Active; 'I' for Inactive)
REMARK       I    between atoms: C_2  and  N_3 
REMARK    1  A    between atoms: C_2  and  C_21 
REMARK    2  A    between atoms: N_3  and  C_4 
REMARK    3  A    between atoms: C_7  and  C_10 
REMARK    4  A    between atoms: C_24  and  N_27 
ROOT
HETATM    1  C   UNL     1      41.260 -12.792   4.318  1.00  0.00     0.035 A 
HETATM    2  C   UNL     1      40.109 -12.837   3.528  1.00  0.00     0.030 A 
HETATM    3  C   UNL     1      40.176 -13.265   2.197  1.00  0.00     0.016 A 
HETATM    4  C   UNL     1      41.397 -13.670   1.654  1.00  0.00    -0.005 A 
HETATM    5  C   UNL     1      42.558 -13.615   2.428  1.00  0.00     0.016 A 
HETATM    6  C   UNL     1      42.484 -13.186   3.757  1.00  0.00     0.030 A 
ENDROOT
BRANCH   1   7
HETATM    7  N   UNL     1      41.278 -12.362   5.662  1.00  0.00    -0.323 N 
HETATM    8  C   UNL     1      41.302 -11.060   6.129  1.00  0.00     0.256 C 
HETATM    9  O   UNL     1      41.354 -10.038   5.455  1.00  0.00    -0.267 OA
HETATM   10  H   UNL     1      41.359 -13.095   6.355  1.00  0.00     0.169 HD
BRANCH   8  11
HETATM   11  C   UNL     1      41.306 -10.928   7.614  1.00  0.00     0.032 A 
HETATM   12  C   UNL     1      40.129 -10.941   8.363  1.00  0.00     0.019 A 
HETATM   13  C   UNL     1      40.189 -10.829   9.759  1.00  0.00     0.030 A 
HETATM   14  C   UNL     1      41.404 -10.683  10.451  1.00  0.00     0.030 A 
HETATM   15  C   UNL     1      42.569 -10.666   9.668  1.00  0.00     0.030 A 
HETATM   16  C   UNL     1      42.526 -10.773   8.271  1.00  0.00     0.019 A 
BRANCH  14  17
HETATM   17  N   UNL     1      41.420 -10.610  11.843  1.00  0.00    -0.381 N 
HETATM   18  C   UNL     1      42.571 -11.093  12.620  1.00  0.00     0.123 C 
HETATM   19  C   UNL     1      43.534  -9.948  12.933  1.00  0.00     0.020 C 
HETATM   20  C   UNL     1      42.810  -8.786  13.611  1.00  0.00     0.003 C 
HETATM   21  C   UNL     1      41.595  -8.347  12.796  1.00  0.00     0.020 C 
HETATM   22  C   UNL     1      40.668  -9.529  12.502  1.00  0.00     0.123 C 
ENDBRANCH  14  17
ENDBRANCH   8  11
ENDBRANCH   1   7
BRANCH   4  23
HETATM   23  C   UNL     1      41.456 -14.075   0.228  1.00  0.00     0.098 A 
HETATM   24  N   UNL     1      41.118 -15.302  -0.043  1.00  0.00    -0.170 NA
HETATM   25  N   UNL     1      41.105 -15.701  -1.342  1.00  0.00    -0.242 N 
HETATM   26  C   UNL     1      41.374 -14.912  -2.432  1.00  0.00     0.272 A 
HETATM   27  H   UNL     1      40.814 -16.657  -1.519  1.00  0.00     0.192 HD
HETATM   28  O   UNL     1      41.284 -15.325  -3.584  1.00  0.00    -0.266 OA
HETATM   29  C   UNL     1      41.798 -13.532  -2.144  1.00  0.00     0.046 A 
HETATM   30  C   UNL     1      42.155 -12.674  -3.192  1.00  0.00     0.018 A 
HETATM   31  C   UNL     1      41.871 -13.106  -0.819  1.00  0.00     0.011 A 
HETATM   32  C   UNL     1      42.605 -11.386  -2.910  1.00  0.00     0.001 A 
HETATM   33  C   UNL     1      42.710 -10.963  -1.585  1.00  0.00     0.001 A 
HETATM   34  C   UNL     1      42.353 -11.821  -0.540  1.00  0.00     0.015 A 
ENDBRANCH   4  23
TORSDOF 4
ENDMDL
MODEL 7
REMARK VINA RESULT:      -9.2      7.680     10.794
REMARK  4 active torsions:
REMARK  status: ('A' for Active; 'I' for Inactive)
REMARK       I    between atoms: C_2  and  N_3 
REMARK    1  A    between atoms: C_2  and  C_21 
REMARK    2  A    between atoms: N_3  and  C_4 
REMARK    3  A    between atoms: C_7  and  C_10 
REMARK    4  A    between atoms: C_24  and  N_27 
ROOT
HETATM    1  C   UNL     1      40.312 -15.718   0.784  1.00  0.00     0.035 A 
HETATM    2  C   UNL     1      40.000 -16.158   2.073  1.00  0.00     0.030 A 
HETATM    3  C   UNL     1      40.871 -17.008   2.765  1.00  0.00     0.016 A 
HETATM    4  C   UNL     1      42.071 -17.408   2.176  1.00  0.00    -0.005 A 
HETATM    5  C   UNL     1      42.388 -16.990   0.882  1.00  0.00     0.016 A 
HETATM    6  C   UNL     1      41.514 -16.141   0.196  1.00  0.00     0.030 A 
ENDROOT
BRANCH   1   7
HETATM    7  N   UNL     1      39.484 -14.872   0.017  1.00  0.00    -0.323 N 
HETATM    8  C   UNL     1      39.659 -13.521  -0.231  1.00  0.00     0.256 C 
HETATM    9  O   UNL     1      40.548 -12.803   0.209  1.00  0.00    -0.267 OA
HETATM   10  H   UNL     1      38.628 -15.289  -0.325  1.00  0.00     0.169 HD
BRANCH   8  11
HETATM   11  C   UNL     1      38.612 -12.903  -1.093  1.00  0.00     0.032 A 
HETATM   12  C   UNL     1      37.755 -11.908  -0.621  1.00  0.00     0.019 A 
HETATM   13  C   UNL     1      36.797 -11.348  -1.477  1.00  0.00     0.030 A 
HETATM   14  C   UNL     1      36.646 -11.763  -2.813  1.00  0.00     0.030 A 
HETATM   15  C   UNL     1      37.520 -12.769  -3.254  1.00  0.00     0.030 A 
HETATM   16  C   UNL     1      38.480 -13.343  -2.409  1.00  0.00     0.019 A 
BRANCH  14  17
HETATM   17  N   UNL     1      35.705 -11.153  -3.639  1.00  0.00    -0.381 N 
HETATM   18  C   UNL     1      35.348 -11.728  -4.945  1.00  0.00     0.123 C 
HETATM   19  C   UNL     1      34.107 -12.613  -4.829  1.00  0.00     0.020 C 
HETATM   20  C   UNL     1      32.948 -11.857  -4.181  1.00  0.00     0.003 C 
HETATM   21  C   UNL     1      33.374 -11.236  -2.852  1.00  0.00     0.020 C 
HETATM   22  C   UNL     1      34.623 -10.368  -3.019  1.00  0.00     0.123 C 
ENDBRANCH  14  17
ENDBRANCH   8  11
ENDBRANCH   1   7
BRANCH   4  23
HETATM   23  C   UNL     1      42.958 -18.348   2.906  1.00  0.00     0.098 A 
HETATM   24  N   UNL     1      43.183 -19.496   2.338  1.00  0.00    -0.170 NA
HETATM   25  N   UNL     1      44.032 -20.366   2.945  1.00  0.00    -0.242 N 
HETATM   26  C   UNL     1      44.733 -20.137   4.102  1.00  0.00     0.272 A 
HETATM   27  H   UNL     1      44.203 -21.242   2.462  1.00  0.00     0.192 HD
HETATM   28  O   UNL     1      45.531 -20.947   4.562  1.00  0.00    -0.266 OA
HETATM   29  C   UNL     1      44.460 -18.860   4.782  1.00  0.00     0.046 A 
HETATM   30  C   UNL     1      45.081 -18.568   6.003  1.00  0.00     0.018 A 
HETATM   31  C   UNL     1      43.555 -17.966   4.212  1.00  0.00     0.011 A 
HETATM   32  C   UNL     1      44.780 -17.380   6.667  1.00  0.00     0.001 A 
HETATM   33  C   UNL     1      43.852 -16.495   6.118  1.00  0.00     0.001 A 
HETATM   34  C   UNL     1      43.233 -16.788   4.898  1.00  0.00     0.015 A 
ENDBRANCH   4  23
TORSDOF 4
ENDMDL
MODEL 8
REMARK VINA RESULT:      -9.2      7.670     11.751
REMARK  4 active torsions:
REMARK  status: ('A' for Active; 'I' for Inactive)
REMARK       I    between atoms: C_2  and  N_3 
REMARK    1  A    between atoms: C_2  and  C_21 
REMARK    2  A    between atoms: N_3  and  C_4 
REMARK    3  A    between atoms: C_7  and  C_10 
REMARK    4  A    between atoms: C_24  and  N_27 
ROOT
HETATM    1  C   UNL     1      41.227 -14.747  -0.242  1.00  0.00     0.035 A 
HETATM    2  C   UNL     1      40.799 -13.442   0.015  1.00  0.00     0.030 A 
HETATM    3  C   UNL     1      40.224 -12.670  -1.001  1.00  0.00     0.016 A 
HETATM    4  C   UNL     1      40.058 -13.208  -2.278  1.00  0.00    -0.005 A 
HETATM    5  C   UNL     1      40.496 -14.505  -2.553  1.00  0.00     0.016 A 
HETATM    6  C   UNL     1      41.070 -15.272  -1.534  1.00  0.00     0.030 A 
ENDROOT
BRANCH   1   7
HETATM    7  N   UNL     1      41.826 -15.586   0.723  1.00  0.00    -0.323 N 
HETATM    8  C   UNL     1      41.191 -16.449   1.598  1.00  0.00     0.256 C 
HETATM    9  O   UNL     1      39.984 -16.613   1.723  1.00  0.00    -0.267 OA
HETATM   10  H   UNL     1      42.827 -15.482   0.832  1.00  0.00     0.169 HD
BRANCH   8  11
HETATM   11  C   UNL     1      42.104 -17.213   2.496  1.00  0.00     0.032 A 
HETATM   12  C   UNL     1      41.943 -17.224   3.882  1.00  0.00     0.019 A 
HETATM   13  C   UNL     1      42.820 -17.971   4.680  1.00  0.00     0.030 A 
HETATM   14  C   UNL     1      43.886 -18.712   4.139  1.00  0.00     0.030 A 
HETATM   15  C   UNL     1      44.024 -18.675   2.742  1.00  0.00     0.030 A 
HETATM   16  C   UNL     1      43.158 -17.929   1.930  1.00  0.00     0.019 A 
BRANCH  14  17
HETATM   17  N   UNL     1      44.712 -19.469   4.967  1.00  0.00    -0.381 N 
HETATM   18  C   UNL     1      44.388 -19.676   6.386  1.00  0.00     0.123 C 
HETATM   19  C   UNL     1      43.629 -20.987   6.586  1.00  0.00     0.020 C 
HETATM   20  C   UNL     1      44.391 -22.164   5.978  1.00  0.00     0.003 C 
HETATM   21  C   UNL     1      44.749 -21.889   4.518  1.00  0.00     0.020 C 
HETATM   22  C   UNL     1      45.498 -20.563   4.371  1.00  0.00     0.123 C 
ENDBRANCH  14  17
ENDBRANCH   8  11
ENDBRANCH   1   7
BRANCH   4  23
HETATM   23  C   UNL     1      39.491 -12.357  -3.354  1.00  0.00     0.098 A 
HETATM   24  N   UNL     1      38.207 -12.441  -3.547  1.00  0.00    -0.170 NA
HETATM   25  N   UNL     1      37.637 -11.640  -4.485  1.00  0.00    -0.242 N 
HETATM   26  C   UNL     1      38.282 -10.692  -5.238  1.00  0.00     0.272 A 
HETATM   27  H   UNL     1      36.631 -11.716  -4.592  1.00  0.00     0.192 HD
HETATM   28  O   UNL     1      37.690  -9.960  -6.025  1.00  0.00    -0.266 OA
HETATM   29  C   UNL     1      39.741 -10.609  -5.063  1.00  0.00     0.046 A 
HETATM   30  C   UNL     1      40.491  -9.715  -5.838  1.00  0.00     0.018 A 
HETATM   31  C   UNL     1      40.365 -11.453  -4.146  1.00  0.00     0.011 A 
HETATM   32  C   UNL     1      41.878  -9.678  -5.704  1.00  0.00     0.001 A 
HETATM   33  C   UNL     1      42.512 -10.541  -4.811  1.00  0.00     0.001 A 
HETATM   34  C   UNL     1      41.761 -11.433  -4.038  1.00  0.00     0.015 A 
ENDBRANCH   4  23
TORSDOF 4
ENDMDL
MODEL 9
REMARK VINA RESULT:      -9.0      7.332     10.671
REMARK  4 active torsions:
REMARK  status: ('A' for Active; 'I' for Inactive)
REMARK       I    between atoms: C_2  and  N_3 
REMARK    1  A    between atoms: C_2  and  C_21 
REMARK    2  A    between atoms: N_3  and  C_4 
REMARK    3  A    between atoms: C_7  and  C_10 
REMARK    4  A    between atoms: C_24  and  N_27 
ROOT
HETATM    1  C   UNL     1      41.254 -16.149   0.485  1.00  0.00     0.035 A 
HETATM    2  C   UNL     1      42.576 -15.919   0.874  1.00  0.00     0.030 A 
HETATM    3  C   UNL     1      43.262 -16.858   1.653  1.00  0.00     0.016 A 
HETATM    4  C   UNL     1      42.633 -18.045   2.031  1.00  0.00    -0.005 A 
HETATM    5  C   UNL     1      41.307 -18.281   1.662  1.00  0.00     0.016 A 
HETATM    6  C   UNL     1      40.626 -17.339   0.884  1.00  0.00     0.030 A 
ENDROOT
BRANCH   1   7
HETATM    7  N   UNL     1      40.491 -15.249  -0.288  1.00  0.00    -0.323 N 
HETATM    8  C   UNL     1      40.486 -15.115  -1.666  1.00  0.00     0.256 C 
HETATM    9  O   UNL     1      41.180 -15.731  -2.466  1.00  0.00    -0.267 OA
HETATM   10  H   UNL     1      39.944 -14.577   0.235  1.00  0.00     0.169 HD
BRANCH   8  11
HETATM   11  C   UNL     1      39.558 -14.074  -2.191  1.00  0.00     0.032 A 
HETATM   12  C   UNL     1      39.671 -12.731  -1.833  1.00  0.00     0.019 A 
HETATM   13  C   UNL     1      38.781 -11.789  -2.368  1.00  0.00     0.030 A 
HETATM   14  C   UNL     1      37.748 -12.146  -3.252  1.00  0.00     0.030 A 
HETATM   15  C   UNL     1      37.657 -13.506  -3.587  1.00  0.00     0.030 A 
HETATM   16  C   UNL     1      38.537 -14.461  -3.058  1.00  0.00     0.019 A 
BRANCH  14  17
HETATM   17  N   UNL     1      36.908 -11.171  -3.788  1.00  0.00    -0.381 N 
HETATM   18  C   UNL     1      36.031 -11.462  -4.931  1.00  0.00     0.123 C 
HETATM   19  C   UNL     1      34.633 -11.860  -4.457  1.00  0.00     0.020 C 
HETATM   20  C   UNL     1      34.048 -10.805  -3.518  1.00  0.00     0.003 C 
HETATM   21  C   UNL     1      35.010 -10.498  -2.372  1.00  0.00     0.020 C 
HETATM   22  C   UNL     1      36.395 -10.115  -2.898  1.00  0.00     0.123 C 
ENDBRANCH  14  17
ENDBRANCH   8  11
ENDBRANCH   1   7
BRANCH   4  23
HETATM   23  C   UNL     1      43.361 -19.007   2.896  1.00  0.00     0.098 A 
HETATM   24  N   UNL     1      43.969 -19.986   2.294  1.00  0.00    -0.170 NA
HETATM   25  N   UNL     1      44.693 -20.859   3.042  1.00  0.00    -0.242 N 
HETATM   26  C   UNL     1      44.894 -20.789   4.397  1.00  0.00     0.272 A 
HETATM   27  H   UNL     1      45.174 -21.597   2.537  1.00  0.00     0.192 HD
HETATM   28  O   UNL     1      45.612 -21.581   5.000  1.00  0.00    -0.266 OA
HETATM   29  C   UNL     1      44.180 -19.712   5.102  1.00  0.00     0.046 A 
HETATM   30  C   UNL     1      44.273 -19.603   6.496  1.00  0.00     0.018 A 
HETATM   31  C   UNL     1      43.387 -18.829   4.370  1.00  0.00     0.011 A 
HETATM   32  C   UNL     1      43.554 -18.613   7.163  1.00  0.00     0.001 A 
HETATM   33  C   UNL     1      42.735 -17.745   6.440  1.00  0.00     0.001 A 
HETATM   34  C   UNL     1      42.643 -17.855   5.049  1.00  0.00     0.015 A 
ENDBRANCH   4  23
TORSDOF 4
ENDMDL
MODEL 10
REMARK VINA RESULT:      -8.7      7.675     11.057
REMARK  4 active torsions:
REMARK  status: ('A' for Active; 'I' for Inactive)
REMARK       I    between atoms: C_2  and  N_3 
REMARK    1  A    between atoms: C_2  and  C_21 
REMARK    2  A    between atoms: N_3  and  C_4 
REMARK    3  A    between atoms: C_7  and  C_10 
REMARK    4  A    between atoms: C_24  and  N_27 
ROOT
HETATM    1  C   UNL     1      40.846 -14.847   1.284  1.00  0.00     0.035 A 
HETATM    2  C   UNL     1      40.160 -15.941   1.818  1.00  0.00     0.030 A 
HETATM    3  C   UNL     1      40.724 -16.699   2.850  1.00  0.00     0.016 A 
HETATM    4  C   UNL     1      41.974 -16.354   3.368  1.00  0.00    -0.005 A 
HETATM    5  C   UNL     1      42.677 -15.272   2.833  1.00  0.00     0.016 A 
HETATM    6  C   UNL     1      42.108 -14.519   1.801  1.00  0.00     0.030 A 
ENDROOT
BRANCH   1   7
HETATM    7  N   UNL     1      40.352 -14.041   0.236  1.00  0.00    -0.323 N 
HETATM    8  C   UNL     1      40.339 -14.333  -1.116  1.00  0.00     0.256 C 
HETATM    9  O   UNL     1      40.796 -15.333  -1.657  1.00  0.00    -0.267 OA
HETATM   10  H   UNL     1      40.042 -13.116   0.504  1.00  0.00     0.169 HD
BRANCH   8  11
HETATM   11  C   UNL     1      39.736 -13.277  -1.979  1.00  0.00     0.032 A 
HETATM   12  C   UNL     1      38.386 -12.937  -1.901  1.00  0.00     0.019 A 
HETATM   13  C   UNL     1      37.872 -11.925  -2.723  1.00  0.00     0.030 A 
HETATM   14  C   UNL     1      38.668 -11.236  -3.656  1.00  0.00     0.030 A 
HETATM   15  C   UNL     1      40.020 -11.606  -3.714  1.00  0.00     0.030 A 
HETATM   16  C   UNL     1      40.549 -12.619  -2.901  1.00  0.00     0.019 A 
BRANCH  14  17
HETATM   17  N   UNL     1      38.123 -10.212  -4.429  1.00  0.00    -0.381 N 
HETATM   18  C   UNL     1      38.952  -9.437  -5.364  1.00  0.00     0.123 C 
HETATM   19  C   UNL     1      38.874 -10.023  -6.773  1.00  0.00     0.020 C 
HETATM   20  C   UNL     1      37.425 -10.152  -7.239  1.00  0.00     0.003 C 
HETATM   21  C   UNL     1      36.589 -10.922  -6.218  1.00  0.00     0.020 C 
HETATM   22  C   UNL     1      36.707 -10.302  -4.824  1.00  0.00     0.123 C 
ENDBRANCH  14  17
ENDBRANCH   8  11
ENDBRANCH   1   7
BRANCH   4  23
HETATM   23  C   UNL     1      42.576 -17.198   4.430  1.00  0.00     0.098 A 
HETATM   24  N   UNL     1      42.372 -16.822   5.658  1.00  0.00    -0.170 NA
HETATM   25  N   UNL     1      42.859 -17.595   6.664  1.00  0.00    -0.242 N 
HETATM   26  C   UNL     1      43.522 -18.788   6.518  1.00  0.00     0.272 A 
HETATM   27  H   UNL     1      42.661 -17.284   7.609  1.00  0.00     0.192 HD
HETATM   28  O   UNL     1      43.881 -19.465   7.476  1.00  0.00    -0.266 OA
HETATM   29  C   UNL     1      43.798 -19.210   5.135  1.00  0.00     0.046 A 
HETATM   30  C   UNL     1      44.526 -20.381   4.891  1.00  0.00     0.018 A 
HETATM   31  C   UNL     1      43.356 -18.413   4.080  1.00  0.00     0.011 A 
HETATM   32  C   UNL     1      44.829 -20.748   3.581  1.00  0.00     0.001 A 
HETATM   33  C   UNL     1      44.417 -19.940   2.521  1.00  0.00     0.001 A 
HETATM   34  C   UNL     1      43.689 -18.771   2.767  1.00  0.00     0.015 A 
ENDBRANCH   4  23
TORSDOF 4
ENDMDL
