MODEL 1
REMARK VINA RESULT:      -7.9      0.000      0.000
REMARK  11 active torsions:
REMARK  status: ('A' for Active; 'I' for Inactive)
REMARK    1  A    between atoms: O_2  and  C_3 
REMARK    2  A    between atoms: C_6  and  C_7 
REMARK    3  A    between atoms: C_7  and  C_8 
REMARK       I    between atoms: C_8  and  N_9 
REMARK    4  A    between atoms: N_9  and  C_10 
REMARK    5  A    between atoms: C_10  and  N_11 
REMARK    6  A    between atoms: N_11  and  C_12 
REMARK    7  A    between atoms: C_13  and  C_14 
REMARK       I    between atoms: C_14  and  N_15 
REMARK    8  A    between atoms: N_15  and  C_16 
REMARK    9  A    between atoms: C_16  and  C_17 
REMARK   10  A    between atoms: C_17  and  C_18 
REMARK   11  A    between atoms: C_18  and  O_19 
ROOT
HETATM    1  N   UNL     1      42.470 -13.880   4.651  1.00  0.00    -0.332 N 
HETATM    2  H   UNL     1      42.221 -12.960   5.023  1.00  0.00     0.168 HD
ENDROOT
BRANCH   1   3
HETATM    3  C   UNL     1      42.056 -14.024   3.337  1.00  0.00     0.178 C 
HETATM    4  S   UNL     1      40.876 -13.191   2.501  1.00  0.00    -0.040 SA
BRANCH   3   5
HETATM    5  N   UNL     1      42.780 -14.954   2.603  1.00  0.00    -0.303 N 
HETATM    6  C   UNL     1      42.335 -16.170   2.099  1.00  0.00     0.228 C 
HETATM    7  O   UNL     1      41.143 -16.461   2.012  1.00  0.00    -0.273 OA
HETATM    8  H   UNL     1      43.783 -14.831   2.692  1.00  0.00     0.171 HD
BRANCH   6   9
HETATM    9  C   UNL     1      43.429 -17.098   1.605  1.00  0.00     0.141 C 
BRANCH   9  10
HETATM   10  C   UNL     1      43.796 -18.242   2.526  1.00  0.00    -0.049 A 
HETATM   11  C   UNL     1      44.011 -19.550   2.066  1.00  0.00     0.010 A 
HETATM   12  C   UNL     1      44.369 -20.575   2.952  1.00  0.00     0.037 A 
HETATM   13  C   UNL     1      44.551 -20.302   4.306  1.00  0.00     0.068 A 
HETATM   14  C   UNL     1      44.381 -18.995   4.763  1.00  0.00     0.037 A 
HETATM   15  C   UNL     1      44.007 -17.974   3.885  1.00  0.00     0.010 A 
BRANCH  13  16
HETATM   16  O   UNL     1      44.905 -21.203   5.270  1.00  0.00    -0.356 OA
HETATM   17  C   UNL     1      44.944 -22.573   4.888  1.00  0.00     0.210 C 
ENDBRANCH  13  16
ENDBRANCH   9  10
ENDBRANCH   6   9
ENDBRANCH   3   5
ENDBRANCH   1   3
BRANCH   1  18
HETATM   18  C   UNL     1      42.590 -14.887   5.642  1.00  0.00     0.050 A 
HETATM   19  C   UNL     1      43.611 -15.007   6.602  1.00  0.00     0.058 A 
HETATM   20  C   UNL     1      43.629 -16.127   7.455  1.00  0.00     0.019 A 
HETATM   21  C   UNL     1      42.621 -17.088   7.403  1.00  0.00     0.001 A 
HETATM   22  C   UNL     1      41.569 -16.930   6.510  1.00  0.00     0.002 A 
HETATM   23  C   UNL     1      41.550 -15.835   5.644  1.00  0.00     0.030 A 
BRANCH  19  24
HETATM   24  C   UNL     1      44.615 -13.957   6.930  1.00  0.00     0.253 C 
HETATM   25  N   UNL     1      44.600 -13.487   8.228  1.00  0.00    -0.357 N 
HETATM   26  H   UNL     1      43.900 -13.840   8.867  1.00  0.00     0.162 HD
HETATM   27  O   UNL     1      45.461 -13.631   6.106  1.00  0.00    -0.268 OA
BRANCH  25  28
HETATM   28  C   UNL     1      45.576 -12.530   8.702  1.00  0.00     0.125 C 
BRANCH  28  29
HETATM   29  C   UNL     1      45.008 -11.551   9.726  1.00  0.00     0.046 C 
BRANCH  29  30
HETATM   30  C   UNL     1      43.915 -12.148  10.604  1.00  0.00     0.165 C 
BRANCH  30  31
HETATM   31  O   UNL     1      44.410 -13.329  11.231  1.00  0.00    -0.401 OA
HETATM   32  H   UNL     1      44.435 -13.157  12.187  1.00  0.00     0.209 HD
ENDBRANCH  30  31
ENDBRANCH  29  30
ENDBRANCH  28  29
ENDBRANCH  25  28
ENDBRANCH  19  24
ENDBRANCH   1  18
TORSDOF 11
ENDMDL
MODEL 2
REMARK VINA RESULT:      -7.4      3.836      7.542
REMARK  11 active torsions:
REMARK  status: ('A' for Active; 'I' for Inactive)
REMARK    1  A    between atoms: O_2  and  C_3 
REMARK    2  A    between atoms: C_6  and  C_7 
REMARK    3  A    between atoms: C_7  and  C_8 
REMARK       I    between atoms: C_8  and  N_9 
REMARK    4  A    between atoms: N_9  and  C_10 
REMARK    5  A    between atoms: C_10  and  N_11 
REMARK    6  A    between atoms: N_11  and  C_12 
REMARK    7  A    between atoms: C_13  and  C_14 
REMARK       I    between atoms: C_14  and  N_15 
REMARK    8  A    between atoms: N_15  and  C_16 
REMARK    9  A    between atoms: C_16  and  C_17 
REMARK   10  A    between atoms: C_17  and  C_18 
REMARK   11  A    between atoms: C_18  and  O_19 
ROOT
HETATM    1  N   UNL     1      44.599 -19.315   5.095  1.00  0.00    -0.332 N 
HETATM    2  H   UNL     1      45.592 -19.149   5.279  1.00  0.00     0.168 HD
ENDROOT
BRANCH   1   3
HETATM    3  C   UNL     1      43.852 -19.253   6.259  1.00  0.00     0.178 C 
HETATM    4  S   UNL     1      43.632 -20.410   7.441  1.00  0.00    -0.040 SA
BRANCH   3   5
HETATM    5  N   UNL     1      43.256 -18.021   6.496  1.00  0.00    -0.303 N 
HETATM    6  C   UNL     1      42.168 -17.463   5.838  1.00  0.00     0.228 C 
HETATM    7  O   UNL     1      41.412 -18.119   5.121  1.00  0.00    -0.273 OA
HETATM    8  H   UNL     1      43.854 -17.388   7.016  1.00  0.00     0.171 HD
BRANCH   6   9
HETATM    9  C   UNL     1      41.938 -15.989   6.113  1.00  0.00     0.141 C 
BRANCH   9  10
HETATM   10  C   UNL     1      42.010 -15.069   4.912  1.00  0.00    -0.049 A 
HETATM   11  C   UNL     1      40.875 -14.470   4.345  1.00  0.00     0.010 A 
HETATM   12  C   UNL     1      40.991 -13.610   3.245  1.00  0.00     0.037 A 
HETATM   13  C   UNL     1      42.245 -13.307   2.717  1.00  0.00     0.068 A 
HETATM   14  C   UNL     1      43.380 -13.865   3.305  1.00  0.00     0.037 A 
HETATM   15  C   UNL     1      43.267 -14.737   4.391  1.00  0.00     0.010 A 
BRANCH  13  16
HETATM   16  O   UNL     1      42.496 -12.481   1.658  1.00  0.00    -0.356 OA
HETATM   17  C   UNL     1      41.441 -11.621   1.248  1.00  0.00     0.210 C 
ENDBRANCH  13  16
ENDBRANCH   9  10
ENDBRANCH   6   9
ENDBRANCH   3   5
ENDBRANCH   1   3
BRANCH   1  18
HETATM   18  C   UNL     1      44.351 -20.102   3.941  1.00  0.00     0.050 A 
HETATM   19  C   UNL     1      43.662 -19.704   2.782  1.00  0.00     0.058 A 
HETATM   20  C   UNL     1      43.422 -20.644   1.763  1.00  0.00     0.019 A 
HETATM   21  C   UNL     1      43.907 -21.948   1.858  1.00  0.00     0.001 A 
HETATM   22  C   UNL     1      44.657 -22.321   2.967  1.00  0.00     0.002 A 
HETATM   23  C   UNL     1      44.884 -21.403   3.994  1.00  0.00     0.030 A 
BRANCH  19  24
HETATM   24  C   UNL     1      43.289 -18.304   2.437  1.00  0.00     0.253 C 
HETATM   25  N   UNL     1      42.034 -18.125   1.892  1.00  0.00    -0.357 N 
HETATM   26  H   UNL     1      41.456 -18.938   1.721  1.00  0.00     0.162 HD
HETATM   27  O   UNL     1      44.032 -17.375   2.734  1.00  0.00    -0.268 OA
BRANCH  25  28
HETATM   28  C   UNL     1      41.514 -16.809   1.591  1.00  0.00     0.125 C 
BRANCH  28  29
HETATM   29  C   UNL     1      42.100 -16.209   0.316  1.00  0.00     0.046 C 
BRANCH  29  30
HETATM   30  C   UNL     1      41.089 -15.428  -0.514  1.00  0.00     0.165 C 
BRANCH  30  31
HETATM   31  O   UNL     1      39.946 -15.139   0.288  1.00  0.00    -0.401 OA
HETATM   32  H   UNL     1      40.205 -15.273   1.215  1.00  0.00     0.209 HD
ENDBRANCH  30  31
ENDBRANCH  29  30
ENDBRANCH  28  29
ENDBRANCH  25  28
ENDBRANCH  19  24
ENDBRANCH   1  18
TORSDOF 11
ENDMDL
MODEL 3
REMARK VINA RESULT:      -7.4      2.738      6.944
REMARK  11 active torsions:
REMARK  status: ('A' for Active; 'I' for Inactive)
REMARK    1  A    between atoms: O_2  and  C_3 
REMARK    2  A    between atoms: C_6  and  C_7 
REMARK    3  A    between atoms: C_7  and  C_8 
REMARK       I    between atoms: C_8  and  N_9 
REMARK    4  A    between atoms: N_9  and  C_10 
REMARK    5  A    between atoms: C_10  and  N_11 
REMARK    6  A    between atoms: N_11  and  C_12 
REMARK    7  A    between atoms: C_13  and  C_14 
REMARK       I    between atoms: C_14  and  N_15 
REMARK    8  A    between atoms: N_15  and  C_16 
REMARK    9  A    between atoms: C_16  and  C_17 
REMARK   10  A    between atoms: C_17  and  C_18 
REMARK   11  A    between atoms: C_18  and  O_19 
ROOT
HETATM    1  N   UNL     1      41.998 -13.902   2.872  1.00  0.00    -0.332 N 
HETATM    2  H   UNL     1      42.774 -13.243   2.979  1.00  0.00     0.168 HD
ENDROOT
BRANCH   1   3
HETATM    3  C   UNL     1      41.079 -13.774   3.899  1.00  0.00     0.178 C 
HETATM    4  S   UNL     1      39.790 -12.724   4.043  1.00  0.00    -0.040 SA
BRANCH   3   5
HETATM    5  N   UNL     1      41.224 -14.702   4.922  1.00  0.00    -0.303 N 
HETATM    6  C   UNL     1      42.264 -14.803   5.837  1.00  0.00     0.228 C 
HETATM    7  O   UNL     1      43.076 -13.898   6.027  1.00  0.00    -0.273 OA
HETATM    8  H   UNL     1      40.643 -15.523   4.793  1.00  0.00     0.171 HD
BRANCH   6   9
HETATM    9  C   UNL     1      42.294 -16.093   6.634  1.00  0.00     0.141 C 
BRANCH   9  10
HETATM   10  C   UNL     1      43.128 -17.215   6.052  1.00  0.00    -0.049 A 
HETATM   11  C   UNL     1      44.460 -17.446   6.427  1.00  0.00     0.010 A 
HETATM   12  C   UNL     1      45.188 -18.509   5.877  1.00  0.00     0.037 A 
HETATM   13  C   UNL     1      44.586 -19.379   4.970  1.00  0.00     0.068 A 
HETATM   14  C   UNL     1      43.248 -19.181   4.626  1.00  0.00     0.037 A 
HETATM   15  C   UNL     1      42.524 -18.112   5.160  1.00  0.00     0.010 A 
BRANCH  13  16
HETATM   16  O   UNL     1      45.178 -20.454   4.369  1.00  0.00    -0.356 OA
HETATM   17  C   UNL     1      44.785 -20.741   3.032  1.00  0.00     0.210 C 
ENDBRANCH  13  16
ENDBRANCH   9  10
ENDBRANCH   6   9
ENDBRANCH   3   5
ENDBRANCH   1   3
BRANCH   1  18
HETATM   18  C   UNL     1      42.336 -15.072   2.144  1.00  0.00     0.050 A 
HETATM   19  C   UNL     1      41.600 -15.654   1.096  1.00  0.00     0.058 A 
HETATM   20  C   UNL     1      42.032 -16.874   0.544  1.00  0.00     0.019 A 
HETATM   21  C   UNL     1      43.207 -17.486   0.979  1.00  0.00     0.001 A 
HETATM   22  C   UNL     1      43.977 -16.872   1.959  1.00  0.00     0.002 A 
HETATM   23  C   UNL     1      43.549 -15.672   2.529  1.00  0.00     0.030 A 
BRANCH  19  24
HETATM   24  C   UNL     1      40.467 -15.010   0.376  1.00  0.00     0.253 C 
HETATM   25  N   UNL     1      40.580 -14.942  -0.998  1.00  0.00    -0.357 N 
HETATM   26  H   UNL     1      41.424 -15.289  -1.436  1.00  0.00     0.162 HD
HETATM   27  O   UNL     1      39.460 -14.670   0.985  1.00  0.00    -0.268 OA
BRANCH  25  28
HETATM   28  C   UNL     1      39.515 -14.420  -1.826  1.00  0.00     0.125 C 
BRANCH  28  29
HETATM   29  C   UNL     1      39.908 -14.279  -3.293  1.00  0.00     0.046 C 
BRANCH  29  30
HETATM   30  C   UNL     1      41.358 -13.863  -3.502  1.00  0.00     0.165 C 
BRANCH  30  31
HETATM   31  O   UNL     1      42.174 -15.030  -3.586  1.00  0.00    -0.401 OA
HETATM   32  H   UNL     1      43.067 -14.737  -3.834  1.00  0.00     0.209 HD
ENDBRANCH  30  31
ENDBRANCH  29  30
ENDBRANCH  28  29
ENDBRANCH  25  28
ENDBRANCH  19  24
ENDBRANCH   1  18
TORSDOF 11
ENDMDL
MODEL 4
REMARK VINA RESULT:      -7.3      3.191      4.933
REMARK  11 active torsions:
REMARK  status: ('A' for Active; 'I' for Inactive)
REMARK    1  A    between atoms: O_2  and  C_3 
REMARK    2  A    between atoms: C_6  and  C_7 
REMARK    3  A    between atoms: C_7  and  C_8 
REMARK       I    between atoms: C_8  and  N_9 
REMARK    4  A    between atoms: N_9  and  C_10 
REMARK    5  A    between atoms: C_10  and  N_11 
REMARK    6  A    between atoms: N_11  and  C_12 
REMARK    7  A    between atoms: C_13  and  C_14 
REMARK       I    between atoms: C_14  and  N_15 
REMARK    8  A    between atoms: N_15  and  C_16 
REMARK    9  A    between atoms: C_16  and  C_17 
REMARK   10  A    between atoms: C_17  and  C_18 
REMARK   11  A    between atoms: C_18  and  O_19 
ROOT
HETATM    1  N   UNL     1      40.005 -15.380   0.603  1.00  0.00    -0.332 N 
HETATM    2  H   UNL     1      40.127 -16.105   1.315  1.00  0.00     0.168 HD
ENDROOT
BRANCH   1   3
HETATM    3  C   UNL     1      40.938 -15.506  -0.412  1.00  0.00     0.178 C 
HETATM    4  S   UNL     1      40.878 -14.946  -1.983  1.00  0.00    -0.040 SA
BRANCH   3   5
HETATM    5  N   UNL     1      42.117 -16.137  -0.037  1.00  0.00    -0.303 N 
HETATM    6  C   UNL     1      42.301 -17.051   0.992  1.00  0.00     0.228 C 
HETATM    7  O   UNL     1      41.366 -17.630   1.547  1.00  0.00    -0.273 OA
HETATM    8  H   UNL     1      42.944 -15.667  -0.388  1.00  0.00     0.171 HD
BRANCH   6   9
HETATM    9  C   UNL     1      43.748 -17.333   1.351  1.00  0.00     0.141 C 
BRANCH   9  10
HETATM   10  C   UNL     1      43.974 -18.271   2.517  1.00  0.00    -0.049 A 
HETATM   11  C   UNL     1      43.895 -17.854   3.854  1.00  0.00     0.010 A 
HETATM   12  C   UNL     1      44.092 -18.762   4.903  1.00  0.00     0.037 A 
HETATM   13  C   UNL     1      44.335 -20.108   4.633  1.00  0.00     0.068 A 
HETATM   14  C   UNL     1      44.370 -20.537   3.306  1.00  0.00     0.037 A 
HETATM   15  C   UNL     1      44.192 -19.631   2.257  1.00  0.00     0.010 A 
BRANCH  13  16
HETATM   16  O   UNL     1      44.535 -21.093   5.558  1.00  0.00    -0.356 OA
HETATM   17  C   UNL     1      45.104 -22.309   5.091  1.00  0.00     0.210 C 
ENDBRANCH  13  16
ENDBRANCH   9  10
ENDBRANCH   6   9
ENDBRANCH   3   5
ENDBRANCH   1   3
BRANCH   1  18
HETATM   18  C   UNL     1      39.402 -14.192   1.089  1.00  0.00     0.050 A 
HETATM   19  C   UNL     1      39.799 -13.444   2.212  1.00  0.00     0.058 A 
HETATM   20  C   UNL     1      39.027 -12.337   2.613  1.00  0.00     0.019 A 
HETATM   21  C   UNL     1      37.909 -11.936   1.882  1.00  0.00     0.001 A 
HETATM   22  C   UNL     1      37.561 -12.626   0.728  1.00  0.00     0.002 A 
HETATM   23  C   UNL     1      38.307 -13.738   0.332  1.00  0.00     0.030 A 
BRANCH  19  24
HETATM   24  C   UNL     1      41.083 -13.607   2.947  1.00  0.00     0.253 C 
HETATM   25  N   UNL     1      41.004 -13.571   4.325  1.00  0.00    -0.357 N 
HETATM   26  H   UNL     1      40.105 -13.401   4.758  1.00  0.00     0.162 HD
HETATM   27  O   UNL     1      42.116 -13.865   2.339  1.00  0.00    -0.268 OA
BRANCH  25  28
HETATM   28  C   UNL     1      42.162 -13.802   5.161  1.00  0.00     0.125 C 
BRANCH  28  29
HETATM   29  C   UNL     1      42.245 -15.230   5.692  1.00  0.00     0.046 C 
BRANCH  29  30
HETATM   30  C   UNL     1      40.902 -15.948   5.731  1.00  0.00     0.165 C 
BRANCH  30  31
HETATM   31  O   UNL     1      40.710 -16.653   4.506  1.00  0.00    -0.401 OA
HETATM   32  H   UNL     1      41.197 -17.490   4.579  1.00  0.00     0.209 HD
ENDBRANCH  30  31
ENDBRANCH  29  30
ENDBRANCH  28  29
ENDBRANCH  25  28
ENDBRANCH  19  24
ENDBRANCH   1  18
TORSDOF 11
ENDMDL
MODEL 5
REMARK VINA RESULT:      -7.3      2.121      3.413
REMARK  11 active torsions:
REMARK  status: ('A' for Active; 'I' for Inactive)
REMARK    1  A    between atoms: O_2  and  C_3 
REMARK    2  A    between atoms: C_6  and  C_7 
REMARK    3  A    between atoms: C_7  and  C_8 
REMARK       I    between atoms: C_8  and  N_9 
REMARK    4  A    between atoms: N_9  and  C_10 
REMARK    5  A    between atoms: C_10  and  N_11 
REMARK    6  A    between atoms: N_11  and  C_12 
REMARK    7  A    between atoms: C_13  and  C_14 
REMARK       I    between atoms: C_14  and  N_15 
REMARK    8  A    between atoms: N_15  and  C_16 
REMARK    9  A    between atoms: C_16  and  C_17 
REMARK   10  A    between atoms: C_17  and  C_18 
REMARK   11  A    between atoms: C_18  and  O_19 
ROOT
HETATM    1  N   UNL     1      39.879 -15.181   2.967  1.00  0.00    -0.332 N 
HETATM    2  H   UNL     1      40.060 -16.124   3.321  1.00  0.00     0.168 HD
ENDROOT
BRANCH   1   3
HETATM    3  C   UNL     1      40.344 -15.029   1.672  1.00  0.00     0.178 C 
HETATM    4  S   UNL     1      39.689 -14.163   0.405  1.00  0.00    -0.040 SA
BRANCH   3   5
HETATM    5  N   UNL     1      41.568 -15.637   1.424  1.00  0.00    -0.303 N 
HETATM    6  C   UNL     1      41.834 -16.995   1.313  1.00  0.00     0.228 C 
HETATM    7  O   UNL     1      40.951 -17.839   1.156  1.00  0.00    -0.273 OA
HETATM    8  H   UNL     1      42.356 -15.027   1.612  1.00  0.00     0.171 HD
BRANCH   6   9
HETATM    9  C   UNL     1      43.305 -17.366   1.342  1.00  0.00     0.141 C 
BRANCH   9  10
HETATM   10  C   UNL     1      43.698 -18.453   2.320  1.00  0.00    -0.049 A 
HETATM   11  C   UNL     1      43.968 -19.771   1.923  1.00  0.00     0.010 A 
HETATM   12  C   UNL     1      44.347 -20.741   2.861  1.00  0.00     0.037 A 
HETATM   13  C   UNL     1      44.499 -20.400   4.203  1.00  0.00     0.068 A 
HETATM   14  C   UNL     1      44.275 -19.080   4.597  1.00  0.00     0.037 A 
HETATM   15  C   UNL     1      43.879 -18.115   3.668  1.00  0.00     0.010 A 
BRANCH  13  16
HETATM   16  O   UNL     1      44.870 -21.243   5.213  1.00  0.00    -0.356 OA
HETATM   17  C   UNL     1      44.110 -21.184   6.413  1.00  0.00     0.210 C 
ENDBRANCH  13  16
ENDBRANCH   9  10
ENDBRANCH   6   9
ENDBRANCH   3   5
ENDBRANCH   1   3
BRANCH   1  18
HETATM   18  C   UNL     1      39.784 -14.194   3.982  1.00  0.00     0.050 A 
HETATM   19  C   UNL     1      40.095 -14.354   5.344  1.00  0.00     0.058 A 
HETATM   20  C   UNL     1      39.853 -13.293   6.237  1.00  0.00     0.019 A 
HETATM   21  C   UNL     1      39.364 -12.068   5.784  1.00  0.00     0.001 A 
HETATM   22  C   UNL     1      39.131 -11.883   4.428  1.00  0.00     0.002 A 
HETATM   23  C   UNL     1      39.348 -12.934   3.534  1.00  0.00     0.030 A 
BRANCH  19  24
HETATM   24  C   UNL     1      40.830 -15.507   5.932  1.00  0.00     0.253 C 
HETATM   25  N   UNL     1      42.167 -15.299   6.208  1.00  0.00    -0.357 N 
HETATM   26  H   UNL     1      42.582 -14.408   5.968  1.00  0.00     0.162 HD
HETATM   27  O   UNL     1      40.231 -16.531   6.241  1.00  0.00    -0.268 OA
BRANCH  25  28
HETATM   28  C   UNL     1      42.976 -16.307   6.859  1.00  0.00     0.125 C 
BRANCH  28  29
HETATM   29  C   UNL     1      44.464 -15.968   6.868  1.00  0.00     0.046 C 
BRANCH  29  30
HETATM   30  C   UNL     1      44.753 -14.480   7.022  1.00  0.00     0.165 C 
BRANCH  30  31
HETATM   31  O   UNL     1      44.309 -14.046   8.306  1.00  0.00    -0.401 OA
HETATM   32  H   UNL     1      43.876 -13.185   8.184  1.00  0.00     0.209 HD
ENDBRANCH  30  31
ENDBRANCH  29  30
ENDBRANCH  28  29
ENDBRANCH  25  28
ENDBRANCH  19  24
ENDBRANCH   1  18
TORSDOF 11
ENDMDL
MODEL 6
REMARK VINA RESULT:      -7.3      2.529      3.507
REMARK  11 active torsions:
REMARK  status: ('A' for Active; 'I' for Inactive)
REMARK    1  A    between atoms: O_2  and  C_3 
REMARK    2  A    between atoms: C_6  and  C_7 
REMARK    3  A    between atoms: C_7  and  C_8 
REMARK       I    between atoms: C_8  and  N_9 
REMARK    4  A    between atoms: N_9  and  C_10 
REMARK    5  A    between atoms: C_10  and  N_11 
REMARK    6  A    between atoms: N_11  and  C_12 
REMARK    7  A    between atoms: C_13  and  C_14 
REMARK       I    between atoms: C_14  and  N_15 
REMARK    8  A    between atoms: N_15  and  C_16 
REMARK    9  A    between atoms: C_16  and  C_17 
REMARK   10  A    between atoms: C_17  and  C_18 
REMARK   11  A    between atoms: C_18  and  O_19 
ROOT
HETATM    1  N   UNL     1      40.220 -15.731   4.161  1.00  0.00    -0.332 N 
HETATM    2  H   UNL     1      39.436 -16.366   4.334  1.00  0.00     0.168 HD
ENDROOT
BRANCH   1   3
HETATM    3  C   UNL     1      40.347 -15.438   2.814  1.00  0.00     0.178 C 
HETATM    4  S   UNL     1      39.377 -14.494   1.838  1.00  0.00    -0.040 SA
BRANCH   3   5
HETATM    5  N   UNL     1      41.487 -15.959   2.216  1.00  0.00    -0.303 N 
HETATM    6  C   UNL     1      41.608 -17.149   1.512  1.00  0.00     0.228 C 
HETATM    7  O   UNL     1      40.637 -17.780   1.094  1.00  0.00    -0.273 OA
HETATM    8  H   UNL     1      42.342 -15.545   2.572  1.00  0.00     0.171 HD
BRANCH   6   9
HETATM    9  C   UNL     1      43.033 -17.593   1.241  1.00  0.00     0.141 C 
BRANCH   9  10
HETATM   10  C   UNL     1      43.640 -18.537   2.258  1.00  0.00    -0.049 A 
HETATM   11  C   UNL     1      43.918 -18.154   3.578  1.00  0.00     0.010 A 
HETATM   12  C   UNL     1      44.463 -19.067   4.492  1.00  0.00     0.037 A 
HETATM   13  C   UNL     1      44.705 -20.385   4.110  1.00  0.00     0.068 A 
HETATM   14  C   UNL     1      44.390 -20.783   2.810  1.00  0.00     0.037 A 
HETATM   15  C   UNL     1      43.863 -19.871   1.892  1.00  0.00     0.010 A 
BRANCH  13  16
HETATM   16  O   UNL     1      45.222 -21.372   4.901  1.00  0.00    -0.356 OA
HETATM   17  C   UNL     1      44.749 -22.694   4.673  1.00  0.00     0.210 C 
ENDBRANCH  13  16
ENDBRANCH   9  10
ENDBRANCH   6   9
ENDBRANCH   3   5
ENDBRANCH   1   3
BRANCH   1  18
HETATM   18  C   UNL     1      41.245 -15.806   5.138  1.00  0.00     0.050 A 
HETATM   19  C   UNL     1      42.221 -14.831   5.412  1.00  0.00     0.058 A 
HETATM   20  C   UNL     1      43.229 -15.108   6.355  1.00  0.00     0.019 A 
HETATM   21  C   UNL     1      43.241 -16.309   7.064  1.00  0.00     0.001 A 
HETATM   22  C   UNL     1      42.233 -17.240   6.852  1.00  0.00     0.002 A 
HETATM   23  C   UNL     1      41.239 -16.986   5.904  1.00  0.00     0.030 A 
BRANCH  19  24
HETATM   24  C   UNL     1      42.205 -13.429   4.913  1.00  0.00     0.253 C 
HETATM   25  N   UNL     1      41.207 -12.617   5.413  1.00  0.00    -0.357 N 
HETATM   26  H   UNL     1      40.528 -13.014   6.049  1.00  0.00     0.162 HD
HETATM   27  O   UNL     1      43.103 -13.020   4.185  1.00  0.00    -0.268 OA
BRANCH  25  28
HETATM   28  C   UNL     1      41.127 -11.212   5.077  1.00  0.00     0.125 C 
BRANCH  28  29
HETATM   29  C   UNL     1      40.312 -10.942   3.815  1.00  0.00     0.046 C 
BRANCH  29  30
HETATM   30  C   UNL     1      38.842 -10.649   4.086  1.00  0.00     0.165 C 
BRANCH  30  31
HETATM   31  O   UNL     1      38.313 -11.657   4.946  1.00  0.00    -0.401 OA
HETATM   32  H   UNL     1      38.522 -12.516   4.543  1.00  0.00     0.209 HD
ENDBRANCH  30  31
ENDBRANCH  29  30
ENDBRANCH  28  29
ENDBRANCH  25  28
ENDBRANCH  19  24
ENDBRANCH   1  18
TORSDOF 11
ENDMDL
MODEL 7
REMARK VINA RESULT:      -6.9      2.989      3.349
REMARK  11 active torsions:
REMARK  status: ('A' for Active; 'I' for Inactive)
REMARK    1  A    between atoms: O_2  and  C_3 
REMARK    2  A    between atoms: C_6  and  C_7 
REMARK    3  A    between atoms: C_7  and  C_8 
REMARK       I    between atoms: C_8  and  N_9 
REMARK    4  A    between atoms: N_9  and  C_10 
REMARK    5  A    between atoms: C_10  and  N_11 
REMARK    6  A    between atoms: N_11  and  C_12 
REMARK    7  A    between atoms: C_13  and  C_14 
REMARK       I    between atoms: C_14  and  N_15 
REMARK    8  A    between atoms: N_15  and  C_16 
REMARK    9  A    between atoms: C_16  and  C_17 
REMARK   10  A    between atoms: C_17  and  C_18 
REMARK   11  A    between atoms: C_18  and  O_19 
ROOT
HETATM    1  N   UNL     1      40.175 -15.851   3.111  1.00  0.00    -0.332 N 
HETATM    2  H   UNL     1      39.419 -16.497   2.869  1.00  0.00     0.168 HD
ENDROOT
BRANCH   1   3
HETATM    3  C   UNL     1      40.749 -15.297   1.979  1.00  0.00     0.178 C 
HETATM    4  S   UNL     1      40.297 -13.942   1.115  1.00  0.00    -0.040 SA
BRANCH   3   5
HETATM    5  N   UNL     1      41.905 -15.935   1.547  1.00  0.00    -0.303 N 
HETATM    6  C   UNL     1      42.054 -17.267   1.183  1.00  0.00     0.228 C 
HETATM    7  O   UNL     1      41.099 -18.005   0.940  1.00  0.00    -0.273 OA
HETATM    8  H   UNL     1      42.748 -15.426   1.787  1.00  0.00     0.171 HD
BRANCH   6   9
HETATM    9  C   UNL     1      43.490 -17.739   1.049  1.00  0.00     0.141 C 
BRANCH   9  10
HETATM   10  C   UNL     1      43.886 -18.918   1.913  1.00  0.00    -0.049 A 
HETATM   11  C   UNL     1      44.335 -18.775   3.234  1.00  0.00     0.010 A 
HETATM   12  C   UNL     1      44.673 -19.896   4.003  1.00  0.00     0.037 A 
HETATM   13  C   UNL     1      44.533 -21.179   3.477  1.00  0.00     0.068 A 
HETATM   14  C   UNL     1      44.045 -21.329   2.179  1.00  0.00     0.037 A 
HETATM   15  C   UNL     1      43.724 -20.213   1.403  1.00  0.00     0.010 A 
BRANCH  13  16
HETATM   16  O   UNL     1      44.817 -22.351   4.121  1.00  0.00    -0.356 OA
HETATM   17  C   UNL     1      44.888 -22.304   5.540  1.00  0.00     0.210 C 
ENDBRANCH  13  16
ENDBRANCH   9  10
ENDBRANCH   6   9
ENDBRANCH   3   5
ENDBRANCH   1   3
BRANCH   1  18
HETATM   18  C   UNL     1      40.796 -16.132   4.354  1.00  0.00     0.050 A 
HETATM   19  C   UNL     1      41.044 -15.222   5.397  1.00  0.00     0.058 A 
HETATM   20  C   UNL     1      41.759 -15.649   6.532  1.00  0.00     0.019 A 
HETATM   21  C   UNL     1      42.175 -16.973   6.664  1.00  0.00     0.001 A 
HETATM   22  C   UNL     1      41.862 -17.892   5.671  1.00  0.00     0.002 A 
HETATM   23  C   UNL     1      41.171 -17.476   4.531  1.00  0.00     0.030 A 
BRANCH  19  24
HETATM   24  C   UNL     1      40.468 -13.853   5.503  1.00  0.00     0.253 C 
HETATM   25  N   UNL     1      39.969 -13.497   6.739  1.00  0.00    -0.357 N 
HETATM   26  H   UNL     1      39.981 -14.180   7.486  1.00  0.00     0.162 HD
HETATM   27  O   UNL     1      40.548 -13.073   4.560  1.00  0.00    -0.268 OA
BRANCH  25  28
HETATM   28  C   UNL     1      39.459 -12.169   7.002  1.00  0.00     0.125 C 
BRANCH  28  29
HETATM   29  C   UNL     1      39.394 -11.834   8.490  1.00  0.00     0.046 C 
BRANCH  29  30
HETATM   30  C   UNL     1      39.115 -10.363   8.775  1.00  0.00     0.165 C 
BRANCH  30  31
HETATM   31  O   UNL     1      37.941 -10.255   9.577  1.00  0.00    -0.401 OA
HETATM   32  H   UNL     1      38.181  -9.745  10.369  1.00  0.00     0.209 HD
ENDBRANCH  30  31
ENDBRANCH  29  30
ENDBRANCH  28  29
ENDBRANCH  25  28
ENDBRANCH  19  24
ENDBRANCH   1  18
TORSDOF 11
ENDMDL
MODEL 8
REMARK VINA RESULT:      -6.9      3.402      7.137
REMARK  11 active torsions:
REMARK  status: ('A' for Active; 'I' for Inactive)
REMARK    1  A    between atoms: O_2  and  C_3 
REMARK    2  A    between atoms: C_6  and  C_7 
REMARK    3  A    between atoms: C_7  and  C_8 
REMARK       I    between atoms: C_8  and  N_9 
REMARK    4  A    between atoms: N_9  and  C_10 
REMARK    5  A    between atoms: C_10  and  N_11 
REMARK    6  A    between atoms: N_11  and  C_12 
REMARK    7  A    between atoms: C_13  and  C_14 
REMARK       I    between atoms: C_14  and  N_15 
REMARK    8  A    between atoms: N_15  and  C_16 
REMARK    9  A    between atoms: C_16  and  C_17 
REMARK   10  A    between atoms: C_17  and  C_18 
REMARK   11  A    between atoms: C_18  and  O_19 
ROOT
HETATM    1  N   UNL     1      39.479 -16.262   1.813  1.00  0.00    -0.332 N 
HETATM    2  H   UNL     1      38.831 -16.766   1.202  1.00  0.00     0.168 HD
ENDROOT
BRANCH   1   3
HETATM    3  C   UNL     1      39.073 -14.953   2.011  1.00  0.00     0.178 C 
HETATM    4  S   UNL     1      38.048 -14.010   1.091  1.00  0.00    -0.040 SA
BRANCH   3   5
HETATM    5  N   UNL     1      39.542 -14.375   3.183  1.00  0.00    -0.303 N 
HETATM    6  C   UNL     1      40.738 -13.695   3.375  1.00  0.00     0.228 C 
HETATM    7  O   UNL     1      41.428 -13.282   2.444  1.00  0.00    -0.273 OA
HETATM    8  H   UNL     1      39.075 -14.729   4.011  1.00  0.00     0.171 HD
BRANCH   6   9
HETATM    9  C   UNL     1      41.108 -13.445   4.825  1.00  0.00     0.141 C 
BRANCH   9  10
HETATM   10  C   UNL     1      41.551 -14.657   5.617  1.00  0.00    -0.049 A 
HETATM   11  C   UNL     1      40.659 -15.649   6.050  1.00  0.00     0.010 A 
HETATM   12  C   UNL     1      41.116 -16.765   6.764  1.00  0.00     0.037 A 
HETATM   13  C   UNL     1      42.476 -16.924   7.026  1.00  0.00     0.068 A 
HETATM   14  C   UNL     1      43.373 -15.962   6.560  1.00  0.00     0.037 A 
HETATM   15  C   UNL     1      42.919 -14.840   5.863  1.00  0.00     0.010 A 
BRANCH  13  16
HETATM   16  O   UNL     1      43.051 -17.964   7.701  1.00  0.00    -0.356 OA
HETATM   17  C   UNL     1      44.197 -18.561   7.107  1.00  0.00     0.210 C 
ENDBRANCH  13  16
ENDBRANCH   9  10
ENDBRANCH   6   9
ENDBRANCH   3   5
ENDBRANCH   1   3
BRANCH   1  18
HETATM   18  C   UNL     1      40.803 -16.770   1.791  1.00  0.00     0.050 A 
HETATM   19  C   UNL     1      41.724 -16.676   0.732  1.00  0.00     0.058 A 
HETATM   20  C   UNL     1      42.970 -17.321   0.840  1.00  0.00     0.019 A 
HETATM   21  C   UNL     1      43.329 -18.003   2.003  1.00  0.00     0.001 A 
HETATM   22  C   UNL     1      42.452 -18.030   3.080  1.00  0.00     0.002 A 
HETATM   23  C   UNL     1      41.205 -17.411   2.977  1.00  0.00     0.030 A 
BRANCH  19  24
HETATM   24  C   UNL     1      41.578 -15.800  -0.463  1.00  0.00     0.253 C 
HETATM   25  N   UNL     1      41.926 -14.475  -0.292  1.00  0.00    -0.357 N 
HETATM   26  H   UNL     1      42.218 -14.162   0.624  1.00  0.00     0.162 HD
HETATM   27  O   UNL     1      41.270 -16.280  -1.548  1.00  0.00    -0.268 OA
BRANCH  25  28
HETATM   28  C   UNL     1      41.913 -13.536  -1.392  1.00  0.00     0.125 C 
BRANCH  28  29
HETATM   29  C   UNL     1      40.513 -13.271  -1.940  1.00  0.00     0.046 C 
BRANCH  29  30
HETATM   30  C   UNL     1      40.389 -13.503  -3.441  1.00  0.00     0.165 C 
BRANCH  30  31
HETATM   31  O   UNL     1      41.420 -14.393  -3.865  1.00  0.00    -0.401 OA
HETATM   32  H   UNL     1      42.191 -13.848  -4.096  1.00  0.00     0.209 HD
ENDBRANCH  30  31
ENDBRANCH  29  30
ENDBRANCH  28  29
ENDBRANCH  25  28
ENDBRANCH  19  24
ENDBRANCH   1  18
TORSDOF 11
ENDMDL
MODEL 9
REMARK VINA RESULT:      -6.9      1.963      2.600
REMARK  11 active torsions:
REMARK  status: ('A' for Active; 'I' for Inactive)
REMARK    1  A    between atoms: O_2  and  C_3 
REMARK    2  A    between atoms: C_6  and  C_7 
REMARK    3  A    between atoms: C_7  and  C_8 
REMARK       I    between atoms: C_8  and  N_9 
REMARK    4  A    between atoms: N_9  and  C_10 
REMARK    5  A    between atoms: C_10  and  N_11 
REMARK    6  A    between atoms: N_11  and  C_12 
REMARK    7  A    between atoms: C_13  and  C_14 
REMARK       I    between atoms: C_14  and  N_15 
REMARK    8  A    between atoms: N_15  and  C_16 
REMARK    9  A    between atoms: C_16  and  C_17 
REMARK   10  A    between atoms: C_17  and  C_18 
REMARK   11  A    between atoms: C_18  and  O_19 
ROOT
HETATM    1  N   UNL     1      40.739 -14.804   5.695  1.00  0.00    -0.332 N 
HETATM    2  H   UNL     1      39.883 -15.123   6.156  1.00  0.00     0.168 HD
ENDROOT
BRANCH   1   3
HETATM    3  C   UNL     1      40.464 -13.881   4.700  1.00  0.00     0.178 C 
HETATM    4  S   UNL     1      39.570 -12.474   4.778  1.00  0.00    -0.040 SA
BRANCH   3   5
HETATM    5  N   UNL     1      41.080 -14.142   3.484  1.00  0.00    -0.303 N 
HETATM    6  C   UNL     1      40.529 -14.758   2.367  1.00  0.00     0.228 C 
HETATM    7  O   UNL     1      39.317 -14.915   2.221  1.00  0.00    -0.273 OA
HETATM    8  H   UNL     1      42.093 -14.114   3.541  1.00  0.00     0.171 HD
BRANCH   6   9
HETATM    9  C   UNL     1      41.529 -15.174   1.305  1.00  0.00     0.141 C 
BRANCH   9  10
HETATM   10  C   UNL     1      42.231 -16.496   1.534  1.00  0.00    -0.049 A 
HETATM   11  C   UNL     1      43.590 -16.586   1.870  1.00  0.00     0.010 A 
HETATM   12  C   UNL     1      44.194 -17.831   2.092  1.00  0.00     0.037 A 
HETATM   13  C   UNL     1      43.442 -19.002   2.017  1.00  0.00     0.068 A 
HETATM   14  C   UNL     1      42.080 -18.915   1.726  1.00  0.00     0.037 A 
HETATM   15  C   UNL     1      41.479 -17.677   1.487  1.00  0.00     0.010 A 
BRANCH  13  16
HETATM   16  O   UNL     1      43.904 -20.272   2.218  1.00  0.00    -0.356 OA
HETATM   17  C   UNL     1      44.850 -20.455   3.264  1.00  0.00     0.210 C 
ENDBRANCH  13  16
ENDBRANCH   9  10
ENDBRANCH   6   9
ENDBRANCH   3   5
ENDBRANCH   1   3
BRANCH   1  18
HETATM   18  C   UNL     1      41.802 -15.742   5.744  1.00  0.00     0.050 A 
HETATM   19  C   UNL     1      43.174 -15.455   5.864  1.00  0.00     0.058 A 
HETATM   20  C   UNL     1      44.107 -16.507   5.801  1.00  0.00     0.019 A 
HETATM   21  C   UNL     1      43.692 -17.833   5.680  1.00  0.00     0.001 A 
HETATM   22  C   UNL     1      42.334 -18.124   5.641  1.00  0.00     0.002 A 
HETATM   23  C   UNL     1      41.399 -17.088   5.682  1.00  0.00     0.030 A 
BRANCH  19  24
HETATM   24  C   UNL     1      43.750 -14.131   6.226  1.00  0.00     0.253 C 
HETATM   25  N   UNL     1      43.838 -13.855   7.575  1.00  0.00    -0.357 N 
HETATM   26  H   UNL     1      43.480 -14.532   8.236  1.00  0.00     0.162 HD
HETATM   27  O   UNL     1      44.212 -13.399   5.358  1.00  0.00    -0.268 OA
BRANCH  25  28
HETATM   28  C   UNL     1      44.456 -12.642   8.066  1.00  0.00     0.125 C 
BRANCH  28  29
HETATM   29  C   UNL     1      45.889 -12.851   8.547  1.00  0.00     0.046 C 
BRANCH  29  30
HETATM   30  C   UNL     1      46.939 -12.242   7.626  1.00  0.00     0.165 C 
BRANCH  30  31
HETATM   31  O   UNL     1      46.918 -12.925   6.374  1.00  0.00    -0.401 OA
HETATM   32  H   UNL     1      46.308 -13.676   6.468  1.00  0.00     0.209 HD
ENDBRANCH  30  31
ENDBRANCH  29  30
ENDBRANCH  28  29
ENDBRANCH  25  28
ENDBRANCH  19  24
ENDBRANCH   1  18
TORSDOF 11
ENDMDL
MODEL 10
REMARK VINA RESULT:      -6.8      2.546      6.095
REMARK  11 active torsions:
REMARK  status: ('A' for Active; 'I' for Inactive)
REMARK    1  A    between atoms: O_2  and  C_3 
REMARK    2  A    between atoms: C_6  and  C_7 
REMARK    3  A    between atoms: C_7  and  C_8 
REMARK       I    between atoms: C_8  and  N_9 
REMARK    4  A    between atoms: N_9  and  C_10 
REMARK    5  A    between atoms: C_10  and  N_11 
REMARK    6  A    between atoms: N_11  and  C_12 
REMARK    7  A    between atoms: C_13  and  C_14 
REMARK       I    between atoms: C_14  and  N_15 
REMARK    8  A    between atoms: N_15  and  C_16 
REMARK    9  A    between atoms: C_16  and  C_17 
REMARK   10  A    between atoms: C_17  and  C_18 
REMARK   11  A    between atoms: C_18  and  O_19 
ROOT
HETATM    1  N   UNL     1      42.953 -13.680   3.065  1.00  0.00    -0.332 N 
HETATM    2  H   UNL     1      43.895 -13.280   3.059  1.00  0.00     0.168 HD
ENDROOT
BRANCH   1   3
HETATM    3  C   UNL     1      42.253 -13.306   4.200  1.00  0.00     0.178 C 
HETATM    4  S   UNL     1      41.262 -11.986   4.447  1.00  0.00    -0.040 SA
BRANCH   3   5
HETATM    5  N   UNL     1      42.346 -14.202   5.256  1.00  0.00    -0.303 N 
HETATM    6  C   UNL     1      43.481 -14.551   5.977  1.00  0.00     0.228 C 
HETATM    7  O   UNL     1      44.523 -13.896   5.940  1.00  0.00    -0.273 OA
HETATM    8  H   UNL     1      41.557 -14.838   5.304  1.00  0.00     0.171 HD
BRANCH   6   9
HETATM    9  C   UNL     1      43.329 -15.772   6.864  1.00  0.00     0.141 C 
BRANCH   9  10
HETATM   10  C   UNL     1      43.610 -17.108   6.211  1.00  0.00    -0.049 A 
HETATM   11  C   UNL     1      42.651 -17.804   5.460  1.00  0.00     0.010 A 
HETATM   12  C   UNL     1      42.962 -19.030   4.856  1.00  0.00     0.037 A 
HETATM   13  C   UNL     1      44.245 -19.562   4.963  1.00  0.00     0.068 A 
HETATM   14  C   UNL     1      45.216 -18.853   5.671  1.00  0.00     0.037 A 
HETATM   15  C   UNL     1      44.905 -17.639   6.289  1.00  0.00     0.010 A 
BRANCH  13  16
HETATM   16  O   UNL     1      44.679 -20.737   4.418  1.00  0.00    -0.356 OA
HETATM   17  C   UNL     1      44.802 -21.848   5.297  1.00  0.00     0.210 C 
ENDBRANCH  13  16
ENDBRANCH   9  10
ENDBRANCH   6   9
ENDBRANCH   3   5
ENDBRANCH   1   3
BRANCH   1  18
HETATM   18  C   UNL     1      42.834 -14.883   2.324  1.00  0.00     0.050 A 
HETATM   19  C   UNL     1      41.832 -15.202   1.390  1.00  0.00     0.058 A 
HETATM   20  C   UNL     1      41.809 -16.484   0.811  1.00  0.00     0.019 A 
HETATM   21  C   UNL     1      42.797 -17.424   1.104  1.00  0.00     0.001 A 
HETATM   22  C   UNL     1      43.833 -17.084   1.965  1.00  0.00     0.002 A 
HETATM   23  C   UNL     1      43.855 -15.821   2.562  1.00  0.00     0.030 A 
BRANCH  19  24
HETATM   24  C   UNL     1      40.856 -14.239   0.809  1.00  0.00     0.253 C 
HETATM   25  N   UNL     1      39.760 -14.791   0.177  1.00  0.00    -0.357 N 
HETATM   26  H   UNL     1      39.693 -15.798   0.107  1.00  0.00     0.162 HD
HETATM   27  O   UNL     1      40.991 -13.034   0.992  1.00  0.00    -0.268 OA
BRANCH  25  28
HETATM   28  C   UNL     1      38.694 -13.970  -0.356  1.00  0.00     0.125 C 
BRANCH  28  29
HETATM   29  C   UNL     1      37.533 -13.787   0.617  1.00  0.00     0.046 C 
BRANCH  29  30
HETATM   30  C   UNL     1      37.333 -12.345   1.068  1.00  0.00     0.165 C 
BRANCH  30  31
HETATM   31  O   UNL     1      38.338 -12.009   2.023  1.00  0.00    -0.401 OA
HETATM   32  H   UNL     1      38.559 -11.072   1.888  1.00  0.00     0.209 HD
ENDBRANCH  30  31
ENDBRANCH  29  30
ENDBRANCH  28  29
ENDBRANCH  25  28
ENDBRANCH  19  24
ENDBRANCH   1  18
TORSDOF 11
ENDMDL
