MODEL 1
REMARK VINA RESULT:      -9.8      0.000      0.000
REMARK  10 active torsions:
REMARK  status: ('A' for Active; 'I' for Inactive)
REMARK    1  A    between atoms: C_4  and  C_5 
REMARK    2  A    between atoms: C_5  and  N_6 
REMARK    3  A    between atoms: C_7  and  S_8 
REMARK    4  A    between atoms: S_8  and  C_9 
REMARK    5  A    between atoms: C_9  and  C_10 
REMARK       I    between atoms: C_10  and  N_11 
REMARK    6  A    between atoms: N_11  and  C_12 
REMARK    7  A    between atoms: C_12  and  C_13 
REMARK       I    between atoms: C_13  and  N_14 
REMARK    8  A    between atoms: N_14  and  C_15 
REMARK    9  A    between atoms: C_26  and  C_27 
REMARK   10  A    between atoms: C_27  and  N_28 
ROOT
HETATM    1  N   UNL     1      42.245 -15.660   3.531  1.00  0.00    -0.306 N 
HETATM    2  C   UNL     1      42.844 -14.910   4.509  1.00  0.00     0.192 A 
HETATM    3  N   UNL     1      43.427 -13.867   3.968  1.00  0.00    -0.123 NA
HETATM    4  N   UNL     1      43.169 -13.890   2.625  1.00  0.00    -0.132 NA
HETATM    5  C   UNL     1      42.403 -14.932   2.366  1.00  0.00     0.157 A 
ENDROOT
BRANCH   2   6
HETATM    6  S   UNL     1      42.755 -15.271   6.193  1.00  0.00    -0.081 SA
BRANCH   6   7
HETATM    7  C   UNL     1      44.509 -15.327   6.651  1.00  0.00     0.185 C 
BRANCH   7   8
HETATM    8  C   UNL     1      45.008 -13.965   7.104  1.00  0.00     0.227 C 
HETATM    9  N   UNL     1      44.325 -13.431   8.176  1.00  0.00    -0.352 N 
HETATM   10  H   UNL     1      43.431 -13.816   8.451  1.00  0.00     0.162 HD
HETATM   11  O   UNL     1      45.959 -13.373   6.596  1.00  0.00    -0.273 OA
BRANCH   9  12
HETATM   12  C   UNL     1      44.769 -12.214   8.842  1.00  0.00     0.225 C 
BRANCH  12  13
HETATM   13  C   UNL     1      44.382 -12.159  10.325  1.00  0.00     0.239 C 
HETATM   14  N   UNL     1      43.474 -11.152  10.601  1.00  0.00    -0.326 N 
HETATM   15  H   UNL     1      43.125 -10.643   9.786  1.00  0.00     0.169 HD
HETATM   16  O   UNL     1      44.881 -12.935  11.135  1.00  0.00    -0.271 OA
BRANCH  14  17
HETATM   17  C   UNL     1      42.953 -10.771  11.849  1.00  0.00     0.035 A 
HETATM   18  C   UNL     1      43.616  -9.927  12.745  1.00  0.00     0.032 A 
HETATM   19  C   UNL     1      43.021  -9.586  13.963  1.00  0.00     0.044 A 
HETATM   20  C   UNL     1      41.770 -10.096  14.283  1.00  0.00     0.116 A 
HETATM   21  F   UNL     1      41.206  -9.779  15.456  1.00  0.00    -0.206 F 
HETATM   22  C   UNL     1      41.094 -10.932  13.405  1.00  0.00     0.044 A 
HETATM   23  C   UNL     1      41.684 -11.266  12.185  1.00  0.00     0.032 A 
ENDBRANCH  14  17
ENDBRANCH  12  13
ENDBRANCH   9  12
ENDBRANCH   7   8
ENDBRANCH   6   7
ENDBRANCH   2   6
BRANCH   1  24
HETATM   24  C   UNL     1      41.676 -16.994   3.663  1.00  0.00     0.171 C 
BRANCH  24  25
HETATM   25  C   UNL     1      42.677 -18.084   3.379  1.00  0.00    -0.040 A 
HETATM   26  C   UNL     1      43.493 -18.590   4.402  1.00  0.00     0.009 A 
HETATM   27  C   UNL     1      44.385 -19.633   4.149  1.00  0.00     0.001 A 
HETATM   28  C   UNL     1      44.462 -20.193   2.875  1.00  0.00     0.000 A 
HETATM   29  C   UNL     1      43.647 -19.712   1.855  1.00  0.00     0.001 A 
HETATM   30  C   UNL     1      42.761 -18.663   2.103  1.00  0.00     0.009 A 
ENDBRANCH  24  25
ENDBRANCH   1  24
BRANCH   5  31
HETATM   31  C   UNL     1      41.777 -15.249   1.052  1.00  0.00     0.315 C 
BRANCH  31  32
HETATM   32  N   UNL     1      40.529 -14.434   0.723  1.00  0.00    -0.064 N 
HETATM   33  H   UNL     1      40.722 -13.484   1.070  1.00  0.00     0.280 HD
HETATM   34  C   UNL     1      40.297 -14.379  -0.768  1.00  0.00     0.235 C 
HETATM   35  C   UNL     1      39.134 -13.453  -1.088  1.00  0.00     0.028 C 
HETATM   36  C   UNL     1      37.869 -13.851  -0.337  1.00  0.00     0.003 C 
HETATM   37  C   UNL     1      38.135 -13.958   1.159  1.00  0.00     0.028 C 
HETATM   38  C   UNL     1      39.290 -14.907   1.459  1.00  0.00     0.235 C 
ENDBRANCH  31  32
ENDBRANCH   5  31
TORSDOF 10
ENDMDL
MODEL 2
REMARK VINA RESULT:      -9.1      1.697      2.243
REMARK  10 active torsions:
REMARK  status: ('A' for Active; 'I' for Inactive)
REMARK    1  A    between atoms: C_4  and  C_5 
REMARK    2  A    between atoms: C_5  and  N_6 
REMARK    3  A    between atoms: C_7  and  S_8 
REMARK    4  A    between atoms: S_8  and  C_9 
REMARK    5  A    between atoms: C_9  and  C_10 
REMARK       I    between atoms: C_10  and  N_11 
REMARK    6  A    between atoms: N_11  and  C_12 
REMARK    7  A    between atoms: C_12  and  C_13 
REMARK       I    between atoms: C_13  and  N_14 
REMARK    8  A    between atoms: N_14  and  C_15 
REMARK    9  A    between atoms: C_26  and  C_27 
REMARK   10  A    between atoms: C_27  and  N_28 
ROOT
HETATM    1  N   UNL     1      41.889 -15.939   2.635  1.00  0.00    -0.306 N 
HETATM    2  C   UNL     1      41.109 -15.527   3.685  1.00  0.00     0.192 A 
HETATM    3  N   UNL     1      39.925 -15.175   3.242  1.00  0.00    -0.123 NA
HETATM    4  N   UNL     1      39.895 -15.405   1.894  1.00  0.00    -0.132 NA
HETATM    5  C   UNL     1      41.052 -15.925   1.534  1.00  0.00     0.157 A 
ENDROOT
BRANCH   2   6
HETATM    6  S   UNL     1      41.616 -15.559   5.333  1.00  0.00    -0.081 SA
BRANCH   6   7
HETATM    7  C   UNL     1      42.329 -13.903   5.531  1.00  0.00     0.185 C 
BRANCH   7   8
HETATM    8  C   UNL     1      43.576 -13.936   6.398  1.00  0.00     0.227 C 
HETATM    9  N   UNL     1      43.647 -12.933   7.341  1.00  0.00    -0.352 N 
HETATM   10  H   UNL     1      43.039 -12.127   7.272  1.00  0.00     0.162 HD
HETATM   11  O   UNL     1      44.455 -14.791   6.312  1.00  0.00    -0.273 OA
BRANCH   9  12
HETATM   12  C   UNL     1      44.686 -12.907   8.361  1.00  0.00     0.225 C 
BRANCH  12  13
HETATM   13  C   UNL     1      44.502 -11.781   9.387  1.00  0.00     0.239 C 
HETATM   14  N   UNL     1      43.516 -12.064  10.316  1.00  0.00    -0.326 N 
HETATM   15  H   UNL     1      43.109 -13.000  10.249  1.00  0.00     0.169 HD
HETATM   16  O   UNL     1      45.167 -10.753   9.318  1.00  0.00    -0.271 OA
BRANCH  14  17
HETATM   17  C   UNL     1      43.037 -11.244  11.350  1.00  0.00     0.035 A 
HETATM   18  C   UNL     1      43.860 -10.484  12.186  1.00  0.00     0.032 A 
HETATM   19  C   UNL     1      43.301  -9.682  13.186  1.00  0.00     0.044 A 
HETATM   20  C   UNL     1      41.923  -9.649  13.350  1.00  0.00     0.116 A 
HETATM   21  F   UNL     1      41.389  -8.891  14.316  1.00  0.00    -0.206 F 
HETATM   22  C   UNL     1      41.089 -10.393  12.527  1.00  0.00     0.044 A 
HETATM   23  C   UNL     1      41.646 -11.187  11.523  1.00  0.00     0.032 A 
ENDBRANCH  14  17
ENDBRANCH  12  13
ENDBRANCH   9  12
ENDBRANCH   7   8
ENDBRANCH   6   7
ENDBRANCH   2   6
BRANCH   1  24
HETATM   24  C   UNL     1      43.319 -16.210   2.648  1.00  0.00     0.171 C 
BRANCH  24  25
HETATM   25  C   UNL     1      43.634 -17.657   2.927  1.00  0.00    -0.040 A 
HETATM   26  C   UNL     1      43.634 -18.602   1.889  1.00  0.00     0.009 A 
HETATM   27  C   UNL     1      43.974 -19.933   2.140  1.00  0.00     0.001 A 
HETATM   28  C   UNL     1      44.333 -20.331   3.426  1.00  0.00     0.000 A 
HETATM   29  C   UNL     1      44.353 -19.401   4.461  1.00  0.00     0.001 A 
HETATM   30  C   UNL     1      44.005 -18.073   4.215  1.00  0.00     0.009 A 
ENDBRANCH  24  25
ENDBRANCH   1  24
BRANCH   5  31
HETATM   31  C   UNL     1      41.388 -16.452   0.181  1.00  0.00     0.315 C 
BRANCH  31  32
HETATM   32  N   UNL     1      41.757 -15.386  -0.848  1.00  0.00    -0.064 N 
HETATM   33  H   UNL     1      42.751 -15.546  -1.066  1.00  0.00     0.280 HD
HETATM   34  C   UNL     1      40.942 -15.549  -2.108  1.00  0.00     0.235 C 
HETATM   35  C   UNL     1      41.415 -14.570  -3.173  1.00  0.00     0.028 C 
HETATM   36  C   UNL     1      41.392 -13.132  -2.670  1.00  0.00     0.003 C 
HETATM   37  C   UNL     1      42.171 -12.998  -1.368  1.00  0.00     0.028 C 
HETATM   38  C   UNL     1      41.668 -13.972  -0.308  1.00  0.00     0.235 C 
ENDBRANCH  31  32
ENDBRANCH   5  31
TORSDOF 10
ENDMDL
MODEL 3
REMARK VINA RESULT:      -9.0      2.400      2.893
REMARK  10 active torsions:
REMARK  status: ('A' for Active; 'I' for Inactive)
REMARK    1  A    between atoms: C_4  and  C_5 
REMARK    2  A    between atoms: C_5  and  N_6 
REMARK    3  A    between atoms: C_7  and  S_8 
REMARK    4  A    between atoms: S_8  and  C_9 
REMARK    5  A    between atoms: C_9  and  C_10 
REMARK       I    between atoms: C_10  and  N_11 
REMARK    6  A    between atoms: N_11  and  C_12 
REMARK    7  A    between atoms: C_12  and  C_13 
REMARK       I    between atoms: C_13  and  N_14 
REMARK    8  A    between atoms: N_14  and  C_15 
REMARK    9  A    between atoms: C_26  and  C_27 
REMARK   10  A    between atoms: C_27  and  N_28 
ROOT
HETATM    1  N   UNL     1      41.705 -15.672   3.077  1.00  0.00    -0.306 N 
HETATM    2  C   UNL     1      42.170 -14.742   3.971  1.00  0.00     0.192 A 
HETATM    3  N   UNL     1      42.643 -13.705   3.322  1.00  0.00    -0.123 NA
HETATM    4  N   UNL     1      42.442 -13.918   1.985  1.00  0.00    -0.132 NA
HETATM    5  C   UNL     1      41.819 -15.071   1.837  1.00  0.00     0.157 A 
ENDROOT
BRANCH   2   6
HETATM    6  S   UNL     1      42.059 -14.912   5.684  1.00  0.00    -0.081 SA
BRANCH   6   7
HETATM    7  C   UNL     1      40.288 -14.638   5.967  1.00  0.00     0.185 C 
BRANCH   7   8
HETATM    8  C   UNL     1      39.964 -13.157   6.059  1.00  0.00     0.227 C 
HETATM    9  N   UNL     1      41.051 -12.346   6.305  1.00  0.00    -0.352 N 
HETATM   10  H   UNL     1      41.920 -12.747   6.634  1.00  0.00     0.162 HD
HETATM   11  O   UNL     1      38.840 -12.684   5.903  1.00  0.00    -0.273 OA
BRANCH   9  12
HETATM   12  C   UNL     1      40.953 -10.893   6.263  1.00  0.00     0.225 C 
BRANCH  12  13
HETATM   13  C   UNL     1      41.627 -10.205   7.457  1.00  0.00     0.239 C 
HETATM   14  N   UNL     1      41.708 -11.026   8.568  1.00  0.00    -0.326 N 
HETATM   15  H   UNL     1      41.393 -11.988   8.424  1.00  0.00     0.169 HD
HETATM   16  O   UNL     1      42.005  -9.040   7.381  1.00  0.00    -0.271 OA
BRANCH  14  17
HETATM   17  C   UNL     1      42.200 -10.712   9.846  1.00  0.00     0.035 A 
HETATM   18  C   UNL     1      41.391 -10.560  10.976  1.00  0.00     0.032 A 
HETATM   19  C   UNL     1      41.962 -10.259  12.216  1.00  0.00     0.044 A 
HETATM   20  C   UNL     1      43.338 -10.104  12.319  1.00  0.00     0.116 A 
HETATM   21  F   UNL     1      43.883  -9.803  13.505  1.00  0.00    -0.206 F 
HETATM   22  C   UNL     1      44.158 -10.255  11.210  1.00  0.00     0.044 A 
HETATM   23  C   UNL     1      43.589 -10.564   9.973  1.00  0.00     0.032 A 
ENDBRANCH  14  17
ENDBRANCH  12  13
ENDBRANCH   9  12
ENDBRANCH   7   8
ENDBRANCH   6   7
ENDBRANCH   2   6
BRANCH   1  24
HETATM   24  C   UNL     1      41.297 -17.041   3.356  1.00  0.00     0.171 C 
BRANCH  24  25
HETATM   25  C   UNL     1      42.436 -18.021   3.241  1.00  0.00    -0.040 A 
HETATM   26  C   UNL     1      43.276 -18.272   4.338  1.00  0.00     0.009 A 
HETATM   27  C   UNL     1      44.301 -19.217   4.246  1.00  0.00     0.001 A 
HETATM   28  C   UNL     1      44.487 -19.931   3.064  1.00  0.00     0.000 A 
HETATM   29  C   UNL     1      43.652 -19.704   1.975  1.00  0.00     0.001 A 
HETATM   30  C   UNL     1      42.633 -18.755   2.061  1.00  0.00     0.009 A 
ENDBRANCH  24  25
ENDBRANCH   1  24
BRANCH   5  31
HETATM   31  C   UNL     1      41.288 -15.616   0.556  1.00  0.00     0.315 C 
BRANCH  31  32
HETATM   32  N   UNL     1      39.907 -15.098   0.163  1.00  0.00    -0.064 N 
HETATM   33  H   UNL     1      39.425 -15.900  -0.269  1.00  0.00     0.280 HD
HETATM   34  C   UNL     1      39.132 -14.653   1.380  1.00  0.00     0.235 C 
HETATM   35  C   UNL     1      37.712 -14.269   0.991  1.00  0.00     0.028 C 
HETATM   36  C   UNL     1      37.691 -13.213  -0.107  1.00  0.00     0.003 C 
HETATM   37  C   UNL     1      38.524 -13.654  -1.303  1.00  0.00     0.028 C 
HETATM   38  C   UNL     1      39.949 -14.013  -0.895  1.00  0.00     0.235 C 
ENDBRANCH  31  32
ENDBRANCH   5  31
TORSDOF 10
ENDMDL
MODEL 4
REMARK VINA RESULT:      -8.9      2.359      2.935
REMARK  10 active torsions:
REMARK  status: ('A' for Active; 'I' for Inactive)
REMARK    1  A    between atoms: C_4  and  C_5 
REMARK    2  A    between atoms: C_5  and  N_6 
REMARK    3  A    between atoms: C_7  and  S_8 
REMARK    4  A    between atoms: S_8  and  C_9 
REMARK    5  A    between atoms: C_9  and  C_10 
REMARK       I    between atoms: C_10  and  N_11 
REMARK    6  A    between atoms: N_11  and  C_12 
REMARK    7  A    between atoms: C_12  and  C_13 
REMARK       I    between atoms: C_13  and  N_14 
REMARK    8  A    between atoms: N_14  and  C_15 
REMARK    9  A    between atoms: C_26  and  C_27 
REMARK   10  A    between atoms: C_27  and  N_28 
ROOT
HETATM    1  N   UNL     1      41.853 -15.714   2.400  1.00  0.00    -0.306 N 
HETATM    2  C   UNL     1      41.066 -15.400   3.477  1.00  0.00     0.192 A 
HETATM    3  N   UNL     1      39.887 -15.004   3.059  1.00  0.00    -0.123 NA
HETATM    4  N   UNL     1      39.868 -15.106   1.695  1.00  0.00    -0.132 NA
HETATM    5  C   UNL     1      41.026 -15.595   1.298  1.00  0.00     0.157 A 
ENDROOT
BRANCH   2   6
HETATM    6  S   UNL     1      41.558 -15.588   5.119  1.00  0.00    -0.081 SA
BRANCH   6   7
HETATM    7  C   UNL     1      42.745 -14.228   5.305  1.00  0.00     0.185 C 
BRANCH   7   8
HETATM    8  C   UNL     1      42.045 -12.880   5.326  1.00  0.00     0.227 C 
HETATM    9  N   UNL     1      41.437 -12.567   6.523  1.00  0.00    -0.352 N 
HETATM   10  H   UNL     1      41.277 -13.287   7.215  1.00  0.00     0.162 HD
HETATM   11  O   UNL     1      42.028 -12.095   4.380  1.00  0.00    -0.273 OA
BRANCH   9  12
HETATM   12  C   UNL     1      40.863 -11.252   6.774  1.00  0.00     0.225 C 
BRANCH  12  13
HETATM   13  C   UNL     1      41.623 -10.451   7.839  1.00  0.00     0.239 C 
HETATM   14  N   UNL     1      41.805 -11.164   9.011  1.00  0.00    -0.326 N 
HETATM   15  H   UNL     1      41.491 -12.137   8.984  1.00  0.00     0.169 HD
HETATM   16  O   UNL     1      41.979  -9.297   7.623  1.00  0.00    -0.271 OA
BRANCH  14  17
HETATM   17  C   UNL     1      42.395 -10.729  10.209  1.00  0.00     0.035 A 
HETATM   18  C   UNL     1      43.695 -11.059  10.602  1.00  0.00     0.032 A 
HETATM   19  C   UNL     1      44.212 -10.573  11.806  1.00  0.00     0.044 A 
HETATM   20  C   UNL     1      43.425  -9.765  12.616  1.00  0.00     0.116 A 
HETATM   21  F   UNL     1      43.916  -9.311  13.776  1.00  0.00    -0.206 F 
HETATM   22  C   UNL     1      42.133  -9.423  12.241  1.00  0.00     0.044 A 
HETATM   23  C   UNL     1      41.619  -9.901  11.035  1.00  0.00     0.032 A 
ENDBRANCH  14  17
ENDBRANCH  12  13
ENDBRANCH   9  12
ENDBRANCH   7   8
ENDBRANCH   6   7
ENDBRANCH   2   6
BRANCH   1  24
HETATM   24  C   UNL     1      43.282 -15.990   2.400  1.00  0.00     0.171 C 
BRANCH  24  25
HETATM   25  C   UNL     1      43.594 -17.450   2.603  1.00  0.00    -0.040 A 
HETATM   26  C   UNL     1      43.944 -17.938   3.872  1.00  0.00     0.009 A 
HETATM   27  C   UNL     1      44.184 -19.299   4.069  1.00  0.00     0.001 A 
HETATM   28  C   UNL     1      44.063 -20.190   3.005  1.00  0.00     0.000 A 
HETATM   29  C   UNL     1      43.702 -19.723   1.745  1.00  0.00     0.001 A 
HETATM   30  C   UNL     1      43.470 -18.363   1.543  1.00  0.00     0.009 A 
ENDBRANCH  24  25
ENDBRANCH   1  24
BRANCH   5  31
HETATM   31  C   UNL     1      41.373 -15.993  -0.095  1.00  0.00     0.315 C 
BRANCH  31  32
HETATM   32  N   UNL     1      40.939 -15.003  -1.172  1.00  0.00    -0.064 N 
HETATM   33  H   UNL     1      39.964 -14.760  -0.946  1.00  0.00     0.280 HD
HETATM   34  C   UNL     1      41.783 -13.752  -1.126  1.00  0.00     0.235 C 
HETATM   35  C   UNL     1      41.253 -12.720  -2.111  1.00  0.00     0.028 C 
HETATM   36  C   UNL     1      41.157 -13.282  -3.523  1.00  0.00     0.003 C 
HETATM   37  C   UNL     1      40.350 -14.574  -3.542  1.00  0.00     0.028 C 
HETATM   38  C   UNL     1      40.910 -15.602  -2.565  1.00  0.00     0.235 C 
ENDBRANCH  31  32
ENDBRANCH   5  31
TORSDOF 10
ENDMDL
MODEL 5
REMARK VINA RESULT:      -8.8      5.213      8.286
REMARK  10 active torsions:
REMARK  status: ('A' for Active; 'I' for Inactive)
REMARK    1  A    between atoms: C_4  and  C_5 
REMARK    2  A    between atoms: C_5  and  N_6 
REMARK    3  A    between atoms: C_7  and  S_8 
REMARK    4  A    between atoms: S_8  and  C_9 
REMARK    5  A    between atoms: C_9  and  C_10 
REMARK       I    between atoms: C_10  and  N_11 
REMARK    6  A    between atoms: N_11  and  C_12 
REMARK    7  A    between atoms: C_12  and  C_13 
REMARK       I    between atoms: C_13  and  N_14 
REMARK    8  A    between atoms: N_14  and  C_15 
REMARK    9  A    between atoms: C_26  and  C_27 
REMARK   10  A    between atoms: C_27  and  N_28 
ROOT
HETATM    1  N   UNL     1      40.810 -15.593   2.185  1.00  0.00    -0.306 N 
HETATM    2  C   UNL     1      41.622 -15.473   3.283  1.00  0.00     0.192 A 
HETATM    3  N   UNL     1      42.867 -15.697   2.937  1.00  0.00    -0.123 NA
HETATM    4  N   UNL     1      42.895 -15.915   1.586  1.00  0.00    -0.132 NA
HETATM    5  C   UNL     1      41.669 -15.789   1.119  1.00  0.00     0.157 A 
ENDROOT
BRANCH   2   6
HETATM    6  S   UNL     1      41.064 -15.015   4.849  1.00  0.00    -0.081 SA
BRANCH   6   7
HETATM    7  C   UNL     1      42.371 -13.878   5.388  1.00  0.00     0.185 C 
BRANCH   7   8
HETATM    8  C   UNL     1      43.505 -14.621   6.073  1.00  0.00     0.227 C 
HETATM    9  N   UNL     1      43.268 -15.963   6.282  1.00  0.00    -0.352 N 
HETATM   10  H   UNL     1      42.329 -16.331   6.203  1.00  0.00     0.162 HD
HETATM   11  O   UNL     1      44.572 -14.105   6.400  1.00  0.00    -0.273 OA
BRANCH   9  12
HETATM   12  C   UNL     1      44.305 -16.860   6.775  1.00  0.00     0.225 C 
BRANCH  12  13
HETATM   13  C   UNL     1      44.247 -18.257   6.145  1.00  0.00     0.239 C 
HETATM   14  N   UNL     1      44.297 -18.220   4.763  1.00  0.00    -0.326 N 
HETATM   15  H   UNL     1      44.448 -17.294   4.355  1.00  0.00     0.169 HD
HETATM   16  O   UNL     1      44.139 -19.259   6.846  1.00  0.00    -0.271 OA
BRANCH  14  17
HETATM   17  C   UNL     1      44.202 -19.294   3.862  1.00  0.00     0.035 A 
HETATM   18  C   UNL     1      44.913 -20.490   3.997  1.00  0.00     0.032 A 
HETATM   19  C   UNL     1      44.752 -21.516   3.061  1.00  0.00     0.044 A 
HETATM   20  C   UNL     1      43.886 -21.339   1.990  1.00  0.00     0.116 A 
HETATM   21  F   UNL     1      43.742 -22.317   1.087  1.00  0.00    -0.206 F 
HETATM   22  C   UNL     1      43.169 -20.160   1.841  1.00  0.00     0.044 A 
HETATM   23  C   UNL     1      43.323 -19.139   2.780  1.00  0.00     0.032 A 
ENDBRANCH  14  17
ENDBRANCH  12  13
ENDBRANCH   9  12
ENDBRANCH   7   8
ENDBRANCH   6   7
ENDBRANCH   2   6
BRANCH   1  24
HETATM   24  C   UNL     1      39.356 -15.634   2.160  1.00  0.00     0.171 C 
BRANCH  24  25
HETATM   25  C   UNL     1      38.742 -14.301   1.818  1.00  0.00    -0.040 A 
HETATM   26  C   UNL     1      39.243 -13.117   2.381  1.00  0.00     0.009 A 
HETATM   27  C   UNL     1      38.705 -11.878   2.026  1.00  0.00     0.001 A 
HETATM   28  C   UNL     1      37.673 -11.807   1.094  1.00  0.00     0.000 A 
HETATM   29  C   UNL     1      37.177 -12.971   0.515  1.00  0.00     0.001 A 
HETATM   30  C   UNL     1      37.706 -14.211   0.875  1.00  0.00     0.009 A 
ENDBRANCH  24  25
ENDBRANCH   1  24
BRANCH   5  31
HETATM   31  C   UNL     1      41.278 -15.810  -0.319  1.00  0.00     0.315 C 
BRANCH  31  32
HETATM   32  N   UNL     1      40.704 -14.497  -0.846  1.00  0.00    -0.064 N 
HETATM   33  H   UNL     1      39.805 -14.374  -0.359  1.00  0.00     0.280 HD
HETATM   34  C   UNL     1      41.612 -13.339  -0.509  1.00  0.00     0.235 C 
HETATM   35  C   UNL     1      40.964 -12.024  -0.919  1.00  0.00     0.028 C 
HETATM   36  C   UNL     1      40.570 -12.021  -2.390  1.00  0.00     0.003 C 
HETATM   37  C   UNL     1      39.702 -13.227  -2.724  1.00  0.00     0.028 C 
HETATM   38  C   UNL     1      40.378 -14.535  -2.326  1.00  0.00     0.235 C 
ENDBRANCH  31  32
ENDBRANCH   5  31
TORSDOF 10
ENDMDL
MODEL 6
REMARK VINA RESULT:      -8.8      5.198      7.440
REMARK  10 active torsions:
REMARK  status: ('A' for Active; 'I' for Inactive)
REMARK    1  A    between atoms: C_4  and  C_5 
REMARK    2  A    between atoms: C_5  and  N_6 
REMARK    3  A    between atoms: C_7  and  S_8 
REMARK    4  A    between atoms: S_8  and  C_9 
REMARK    5  A    between atoms: C_9  and  C_10 
REMARK       I    between atoms: C_10  and  N_11 
REMARK    6  A    between atoms: N_11  and  C_12 
REMARK    7  A    between atoms: C_12  and  C_13 
REMARK       I    between atoms: C_13  and  N_14 
REMARK    8  A    between atoms: N_14  and  C_15 
REMARK    9  A    between atoms: C_26  and  C_27 
REMARK   10  A    between atoms: C_27  and  N_28 
ROOT
HETATM    1  N   UNL     1      39.753 -13.737   2.934  1.00  0.00    -0.306 N 
HETATM    2  C   UNL     1      40.291 -12.680   3.621  1.00  0.00     0.192 A 
HETATM    3  N   UNL     1      40.207 -11.593   2.891  1.00  0.00    -0.123 NA
HETATM    4  N   UNL     1      39.559 -11.915   1.730  1.00  0.00    -0.132 NA
HETATM    5  C   UNL     1      39.226 -13.189   1.779  1.00  0.00     0.157 A 
ENDROOT
BRANCH   2   6
HETATM    6  S   UNL     1      40.902 -12.785   5.230  1.00  0.00    -0.081 SA
BRANCH   6   7
HETATM    7  C   UNL     1      42.688 -12.915   4.938  1.00  0.00     0.185 C 
BRANCH   7   8
HETATM    8  C   UNL     1      43.305 -14.033   5.762  1.00  0.00     0.227 C 
HETATM    9  N   UNL     1      42.417 -15.010   6.160  1.00  0.00    -0.352 N 
HETATM   10  H   UNL     1      41.420 -14.843   6.106  1.00  0.00     0.162 HD
HETATM   11  O   UNL     1      44.500 -14.107   6.043  1.00  0.00    -0.273 OA
BRANCH   9  12
HETATM   12  C   UNL     1      42.861 -16.234   6.813  1.00  0.00     0.225 C 
BRANCH  12  13
HETATM   13  C   UNL     1      42.696 -17.483   5.938  1.00  0.00     0.239 C 
HETATM   14  N   UNL     1      43.870 -18.204   5.814  1.00  0.00    -0.326 N 
HETATM   15  H   UNL     1      44.653 -17.865   6.378  1.00  0.00     0.169 HD
HETATM   16  O   UNL     1      41.620 -17.743   5.408  1.00  0.00    -0.271 OA
BRANCH  14  17
HETATM   17  C   UNL     1      44.105 -19.356   5.044  1.00  0.00     0.035 A 
HETATM   18  C   UNL     1      44.071 -19.378   3.647  1.00  0.00     0.032 A 
HETATM   19  C   UNL     1      44.329 -20.565   2.954  1.00  0.00     0.044 A 
HETATM   20  C   UNL     1      44.613 -21.725   3.662  1.00  0.00     0.116 A 
HETATM   21  F   UNL     1      44.847 -22.865   2.999  1.00  0.00    -0.206 F 
HETATM   22  C   UNL     1      44.655 -21.722   5.049  1.00  0.00     0.044 A 
HETATM   23  C   UNL     1      44.406 -20.535   5.741  1.00  0.00     0.032 A 
ENDBRANCH  14  17
ENDBRANCH  12  13
ENDBRANCH   9  12
ENDBRANCH   7   8
ENDBRANCH   6   7
ENDBRANCH   2   6
BRANCH   1  24
HETATM   24  C   UNL     1      39.830 -15.149   3.281  1.00  0.00     0.171 C 
BRANCH  24  25
HETATM   25  C   UNL     1      40.859 -15.892   2.469  1.00  0.00    -0.040 A 
HETATM   26  C   UNL     1      42.207 -15.503   2.493  1.00  0.00     0.009 A 
HETATM   27  C   UNL     1      43.167 -16.222   1.778  1.00  0.00     0.001 A 
HETATM   28  C   UNL     1      42.794 -17.346   1.044  1.00  0.00     0.000 A 
HETATM   29  C   UNL     1      41.463 -17.753   1.024  1.00  0.00     0.001 A 
HETATM   30  C   UNL     1      40.501 -17.031   1.730  1.00  0.00     0.009 A 
ENDBRANCH  24  25
ENDBRANCH   1  24
BRANCH   5  31
HETATM   31  C   UNL     1      38.385 -13.910   0.782  1.00  0.00     0.315 C 
BRANCH  31  32
HETATM   32  N   UNL     1      39.138 -14.412  -0.448  1.00  0.00    -0.064 N 
HETATM   33  H   UNL     1      39.161 -15.438  -0.357  1.00  0.00     0.280 HD
HETATM   34  C   UNL     1      38.407 -14.044  -1.716  1.00  0.00     0.235 C 
HETATM   35  C   UNL     1      39.094 -14.667  -2.922  1.00  0.00     0.028 C 
HETATM   36  C   UNL     1      40.567 -14.287  -2.993  1.00  0.00     0.003 C 
HETATM   37  C   UNL     1      41.277 -14.613  -1.685  1.00  0.00     0.028 C 
HETATM   38  C   UNL     1      40.586 -13.962  -0.492  1.00  0.00     0.235 C 
ENDBRANCH  31  32
ENDBRANCH   5  31
TORSDOF 10
ENDMDL
MODEL 7
REMARK VINA RESULT:      -8.7      4.837      9.925
REMARK  10 active torsions:
REMARK  status: ('A' for Active; 'I' for Inactive)
REMARK    1  A    between atoms: C_4  and  C_5 
REMARK    2  A    between atoms: C_5  and  N_6 
REMARK    3  A    between atoms: C_7  and  S_8 
REMARK    4  A    between atoms: S_8  and  C_9 
REMARK    5  A    between atoms: C_9  and  C_10 
REMARK       I    between atoms: C_10  and  N_11 
REMARK    6  A    between atoms: N_11  and  C_12 
REMARK    7  A    between atoms: C_12  and  C_13 
REMARK       I    between atoms: C_13  and  N_14 
REMARK    8  A    between atoms: N_14  and  C_15 
REMARK    9  A    between atoms: C_26  and  C_27 
REMARK   10  A    between atoms: C_27  and  N_28 
ROOT
HETATM    1  N   UNL     1      41.792 -13.193   4.389  1.00  0.00    -0.306 N 
HETATM    2  C   UNL     1      41.699 -12.984   3.037  1.00  0.00     0.192 A 
HETATM    3  N   UNL     1      42.876 -13.152   2.484  1.00  0.00    -0.123 NA
HETATM    4  N   UNL     1      43.752 -13.529   3.464  1.00  0.00    -0.132 NA
HETATM    5  C   UNL     1      43.091 -13.618   4.601  1.00  0.00     0.157 A 
ENDROOT
BRANCH   2   6
HETATM    6  S   UNL     1      40.223 -12.636   2.215  1.00  0.00    -0.081 SA
BRANCH   6   7
HETATM    7  C   UNL     1      39.603 -14.302   1.850  1.00  0.00     0.185 C 
BRANCH   7   8
HETATM    8  C   UNL     1      40.448 -14.988   0.790  1.00  0.00     0.227 C 
HETATM    9  N   UNL     1      41.421 -15.828   1.287  1.00  0.00    -0.352 N 
HETATM   10  H   UNL     1      41.685 -15.779   2.262  1.00  0.00     0.162 HD
HETATM   11  O   UNL     1      40.284 -14.850  -0.421  1.00  0.00    -0.273 OA
BRANCH   9  12
HETATM   12  C   UNL     1      42.212 -16.689   0.417  1.00  0.00     0.225 C 
BRANCH  12  13
HETATM   13  C   UNL     1      43.260 -17.516   1.173  1.00  0.00     0.239 C 
HETATM   14  N   UNL     1      42.776 -18.749   1.575  1.00  0.00    -0.326 N 
HETATM   15  H   UNL     1      41.833 -18.975   1.249  1.00  0.00     0.169 HD
HETATM   16  O   UNL     1      44.380 -17.064   1.392  1.00  0.00    -0.271 OA
BRANCH  14  17
HETATM   17  C   UNL     1      43.429 -19.731   2.337  1.00  0.00     0.035 A 
HETATM   18  C   UNL     1      43.667 -21.034   1.890  1.00  0.00     0.032 A 
HETATM   19  C   UNL     1      44.336 -21.949   2.708  1.00  0.00     0.044 A 
HETATM   20  C   UNL     1      44.758 -21.559   3.973  1.00  0.00     0.116 A 
HETATM   21  F   UNL     1      45.387 -22.440   4.761  1.00  0.00    -0.206 F 
HETATM   22  C   UNL     1      44.534 -20.269   4.433  1.00  0.00     0.044 A 
HETATM   23  C   UNL     1      43.873 -19.353   3.613  1.00  0.00     0.032 A 
ENDBRANCH  14  17
ENDBRANCH  12  13
ENDBRANCH   9  12
ENDBRANCH   7   8
ENDBRANCH   6   7
ENDBRANCH   2   6
BRANCH   1  24
HETATM   24  C   UNL     1      40.785 -12.908   5.400  1.00  0.00     0.171 C 
BRANCH  24  25
HETATM   25  C   UNL     1      40.871 -11.499   5.927  1.00  0.00    -0.040 A 
HETATM   26  C   UNL     1      40.117 -10.469   5.342  1.00  0.00     0.009 A 
HETATM   27  C   UNL     1      40.161  -9.174   5.861  1.00  0.00     0.001 A 
HETATM   28  C   UNL     1      40.946  -8.896   6.979  1.00  0.00     0.000 A 
HETATM   29  C   UNL     1      41.686  -9.910   7.578  1.00  0.00     0.001 A 
HETATM   30  C   UNL     1      41.651 -11.203   7.056  1.00  0.00     0.009 A 
ENDBRANCH  24  25
ENDBRANCH   1  24
BRANCH   5  31
HETATM   31  C   UNL     1      43.636 -14.133   5.889  1.00  0.00     0.315 C 
BRANCH  31  32
HETATM   32  N   UNL     1      43.568 -15.649   6.054  1.00  0.00    -0.064 N 
HETATM   33  H   UNL     1      43.722 -16.035   5.112  1.00  0.00     0.280 HD
HETATM   34  C   UNL     1      44.659 -16.141   6.975  1.00  0.00     0.235 C 
HETATM   35  C   UNL     1      44.665 -17.661   7.022  1.00  0.00     0.028 C 
HETATM   36  C   UNL     1      43.303 -18.221   7.414  1.00  0.00     0.003 C 
HETATM   37  C   UNL     1      42.207 -17.670   6.510  1.00  0.00     0.028 C 
HETATM   38  C   UNL     1      42.205 -16.145   6.495  1.00  0.00     0.235 C 
ENDBRANCH  31  32
ENDBRANCH   5  31
TORSDOF 10
ENDMDL
MODEL 8
REMARK VINA RESULT:      -8.6      5.367      7.545
REMARK  10 active torsions:
REMARK  status: ('A' for Active; 'I' for Inactive)
REMARK    1  A    between atoms: C_4  and  C_5 
REMARK    2  A    between atoms: C_5  and  N_6 
REMARK    3  A    between atoms: C_7  and  S_8 
REMARK    4  A    between atoms: S_8  and  C_9 
REMARK    5  A    between atoms: C_9  and  C_10 
REMARK       I    between atoms: C_10  and  N_11 
REMARK    6  A    between atoms: N_11  and  C_12 
REMARK    7  A    between atoms: C_12  and  C_13 
REMARK       I    between atoms: C_13  and  N_14 
REMARK    8  A    between atoms: N_14  and  C_15 
REMARK    9  A    between atoms: C_26  and  C_27 
REMARK   10  A    between atoms: C_27  and  N_28 
ROOT
HETATM    1  N   UNL     1      42.107 -12.966   3.093  1.00  0.00    -0.306 N 
HETATM    2  C   UNL     1      41.791 -12.376   4.289  1.00  0.00     0.192 A 
HETATM    3  N   UNL     1      41.195 -11.229   4.070  1.00  0.00    -0.123 NA
HETATM    4  N   UNL     1      41.063 -11.075   2.717  1.00  0.00    -0.132 NA
HETATM    5  C   UNL     1      41.552 -12.147   2.127  1.00  0.00     0.157 A 
ENDROOT
BRANCH   2   6
HETATM    6  S   UNL     1      42.076 -13.103   5.827  1.00  0.00    -0.081 SA
BRANCH   6   7
HETATM    7  C   UNL     1      40.772 -14.364   5.886  1.00  0.00     0.185 C 
BRANCH   7   8
HETATM    8  C   UNL     1      41.326 -15.714   6.306  1.00  0.00     0.227 C 
HETATM    9  N   UNL     1      42.578 -15.668   6.882  1.00  0.00    -0.352 N 
HETATM   10  H   UNL     1      43.148 -14.836   6.792  1.00  0.00     0.162 HD
HETATM   11  O   UNL     1      40.721 -16.778   6.185  1.00  0.00    -0.273 OA
BRANCH   9  12
HETATM   12  C   UNL     1      43.190 -16.842   7.489  1.00  0.00     0.225 C 
BRANCH  12  13
HETATM   13  C   UNL     1      44.055 -17.649   6.512  1.00  0.00     0.239 C 
HETATM   14  N   UNL     1      43.303 -18.466   5.687  1.00  0.00    -0.326 N 
HETATM   15  H   UNL     1      42.289 -18.365   5.776  1.00  0.00     0.169 HD
HETATM   16  O   UNL     1      45.278 -17.556   6.530  1.00  0.00    -0.271 OA
BRANCH  14  17
HETATM   17  C   UNL     1      43.759 -19.383   4.725  1.00  0.00     0.035 A 
HETATM   18  C   UNL     1      44.435 -20.566   5.036  1.00  0.00     0.032 A 
HETATM   19  C   UNL     1      44.844 -21.433   4.018  1.00  0.00     0.044 A 
HETATM   20  C   UNL     1      44.581 -21.109   2.694  1.00  0.00     0.116 A 
HETATM   21  F   UNL     1      44.985 -21.933   1.718  1.00  0.00    -0.206 F 
HETATM   22  C   UNL     1      43.908 -19.941   2.365  1.00  0.00     0.044 A 
HETATM   23  C   UNL     1      43.492 -19.080   3.382  1.00  0.00     0.032 A 
ENDBRANCH  14  17
ENDBRANCH  12  13
ENDBRANCH   9  12
ENDBRANCH   7   8
ENDBRANCH   6   7
ENDBRANCH   2   6
BRANCH   1  24
HETATM   24  C   UNL     1      42.952 -14.131   2.877  1.00  0.00     0.171 C 
BRANCH  24  25
HETATM   25  C   UNL     1      42.218 -15.268   2.214  1.00  0.00    -0.040 A 
HETATM   26  C   UNL     1      42.825 -16.009   1.187  1.00  0.00     0.009 A 
HETATM   27  C   UNL     1      42.163 -17.092   0.607  1.00  0.00     0.001 A 
HETATM   28  C   UNL     1      40.895 -17.457   1.055  1.00  0.00     0.000 A 
HETATM   29  C   UNL     1      40.289 -16.742   2.083  1.00  0.00     0.001 A 
HETATM   30  C   UNL     1      40.944 -15.653   2.658  1.00  0.00     0.009 A 
ENDBRANCH  24  25
ENDBRANCH   1  24
BRANCH   5  31
HETATM   31  C   UNL     1      41.480 -12.449   0.669  1.00  0.00     0.315 C 
BRANCH  31  32
HETATM   32  N   UNL     1      40.067 -12.633   0.122  1.00  0.00    -0.064 N 
HETATM   33  H   UNL     1      39.464 -12.748   0.949  1.00  0.00     0.280 HD
HETATM   34  C   UNL     1      39.623 -11.412  -0.647  1.00  0.00     0.235 C 
HETATM   35  C   UNL     1      38.168 -11.553  -1.069  1.00  0.00     0.028 C 
HETATM   36  C   UNL     1      37.928 -12.833  -1.859  1.00  0.00     0.003 C 
HETATM   37  C   UNL     1      38.433 -14.049  -1.093  1.00  0.00     0.028 C 
HETATM   38  C   UNL     1      39.899 -13.897  -0.699  1.00  0.00     0.235 C 
ENDBRANCH  31  32
ENDBRANCH   5  31
TORSDOF 10
ENDMDL
MODEL 9
REMARK VINA RESULT:      -8.5      2.487      5.073
REMARK  10 active torsions:
REMARK  status: ('A' for Active; 'I' for Inactive)
REMARK    1  A    between atoms: C_4  and  C_5 
REMARK    2  A    between atoms: C_5  and  N_6 
REMARK    3  A    between atoms: C_7  and  S_8 
REMARK    4  A    between atoms: S_8  and  C_9 
REMARK    5  A    between atoms: C_9  and  C_10 
REMARK       I    between atoms: C_10  and  N_11 
REMARK    6  A    between atoms: N_11  and  C_12 
REMARK    7  A    between atoms: C_12  and  C_13 
REMARK       I    between atoms: C_13  and  N_14 
REMARK    8  A    between atoms: N_14  and  C_15 
REMARK    9  A    between atoms: C_26  and  C_27 
REMARK   10  A    between atoms: C_27  and  N_28 
ROOT
HETATM    1  N   UNL     1      41.939 -16.750   4.358  1.00  0.00    -0.306 N 
HETATM    2  C   UNL     1      41.751 -16.027   5.508  1.00  0.00     0.192 A 
HETATM    3  N   UNL     1      42.813 -16.132   6.271  1.00  0.00    -0.123 NA
HETATM    4  N   UNL     1      43.738 -16.886   5.604  1.00  0.00    -0.132 NA
HETATM    5  C   UNL     1      43.242 -17.206   4.425  1.00  0.00     0.157 A 
ENDROOT
BRANCH   2   6
HETATM    6  S   UNL     1      40.352 -15.071   5.829  1.00  0.00    -0.081 SA
BRANCH   6   7
HETATM    7  C   UNL     1      40.871 -13.443   5.218  1.00  0.00     0.185 C 
BRANCH   7   8
HETATM    8  C   UNL     1      40.417 -12.331   6.149  1.00  0.00     0.227 C 
HETATM    9  N   UNL     1      41.431 -11.733   6.866  1.00  0.00    -0.352 N 
HETATM   10  H   UNL     1      42.337 -12.177   6.931  1.00  0.00     0.162 HD
HETATM   11  O   UNL     1      39.252 -11.951   6.256  1.00  0.00    -0.273 OA
BRANCH   9  12
HETATM   12  C   UNL     1      41.201 -10.547   7.680  1.00  0.00     0.225 C 
BRANCH  12  13
HETATM   13  C   UNL     1      42.094 -10.485   8.926  1.00  0.00     0.239 C 
HETATM   14  N   UNL     1      41.384 -10.184  10.075  1.00  0.00    -0.326 N 
HETATM   15  H   UNL     1      40.369 -10.127   9.960  1.00  0.00     0.169 HD
HETATM   16  O   UNL     1      43.305 -10.665   8.842  1.00  0.00    -0.271 OA
BRANCH  14  17
HETATM   17  C   UNL     1      41.879  -9.984  11.375  1.00  0.00     0.035 A 
HETATM   18  C   UNL     1      42.191 -11.022  12.257  1.00  0.00     0.032 A 
HETATM   19  C   UNL     1      42.692 -10.737  13.531  1.00  0.00     0.044 A 
HETATM   20  C   UNL     1      42.872  -9.416  13.919  1.00  0.00     0.116 A 
HETATM   21  F   UNL     1      43.340  -9.144  15.144  1.00  0.00    -0.206 F 
HETATM   22  C   UNL     1      42.572  -8.372  13.055  1.00  0.00     0.044 A 
HETATM   23  C   UNL     1      42.080  -8.656  11.780  1.00  0.00     0.032 A 
ENDBRANCH  14  17
ENDBRANCH  12  13
ENDBRANCH   9  12
ENDBRANCH   7   8
ENDBRANCH   6   7
ENDBRANCH   2   6
BRANCH   1  24
HETATM   24  C   UNL     1      40.945 -17.076   3.346  1.00  0.00     0.171 C 
BRANCH  24  25
HETATM   25  C   UNL     1      41.139 -16.300   2.069  1.00  0.00    -0.040 A 
HETATM   26  C   UNL     1      41.290 -16.968   0.843  1.00  0.00     0.009 A 
HETATM   27  C   UNL     1      41.422 -16.248  -0.346  1.00  0.00     0.001 A 
HETATM   28  C   UNL     1      41.387 -14.856  -0.327  1.00  0.00     0.000 A 
HETATM   29  C   UNL     1      41.222 -14.181   0.879  1.00  0.00     0.001 A 
HETATM   30  C   UNL     1      41.100 -14.898   2.070  1.00  0.00     0.009 A 
ENDBRANCH  24  25
ENDBRANCH   1  24
BRANCH   5  31
HETATM   31  C   UNL     1      43.976 -17.902   3.330  1.00  0.00     0.315 C 
BRANCH  31  32
HETATM   32  N   UNL     1      43.835 -19.423   3.331  1.00  0.00    -0.064 N 
HETATM   33  H   UNL     1      42.968 -19.619   3.852  1.00  0.00     0.280 HD
HETATM   34  C   UNL     1      43.697 -19.952   1.924  1.00  0.00     0.235 C 
HETATM   35  C   UNL     1      43.421 -21.448   1.947  1.00  0.00     0.028 C 
HETATM   36  C   UNL     1      44.482 -22.208   2.731  1.00  0.00     0.003 C 
HETATM   37  C   UNL     1      44.649 -21.625   4.129  1.00  0.00     0.028 C 
HETATM   38  C   UNL     1      44.946 -20.129   4.083  1.00  0.00     0.235 C 
ENDBRANCH  31  32
ENDBRANCH   5  31
TORSDOF 10
ENDMDL
MODEL 10
REMARK VINA RESULT:      -8.4      1.909      2.568
REMARK  10 active torsions:
REMARK  status: ('A' for Active; 'I' for Inactive)
REMARK    1  A    between atoms: C_4  and  C_5 
REMARK    2  A    between atoms: C_5  and  N_6 
REMARK    3  A    between atoms: C_7  and  S_8 
REMARK    4  A    between atoms: S_8  and  C_9 
REMARK    5  A    between atoms: C_9  and  C_10 
REMARK       I    between atoms: C_10  and  N_11 
REMARK    6  A    between atoms: N_11  and  C_12 
REMARK    7  A    between atoms: C_12  and  C_13 
REMARK       I    between atoms: C_13  and  N_14 
REMARK    8  A    between atoms: N_14  and  C_15 
REMARK    9  A    between atoms: C_26  and  C_27 
REMARK   10  A    between atoms: C_27  and  N_28 
ROOT
HETATM    1  N   UNL     1      42.236 -16.308   3.933  1.00  0.00    -0.306 N 
HETATM    2  C   UNL     1      42.047 -15.845   5.209  1.00  0.00     0.192 A 
HETATM    3  N   UNL     1      40.802 -15.457   5.356  1.00  0.00    -0.123 NA
HETATM    4  N   UNL     1      40.141 -15.714   4.187  1.00  0.00    -0.132 NA
HETATM    5  C   UNL     1      40.983 -16.286   3.349  1.00  0.00     0.157 A 
ENDROOT
BRANCH   2   6
HETATM    6  S   UNL     1      43.264 -15.861   6.431  1.00  0.00    -0.081 SA
BRANCH   6   7
HETATM    7  C   UNL     1      44.125 -14.296   6.114  1.00  0.00     0.185 C 
BRANCH   7   8
HETATM    8  C   UNL     1      43.144 -13.166   5.854  1.00  0.00     0.227 C 
HETATM    9  N   UNL     1      42.618 -12.590   6.991  1.00  0.00    -0.352 N 
HETATM   10  H   UNL     1      42.704 -13.058   7.884  1.00  0.00     0.162 HD
HETATM   11  O   UNL     1      42.845 -12.753   4.735  1.00  0.00    -0.273 OA
BRANCH   9  12
HETATM   12  C   UNL     1      41.792 -11.391   6.934  1.00  0.00     0.225 C 
BRANCH  12  13
HETATM   13  C   UNL     1      41.621 -10.708   8.297  1.00  0.00     0.239 C 
HETATM   14  N   UNL     1      42.418 -11.272   9.278  1.00  0.00    -0.326 N 
HETATM   15  H   UNL     1      43.063 -11.997   8.955  1.00  0.00     0.169 HD
HETATM   16  O   UNL     1      40.825  -9.785   8.443  1.00  0.00    -0.271 OA
BRANCH  14  17
HETATM   17  C   UNL     1      42.473 -10.948  10.644  1.00  0.00     0.035 A 
HETATM   18  C   UNL     1      41.443 -11.213  11.550  1.00  0.00     0.032 A 
HETATM   19  C   UNL     1      41.583 -10.870  12.898  1.00  0.00     0.044 A 
HETATM   20  C   UNL     1      42.750 -10.256  13.333  1.00  0.00     0.116 A 
HETATM   21  F   UNL     1      42.878  -9.915  14.621  1.00  0.00    -0.206 F 
HETATM   22  C   UNL     1      43.786  -9.988  12.449  1.00  0.00     0.044 A 
HETATM   23  C   UNL     1      43.650 -10.338  11.105  1.00  0.00     0.032 A 
ENDBRANCH  14  17
ENDBRANCH  12  13
ENDBRANCH   9  12
ENDBRANCH   7   8
ENDBRANCH   6   7
ENDBRANCH   2   6
BRANCH   1  24
HETATM   24  C   UNL     1      43.500 -16.633   3.288  1.00  0.00     0.171 C 
BRANCH  24  25
HETATM   25  C   UNL     1      43.765 -18.116   3.241  1.00  0.00    -0.040 A 
HETATM   26  C   UNL     1      43.592 -18.836   2.048  1.00  0.00     0.009 A 
HETATM   27  C   UNL     1      43.884 -20.200   1.993  1.00  0.00     0.001 A 
HETATM   28  C   UNL     1      44.366 -20.857   3.123  1.00  0.00     0.000 A 
HETATM   29  C   UNL     1      44.557 -20.153   4.307  1.00  0.00     0.001 A 
HETATM   30  C   UNL     1      44.258 -18.792   4.368  1.00  0.00     0.009 A 
ENDBRANCH  24  25
ENDBRANCH   1  24
BRANCH   5  31
HETATM   31  C   UNL     1      40.636 -16.853   2.016  1.00  0.00     0.315 C 
BRANCH  31  32
HETATM   32  N   UNL     1      40.426 -15.818   0.913  1.00  0.00    -0.064 N 
HETATM   33  H   UNL     1      40.058 -16.344   0.108  1.00  0.00     0.280 HD
HETATM   34  C   UNL     1      39.411 -14.782   1.333  1.00  0.00     0.235 C 
HETATM   35  C   UNL     1      39.111 -13.839   0.178  1.00  0.00     0.028 C 
HETATM   36  C   UNL     1      40.377 -13.195  -0.372  1.00  0.00     0.003 C 
HETATM   37  C   UNL     1      41.411 -14.252  -0.737  1.00  0.00     0.028 C 
HETATM   38  C   UNL     1      41.714 -15.173   0.440  1.00  0.00     0.235 C 
ENDBRANCH  31  32
ENDBRANCH   5  31
TORSDOF 10
ENDMDL
