MODEL 1
REMARK VINA RESULT:      -8.7      0.000      0.000
REMARK  3 active torsions:
REMARK  status: ('A' for Active; 'I' for Inactive)
REMARK    1  A    between atoms: C_9  and  C_10 
REMARK    2  A    between atoms: C_10  and  C_11 
REMARK       I    between atoms: C_11  and  N_12 
REMARK    3  A    between atoms: N_12  and  C_13 
ROOT
HETATM    1  C   UNL     1      44.278 -21.954   2.045  1.00  0.00     0.001 A 
HETATM    2  C   UNL     1      44.016 -20.612   1.754  1.00  0.00     0.014 A 
HETATM    3  C   UNL     1      44.055 -19.653   2.775  1.00  0.00     0.006 A 
HETATM    4  C   UNL     1      44.344 -20.055   4.078  1.00  0.00     0.046 A 
HETATM    5  C   UNL     1      44.357 -19.049   5.152  1.00  0.00     0.272 A 
HETATM    6  O   UNL     1      44.605 -19.354   6.312  1.00  0.00    -0.266 OA
HETATM    7  N   UNL     1      44.071 -17.761   4.774  1.00  0.00    -0.243 N 
HETATM    8  N   UNL     1      43.807 -17.335   3.511  1.00  0.00    -0.175 NA
HETATM    9  C   UNL     1      43.803 -18.205   2.545  1.00  0.00     0.074 A 
HETATM   10  C   UNL     1      44.607 -21.398   4.369  1.00  0.00     0.018 A 
HETATM   11  C   UNL     1      44.577 -22.346   3.349  1.00  0.00     0.001 A 
HETATM   12  H   UNL     1      44.069 -17.055   5.506  1.00  0.00     0.192 HD
ENDROOT
BRANCH   9  13
HETATM   13  C   UNL     1      43.528 -17.736   1.131  1.00  0.00     0.165 C 
BRANCH  13  14
HETATM   14  C   UNL     1      42.186 -17.136   0.754  1.00  0.00     0.228 C 
HETATM   15  N   UNL     1      42.221 -15.970   0.025  1.00  0.00    -0.326 N 
HETATM   16  H   UNL     1      43.122 -15.489  -0.011  1.00  0.00     0.169 HD
HETATM   17  O   UNL     1      41.167 -17.760   1.049  1.00  0.00    -0.273 OA
BRANCH  15  18
HETATM   18  C   UNL     1      41.144 -15.266  -0.569  1.00  0.00     0.052 A 
HETATM   19  C   UNL     1      40.366 -14.408   0.230  1.00  0.00     0.037 A 
HETATM   20 BR   UNL     1      40.718 -14.169   2.085  1.00  0.00    -0.049 Br
HETATM   21  C   UNL     1      39.297 -13.685  -0.313  1.00  0.00     0.021 A 
HETATM   22  C   UNL     1      38.993 -13.806  -1.667  1.00  0.00     0.002 A 
HETATM   23  C   UNL     1      39.757 -14.646  -2.471  1.00  0.00     0.002 A 
HETATM   24  C   UNL     1      40.825 -15.369  -1.927  1.00  0.00     0.031 A 
ENDBRANCH  15  18
ENDBRANCH  13  14
ENDBRANCH   9  13
TORSDOF 3
ENDMDL
MODEL 2
REMARK VINA RESULT:      -8.4      1.234      1.672
REMARK  3 active torsions:
REMARK  status: ('A' for Active; 'I' for Inactive)
REMARK    1  A    between atoms: C_9  and  C_10 
REMARK    2  A    between atoms: C_10  and  C_11 
REMARK       I    between atoms: C_11  and  N_12 
REMARK    3  A    between atoms: N_12  and  C_13 
ROOT
HETATM    1  C   UNL     1      44.039 -21.536   1.848  1.00  0.00     0.001 A 
HETATM    2  C   UNL     1      43.705 -20.187   1.701  1.00  0.00     0.014 A 
HETATM    3  C   UNL     1      43.836 -19.311   2.787  1.00  0.00     0.006 A 
HETATM    4  C   UNL     1      44.288 -19.802   4.011  1.00  0.00     0.046 A 
HETATM    5  C   UNL     1      44.399 -18.884   5.155  1.00  0.00     0.272 A 
HETATM    6  O   UNL     1      44.792 -19.270   6.250  1.00  0.00    -0.266 OA
HETATM    7  N   UNL     1      44.032 -17.582   4.920  1.00  0.00    -0.243 N 
HETATM    8  N   UNL     1      43.609 -17.070   3.736  1.00  0.00    -0.175 NA
HETATM    9  C   UNL     1      43.516 -17.860   2.708  1.00  0.00     0.074 A 
HETATM   10  C   UNL     1      44.624 -21.153   4.157  1.00  0.00     0.018 A 
HETATM   11  C   UNL     1      44.502 -22.018   3.072  1.00  0.00     0.001 A 
HETATM   12  H   UNL     1      44.096 -16.937   5.704  1.00  0.00     0.192 HD
ENDROOT
BRANCH   9  13
HETATM   13  C   UNL     1      43.062 -17.292   1.379  1.00  0.00     0.165 C 
BRANCH  13  14
HETATM   14  C   UNL     1      41.611 -16.914   1.146  1.00  0.00     0.228 C 
HETATM   15  N   UNL     1      41.340 -15.570   1.036  1.00  0.00    -0.326 N 
HETATM   16  H   UNL     1      42.082 -14.936   1.338  1.00  0.00     0.169 HD
HETATM   17  O   UNL     1      40.792 -17.820   0.992  1.00  0.00    -0.273 OA
BRANCH  15  18
HETATM   18  C   UNL     1      40.118 -14.940   0.692  1.00  0.00     0.052 A 
HETATM   19  C   UNL     1      39.995 -14.332  -0.571  1.00  0.00     0.037 A 
HETATM   20 BR   UNL     1      41.423 -14.331  -1.829  1.00  0.00    -0.049 Br
HETATM   21  C   UNL     1      38.804 -13.706  -0.959  1.00  0.00     0.021 A 
HETATM   22  C   UNL     1      37.717 -13.681  -0.090  1.00  0.00     0.002 A 
HETATM   23  C   UNL     1      37.822 -14.283   1.161  1.00  0.00     0.002 A 
HETATM   24  C   UNL     1      39.012 -14.909   1.547  1.00  0.00     0.031 A 
ENDBRANCH  15  18
ENDBRANCH  13  14
ENDBRANCH   9  13
TORSDOF 3
ENDMDL
MODEL 3
REMARK VINA RESULT:      -8.3      1.842      2.297
REMARK  3 active torsions:
REMARK  status: ('A' for Active; 'I' for Inactive)
REMARK    1  A    between atoms: C_9  and  C_10 
REMARK    2  A    between atoms: C_10  and  C_11 
REMARK       I    between atoms: C_11  and  N_12 
REMARK    3  A    between atoms: N_12  and  C_13 
ROOT
HETATM    1  C   UNL     1      43.888 -21.276   1.893  1.00  0.00     0.001 A 
HETATM    2  C   UNL     1      43.094 -20.135   1.744  1.00  0.00     0.014 A 
HETATM    3  C   UNL     1      43.151 -19.112   2.700  1.00  0.00     0.006 A 
HETATM    4  C   UNL     1      43.995 -19.252   3.801  1.00  0.00     0.046 A 
HETATM    5  C   UNL     1      44.031 -18.188   4.815  1.00  0.00     0.272 A 
HETATM    6  O   UNL     1      44.757 -18.266   5.800  1.00  0.00    -0.266 OA
HETATM    7  N   UNL     1      43.205 -17.115   4.593  1.00  0.00    -0.243 N 
HETATM    8  N   UNL     1      42.389 -16.940   3.521  1.00  0.00    -0.175 NA
HETATM    9  C   UNL     1      42.351 -17.862   2.605  1.00  0.00     0.074 A 
HETATM   10  C   UNL     1      44.791 -20.394   3.949  1.00  0.00     0.018 A 
HETATM   11  C   UNL     1      44.738 -21.404   2.991  1.00  0.00     0.001 A 
HETATM   12  H   UNL     1      43.214 -16.374   5.289  1.00  0.00     0.192 HD
ENDROOT
BRANCH   9  13
HETATM   13  C   UNL     1      41.457 -17.666   1.398  1.00  0.00     0.165 C 
BRANCH  13  14
HETATM   14  C   UNL     1      40.904 -16.297   1.048  1.00  0.00     0.228 C 
HETATM   15  N   UNL     1      39.795 -15.888   1.752  1.00  0.00    -0.326 N 
HETATM   16  H   UNL     1      39.306 -16.613   2.281  1.00  0.00     0.169 HD
HETATM   17  O   UNL     1      41.518 -15.614   0.229  1.00  0.00    -0.273 OA
BRANCH  15  18
HETATM   18  C   UNL     1      39.151 -14.626   1.732  1.00  0.00     0.052 A 
HETATM   19  C   UNL     1      39.542 -13.645   2.663  1.00  0.00     0.037 A 
HETATM   20 BR   UNL     1      40.907 -13.969   3.948  1.00  0.00    -0.049 Br
HETATM   21  C   UNL     1      38.942 -12.380   2.676  1.00  0.00     0.021 A 
HETATM   22  C   UNL     1      37.944 -12.076   1.754  1.00  0.00     0.002 A 
HETATM   23  C   UNL     1      37.550 -13.033   0.823  1.00  0.00     0.002 A 
HETATM   24  C   UNL     1      38.151 -14.297   0.811  1.00  0.00     0.031 A 
ENDBRANCH  15  18
ENDBRANCH  13  14
ENDBRANCH   9  13
TORSDOF 3
ENDMDL
MODEL 4
REMARK VINA RESULT:      -7.9      3.192      7.897
REMARK  3 active torsions:
REMARK  status: ('A' for Active; 'I' for Inactive)
REMARK    1  A    between atoms: C_9  and  C_10 
REMARK    2  A    between atoms: C_10  and  C_11 
REMARK       I    between atoms: C_11  and  N_12 
REMARK    3  A    between atoms: N_12  and  C_13 
ROOT
HETATM    1  C   UNL     1      40.328 -11.320   3.613  1.00  0.00     0.001 A 
HETATM    2  C   UNL     1      40.898 -12.596   3.648  1.00  0.00     0.014 A 
HETATM    3  C   UNL     1      40.279 -13.659   2.977  1.00  0.00     0.006 A 
HETATM    4  C   UNL     1      39.089 -13.432   2.289  1.00  0.00     0.046 A 
HETATM    5  C   UNL     1      38.429 -14.557   1.609  1.00  0.00     0.272 A 
HETATM    6  O   UNL     1      37.381 -14.406   0.992  1.00  0.00    -0.266 OA
HETATM    7  N   UNL     1      39.053 -15.775   1.714  1.00  0.00    -0.243 N 
HETATM    8  N   UNL     1      40.224 -16.023   2.357  1.00  0.00    -0.175 NA
HETATM    9  C   UNL     1      40.831 -15.041   2.954  1.00  0.00     0.074 A 
HETATM   10  C   UNL     1      38.518 -12.155   2.253  1.00  0.00     0.018 A 
HETATM   11  C   UNL     1      39.142 -11.099   2.913  1.00  0.00     0.001 A 
HETATM   12  H   UNL     1      38.605 -16.564   1.254  1.00  0.00     0.192 HD
ENDROOT
BRANCH   9  13
HETATM   13  C   UNL     1      42.145 -15.306   3.660  1.00  0.00     0.165 C 
BRANCH  13  14
HETATM   14  C   UNL     1      43.063 -16.427   3.208  1.00  0.00     0.228 C 
HETATM   15  N   UNL     1      42.759 -17.688   3.667  1.00  0.00    -0.326 N 
HETATM   16  H   UNL     1      42.092 -17.736   4.440  1.00  0.00     0.169 HD
HETATM   17  O   UNL     1      43.959 -16.158   2.408  1.00  0.00    -0.273 OA
BRANCH  15  18
HETATM   18  C   UNL     1      43.351 -18.924   3.311  1.00  0.00     0.052 A 
HETATM   19  C   UNL     1      44.291 -19.508   4.183  1.00  0.00     0.037 A 
HETATM   20 BR   UNL     1      44.788 -18.680   5.823  1.00  0.00    -0.049 Br
HETATM   21  C   UNL     1      44.896 -20.733   3.878  1.00  0.00     0.021 A 
HETATM   22  C   UNL     1      44.567 -21.396   2.699  1.00  0.00     0.002 A 
HETATM   23  C   UNL     1      43.636 -20.835   1.830  1.00  0.00     0.002 A 
HETATM   24  C   UNL     1      43.032 -19.610   2.135  1.00  0.00     0.031 A 
ENDBRANCH  15  18
ENDBRANCH  13  14
ENDBRANCH   9  13
TORSDOF 3
ENDMDL
MODEL 5
REMARK VINA RESULT:      -7.9      2.950      8.019
REMARK  3 active torsions:
REMARK  status: ('A' for Active; 'I' for Inactive)
REMARK    1  A    between atoms: C_9  and  C_10 
REMARK    2  A    between atoms: C_10  and  C_11 
REMARK       I    between atoms: C_11  and  N_12 
REMARK    3  A    between atoms: N_12  and  C_13 
ROOT
HETATM    1  C   UNL     1      42.698 -11.175  -2.107  1.00  0.00     0.001 A 
HETATM    2  C   UNL     1      42.429 -11.895  -0.939  1.00  0.00     0.014 A 
HETATM    3  C   UNL     1      41.904 -13.191  -1.021  1.00  0.00     0.006 A 
HETATM    4  C   UNL     1      41.642 -13.745  -2.273  1.00  0.00     0.046 A 
HETATM    5  C   UNL     1      41.066 -15.096  -2.353  1.00  0.00     0.272 A 
HETATM    6  O   UNL     1      40.819 -15.624  -3.431  1.00  0.00    -0.266 OA
HETATM    7  N   UNL     1      40.821 -15.718  -1.155  1.00  0.00    -0.243 N 
HETATM    8  N   UNL     1      41.085 -15.214   0.079  1.00  0.00    -0.175 NA
HETATM    9  C   UNL     1      41.606 -14.028   0.173  1.00  0.00     0.074 A 
HETATM   10  C   UNL     1      41.912 -13.024  -3.443  1.00  0.00     0.018 A 
HETATM   11  C   UNL     1      42.443 -11.739  -3.357  1.00  0.00     0.001 A 
HETATM   12  H   UNL     1      40.416 -16.650  -1.194  1.00  0.00     0.192 HD
ENDROOT
BRANCH   9  13
HETATM   13  C   UNL     1      41.919 -13.465   1.545  1.00  0.00     0.165 C 
BRANCH  13  14
HETATM   14  C   UNL     1      42.655 -14.296   2.580  1.00  0.00     0.228 C 
HETATM   15  N   UNL     1      42.111 -15.525   2.875  1.00  0.00    -0.326 N 
HETATM   16  H   UNL     1      41.155 -15.683   2.551  1.00  0.00     0.169 HD
HETATM   17  O   UNL     1      43.717 -13.862   3.026  1.00  0.00    -0.273 OA
BRANCH  15  18
HETATM   18  C   UNL     1      42.643 -16.553   3.692  1.00  0.00     0.052 A 
HETATM   19  C   UNL     1      43.440 -17.551   3.101  1.00  0.00     0.037 A 
HETATM   20 BR   UNL     1      43.819 -17.560   1.236  1.00  0.00    -0.049 Br
HETATM   21  C   UNL     1      43.995 -18.582   3.868  1.00  0.00     0.021 A 
HETATM   22  C   UNL     1      43.765 -18.628   5.241  1.00  0.00     0.002 A 
HETATM   23  C   UNL     1      42.984 -17.645   5.841  1.00  0.00     0.002 A 
HETATM   24  C   UNL     1      42.429 -16.615   5.073  1.00  0.00     0.031 A 
ENDBRANCH  15  18
ENDBRANCH  13  14
ENDBRANCH   9  13
TORSDOF 3
ENDMDL
MODEL 6
REMARK VINA RESULT:      -7.8      1.979      2.289
REMARK  3 active torsions:
REMARK  status: ('A' for Active; 'I' for Inactive)
REMARK    1  A    between atoms: C_9  and  C_10 
REMARK    2  A    between atoms: C_10  and  C_11 
REMARK       I    between atoms: C_11  and  N_12 
REMARK    3  A    between atoms: N_12  and  C_13 
ROOT
HETATM    1  C   UNL     1      44.123 -20.791   2.342  1.00  0.00     0.001 A 
HETATM    2  C   UNL     1      43.399 -19.646   1.997  1.00  0.00     0.014 A 
HETATM    3  C   UNL     1      43.329 -18.566   2.888  1.00  0.00     0.006 A 
HETATM    4  C   UNL     1      43.974 -18.654   4.120  1.00  0.00     0.046 A 
HETATM    5  C   UNL     1      43.874 -17.529   5.062  1.00  0.00     0.272 A 
HETATM    6  O   UNL     1      44.425 -17.560   6.157  1.00  0.00    -0.266 OA
HETATM    7  N   UNL     1      43.129 -16.456   4.643  1.00  0.00    -0.243 N 
HETATM    8  N   UNL     1      42.507 -16.332   3.441  1.00  0.00    -0.175 NA
HETATM    9  C   UNL     1      42.593 -17.308   2.588  1.00  0.00     0.074 A 
HETATM   10  C   UNL     1      44.699 -19.800   4.466  1.00  0.00     0.018 A 
HETATM   11  C   UNL     1      44.775 -20.867   3.573  1.00  0.00     0.001 A 
HETATM   12  H   UNL     1      43.045 -15.673   5.287  1.00  0.00     0.192 HD
ENDROOT
BRANCH   9  13
HETATM   13  C   UNL     1      41.917 -17.171   1.239  1.00  0.00     0.165 C 
BRANCH  13  14
HETATM   14  C   UNL     1      41.321 -15.848   0.795  1.00  0.00     0.228 C 
HETATM   15  N   UNL     1      42.041 -15.136  -0.138  1.00  0.00    -0.326 N 
HETATM   16  H   UNL     1      43.006 -15.437  -0.285  1.00  0.00     0.169 HD
HETATM   17  O   UNL     1      40.212 -15.535   1.227  1.00  0.00    -0.273 OA
BRANCH  15  18
HETATM   18  C   UNL     1      41.673 -13.952  -0.821  1.00  0.00     0.052 A 
HETATM   19  C   UNL     1      41.056 -14.055  -2.083  1.00  0.00     0.037 A 
HETATM   20 BR   UNL     1      40.706 -15.740  -2.895  1.00  0.00    -0.049 Br
HETATM   21  C   UNL     1      40.666 -12.913  -2.793  1.00  0.00     0.021 A 
HETATM   22  C   UNL     1      40.883 -11.649  -2.249  1.00  0.00     0.002 A 
HETATM   23  C   UNL     1      41.487 -11.531  -1.001  1.00  0.00     0.002 A 
HETATM   24  C   UNL     1      41.876 -12.673  -0.292  1.00  0.00     0.031 A 
ENDBRANCH  15  18
ENDBRANCH  13  14
ENDBRANCH   9  13
TORSDOF 3
ENDMDL
MODEL 7
REMARK VINA RESULT:      -7.8      2.640      3.399
REMARK  3 active torsions:
REMARK  status: ('A' for Active; 'I' for Inactive)
REMARK    1  A    between atoms: C_9  and  C_10 
REMARK    2  A    between atoms: C_10  and  C_11 
REMARK       I    between atoms: C_11  and  N_12 
REMARK    3  A    between atoms: N_12  and  C_13 
ROOT
HETATM    1  C   UNL     1      44.168 -18.710   2.195  1.00  0.00     0.001 A 
HETATM    2  C   UNL     1      43.848 -17.759   3.169  1.00  0.00     0.014 A 
HETATM    3  C   UNL     1      43.760 -18.139   4.515  1.00  0.00     0.006 A 
HETATM    4  C   UNL     1      43.980 -19.470   4.866  1.00  0.00     0.046 A 
HETATM    5  C   UNL     1      43.859 -19.869   6.277  1.00  0.00     0.272 A 
HETATM    6  O   UNL     1      44.044 -21.027   6.633  1.00  0.00    -0.266 OA
HETATM    7  N   UNL     1      43.525 -18.871   7.158  1.00  0.00    -0.243 N 
HETATM    8  N   UNL     1      43.326 -17.563   6.851  1.00  0.00    -0.175 NA
HETATM    9  C   UNL     1      43.441 -17.186   5.612  1.00  0.00     0.074 A 
HETATM   10  C   UNL     1      44.301 -20.421   3.891  1.00  0.00     0.018 A 
HETATM   11  C   UNL     1      44.398 -20.037   2.555  1.00  0.00     0.001 A 
HETATM   12  H   UNL     1      43.431 -19.133   8.136  1.00  0.00     0.192 HD
ENDROOT
BRANCH   9  13
HETATM   13  C   UNL     1      43.237 -15.725   5.264  1.00  0.00     0.165 C 
BRANCH  13  14
HETATM   14  C   UNL     1      41.869 -15.199   4.871  1.00  0.00     0.228 C 
HETATM   15  N   UNL     1      41.759 -14.669   3.606  1.00  0.00    -0.326 N 
HETATM   16  H   UNL     1      42.638 -14.469   3.124  1.00  0.00     0.169 HD
HETATM   17  O   UNL     1      40.940 -15.348   5.664  1.00  0.00    -0.273 OA
BRANCH  15  18
HETATM   18  C   UNL     1      40.594 -14.230   2.931  1.00  0.00     0.052 A 
HETATM   19  C   UNL     1      39.880 -15.145   2.134  1.00  0.00     0.037 A 
HETATM   20 BR   UNL     1      40.440 -16.953   1.935  1.00  0.00    -0.049 Br
HETATM   21  C   UNL     1      38.718 -14.759   1.455  1.00  0.00     0.021 A 
HETATM   22  C   UNL     1      38.249 -13.453   1.567  1.00  0.00     0.002 A 
HETATM   23  C   UNL     1      38.940 -12.539   2.356  1.00  0.00     0.002 A 
HETATM   24  C   UNL     1      40.102 -12.925   3.034  1.00  0.00     0.031 A 
ENDBRANCH  15  18
ENDBRANCH  13  14
ENDBRANCH   9  13
TORSDOF 3
ENDMDL
MODEL 8
REMARK VINA RESULT:      -7.7      1.865      2.254
REMARK  3 active torsions:
REMARK  status: ('A' for Active; 'I' for Inactive)
REMARK    1  A    between atoms: C_9  and  C_10 
REMARK    2  A    between atoms: C_10  and  C_11 
REMARK       I    between atoms: C_11  and  N_12 
REMARK    3  A    between atoms: N_12  and  C_13 
ROOT
HETATM    1  C   UNL     1      43.693 -19.978   2.038  1.00  0.00     0.001 A 
HETATM    2  C   UNL     1      42.749 -18.948   1.996  1.00  0.00     0.014 A 
HETATM    3  C   UNL     1      42.623 -18.069   3.081  1.00  0.00     0.006 A 
HETATM    4  C   UNL     1      43.435 -18.243   4.199  1.00  0.00     0.046 A 
HETATM    5  C   UNL     1      43.280 -17.335   5.346  1.00  0.00     0.272 A 
HETATM    6  O   UNL     1      43.972 -17.449   6.352  1.00  0.00    -0.266 OA
HETATM    7  N   UNL     1      42.317 -16.366   5.221  1.00  0.00    -0.243 N 
HETATM    8  N   UNL     1      41.525 -16.157   4.136  1.00  0.00    -0.175 NA
HETATM    9  C   UNL     1      41.655 -16.940   3.107  1.00  0.00     0.074 A 
HETATM   10  C   UNL     1      44.381 -19.274   4.241  1.00  0.00     0.018 A 
HETATM   11  C   UNL     1      44.510 -20.139   3.157  1.00  0.00     0.001 A 
HETATM   12  H   UNL     1      42.192 -15.735   6.008  1.00  0.00     0.192 HD
ENDROOT
BRANCH   9  13
HETATM   13  C   UNL     1      40.788 -16.703   1.887  1.00  0.00     0.165 C 
BRANCH  13  14
HETATM   14  C   UNL     1      41.189 -15.694   0.826  1.00  0.00     0.228 C 
HETATM   15  N   UNL     1      40.383 -15.625  -0.287  1.00  0.00    -0.326 N 
HETATM   16  H   UNL     1      39.725 -16.396  -0.414  1.00  0.00     0.169 HD
HETATM   17  O   UNL     1      42.147 -14.957   1.058  1.00  0.00    -0.273 OA
BRANCH  15  18
HETATM   18  C   UNL     1      40.437 -14.702  -1.360  1.00  0.00     0.052 A 
HETATM   19  C   UNL     1      39.537 -13.620  -1.376  1.00  0.00     0.037 A 
HETATM   20 BR   UNL     1      38.250 -13.364   0.003  1.00  0.00    -0.049 Br
HETATM   21  C   UNL     1      39.558 -12.677  -2.410  1.00  0.00     0.021 A 
HETATM   22  C   UNL     1      40.483 -12.800  -3.444  1.00  0.00     0.002 A 
HETATM   23  C   UNL     1      41.382 -13.862  -3.439  1.00  0.00     0.002 A 
HETATM   24  C   UNL     1      41.361 -14.803  -2.405  1.00  0.00     0.031 A 
ENDBRANCH  15  18
ENDBRANCH  13  14
ENDBRANCH   9  13
TORSDOF 3
ENDMDL
MODEL 9
REMARK VINA RESULT:      -7.7      1.488      2.631
REMARK  3 active torsions:
REMARK  status: ('A' for Active; 'I' for Inactive)
REMARK    1  A    between atoms: C_9  and  C_10 
REMARK    2  A    between atoms: C_10  and  C_11 
REMARK       I    between atoms: C_11  and  N_12 
REMARK    3  A    between atoms: N_12  and  C_13 
ROOT
HETATM    1  C   UNL     1      43.222 -16.194   5.536  1.00  0.00     0.001 A 
HETATM    2  C   UNL     1      43.427 -16.579   4.208  1.00  0.00     0.014 A 
HETATM    3  C   UNL     1      43.783 -17.901   3.909  1.00  0.00     0.006 A 
HETATM    4  C   UNL     1      43.941 -18.817   4.948  1.00  0.00     0.046 A 
HETATM    5  C   UNL     1      44.341 -20.197   4.631  1.00  0.00     0.272 A 
HETATM    6  O   UNL     1      44.493 -21.038   5.510  1.00  0.00    -0.266 OA
HETATM    7  N   UNL     1      44.536 -20.478   3.302  1.00  0.00    -0.243 N 
HETATM    8  N   UNL     1      44.368 -19.614   2.267  1.00  0.00    -0.175 NA
HETATM    9  C   UNL     1      44.003 -18.393   2.522  1.00  0.00     0.074 A 
HETATM   10  C   UNL     1      43.736 -18.432   6.277  1.00  0.00     0.018 A 
HETATM   11  C   UNL     1      43.373 -17.119   6.569  1.00  0.00     0.001 A 
HETATM   12  H   UNL     1      44.819 -21.426   3.067  1.00  0.00     0.192 HD
ENDROOT
BRANCH   9  13
HETATM   13  C   UNL     1      43.797 -17.428   1.373  1.00  0.00     0.165 C 
BRANCH  13  14
HETATM   14  C   UNL     1      42.402 -17.022   0.934  1.00  0.00     0.228 C 
HETATM   15  N   UNL     1      42.284 -15.784   0.343  1.00  0.00    -0.326 N 
HETATM   16  H   UNL     1      43.084 -15.158   0.449  1.00  0.00     0.169 HD
HETATM   17  O   UNL     1      41.492 -17.841   1.058  1.00  0.00    -0.273 OA
BRANCH  15  18
HETATM   18  C   UNL     1      41.148 -15.205  -0.273  1.00  0.00     0.052 A 
HETATM   19  C   UNL     1      40.156 -14.619   0.536  1.00  0.00     0.037 A 
HETATM   20 BR   UNL     1      40.298 -14.588   2.434  1.00  0.00    -0.049 Br
HETATM   21  C   UNL     1      39.020 -14.026  -0.027  1.00  0.00     0.021 A 
HETATM   22  C   UNL     1      38.861 -14.005  -1.411  1.00  0.00     0.002 A 
HETATM   23  C   UNL     1      39.836 -14.575  -2.224  1.00  0.00     0.002 A 
HETATM   24  C   UNL     1      40.971 -15.168  -1.660  1.00  0.00     0.031 A 
ENDBRANCH  15  18
ENDBRANCH  13  14
ENDBRANCH   9  13
TORSDOF 3
ENDMDL
MODEL 10
REMARK VINA RESULT:      -7.6      3.003      7.366
REMARK  3 active torsions:
REMARK  status: ('A' for Active; 'I' for Inactive)
REMARK    1  A    between atoms: C_9  and  C_10 
REMARK    2  A    between atoms: C_10  and  C_11 
REMARK       I    between atoms: C_11  and  N_12 
REMARK    3  A    between atoms: N_12  and  C_13 
ROOT
HETATM    1  C   UNL     1      42.132 -14.398   5.278  1.00  0.00     0.001 A 
HETATM    2  C   UNL     1      42.613 -15.144   4.198  1.00  0.00     0.014 A 
HETATM    3  C   UNL     1      41.795 -15.368   3.083  1.00  0.00     0.006 A 
HETATM    4  C   UNL     1      40.500 -14.853   3.070  1.00  0.00     0.046 A 
HETATM    5  C   UNL     1      39.636 -15.114   1.908  1.00  0.00     0.272 A 
HETATM    6  O   UNL     1      38.490 -14.682   1.852  1.00  0.00    -0.266 OA
HETATM    7  N   UNL     1      40.188 -15.870   0.905  1.00  0.00    -0.243 N 
HETATM    8  N   UNL     1      41.452 -16.367   0.878  1.00  0.00    -0.175 NA
HETATM    9  C   UNL     1      42.237 -16.137   1.888  1.00  0.00     0.074 A 
HETATM   10  C   UNL     1      40.019 -14.105   4.151  1.00  0.00     0.018 A 
HETATM   11  C   UNL     1      40.839 -13.876   5.254  1.00  0.00     0.001 A 
HETATM   12  H   UNL     1      39.600 -16.065   0.098  1.00  0.00     0.192 HD
ENDROOT
BRANCH   9  13
HETATM   13  C   UNL     1      43.654 -16.674   1.858  1.00  0.00     0.165 C 
BRANCH  13  14
HETATM   14  C   UNL     1      43.928 -18.163   1.958  1.00  0.00     0.228 C 
HETATM   15  N   UNL     1      44.220 -18.647   3.213  1.00  0.00    -0.326 N 
HETATM   16  H   UNL     1      44.447 -17.948   3.923  1.00  0.00     0.169 HD
HETATM   17  O   UNL     1      43.796 -18.847   0.944  1.00  0.00    -0.273 OA
BRANCH  15  18
HETATM   18  C   UNL     1      44.387 -19.992   3.623  1.00  0.00     0.052 A 
HETATM   19  C   UNL     1      44.542 -20.274   4.994  1.00  0.00     0.037 A 
HETATM   20 BR   UNL     1      44.535 -18.898   6.309  1.00  0.00    -0.049 Br
HETATM   21  C   UNL     1      44.702 -21.589   5.448  1.00  0.00     0.021 A 
HETATM   22  C   UNL     1      44.705 -22.643   4.538  1.00  0.00     0.002 A 
HETATM   23  C   UNL     1      44.547 -22.381   3.181  1.00  0.00     0.002 A 
HETATM   24  C   UNL     1      44.388 -21.067   2.728  1.00  0.00     0.031 A 
ENDBRANCH  15  18
ENDBRANCH  13  14
ENDBRANCH   9  13
TORSDOF 3
ENDMDL
