MODEL 1
REMARK VINA RESULT:      -9.2      0.000      0.000
REMARK  9 active torsions:
REMARK  status: ('A' for Active; 'I' for Inactive)
REMARK    1  A    between atoms: C_3  and  C_4 
REMARK    2  A    between atoms: C_4  and  C_5 
REMARK    3  A    between atoms: C_5  and  N_6 
REMARK       I    between atoms: N_6  and  C_7 
REMARK    4  A    between atoms: C_7  and  C_8 
REMARK    5  A    between atoms: C_8  and  C_9 
REMARK    6  A    between atoms: C_9  and  C_10 
REMARK    7  A    between atoms: C_9  and  C_26 
REMARK    8  A    between atoms: C_14  and  C_15 
REMARK    9  A    between atoms: C_28  and  N_29 
ROOT
HETATM    1  C   UNL     1      40.598 -13.465   0.182  1.00  0.00     0.062 C 
ENDROOT
BRANCH   1   2
HETATM    2  C   UNL     1      40.876 -12.202   1.014  1.00  0.00     0.116 C 
BRANCH   2   3
HETATM    3  C   UNL     1      41.279 -12.411   2.462  1.00  0.00     0.218 C 
HETATM    4  N   UNL     1      42.554 -12.891   2.660  1.00  0.00    -0.361 N 
HETATM    5  H   UNL     1      43.070 -13.257   1.867  1.00  0.00     0.162 HD
HETATM    6  O   UNL     1      40.529 -12.121   3.391  1.00  0.00    -0.274 OA
BRANCH   4   7
HETATM    7  C   UNL     1      43.043 -13.143   4.003  1.00  0.00     0.128 C 
BRANCH   7   8
HETATM    8  C   UNL     1      43.551 -14.569   4.187  1.00  0.00     0.079 C 
BRANCH   8   9
HETATM    9  C   UNL     1      42.580 -15.374   5.008  1.00  0.00     0.035 A 
HETATM   10  C   UNL     1      42.974 -16.562   5.619  1.00  0.00     0.027 A 
HETATM   11  C   UNL     1      42.029 -17.299   6.328  1.00  0.00     0.003 A 
HETATM   12  C   UNL     1      40.721 -16.837   6.403  1.00  0.00     0.019 A 
HETATM   13  C   UNL     1      40.411 -15.649   5.765  1.00  0.00     0.117 A 
HETATM   14  N   UNL     1      41.308 -14.912   5.074  1.00  0.00    -0.266 NA
ENDBRANCH   8   9
ENDBRANCH   7   8
ENDBRANCH   4   7
ENDBRANCH   2   3
ENDBRANCH   1   2
BRANCH   1  15
HETATM   15  C   UNL     1      40.324 -14.688   1.035  1.00  0.00    -0.021 A 
HETATM   16  C   UNL     1      41.245 -15.774   1.234  1.00  0.00    -0.001 A 
HETATM   17  C   UNL     1      40.653 -16.682   2.109  1.00  0.00     0.043 A 
HETATM   18  C   UNL     1      42.543 -16.051   0.766  1.00  0.00     0.015 A 
HETATM   19  C   UNL     1      41.294 -17.856   2.537  1.00  0.00     0.044 A 
HETATM   20  N   UNL     1      39.409 -16.188   2.422  1.00  0.00    -0.365 N 
HETATM   21  C   UNL     1      42.599 -18.129   2.077  1.00  0.00    -0.005 A 
HETATM   22  C   UNL     1      43.200 -17.212   1.198  1.00  0.00     0.015 A 
HETATM   23  H   UNL     1      38.744 -16.647   3.029  1.00  0.00     0.165 HD
HETATM   24  C   UNL     1      39.216 -14.977   1.815  1.00  0.00     0.097 A 
BRANCH  21  25
HETATM   25  C   UNL     1      43.341 -19.331   2.513  1.00  0.00     0.066 A 
HETATM   26  N   UNL     1      44.005 -19.217   3.692  1.00  0.00    -0.260 NA
HETATM   27  C   UNL     1      44.693 -20.289   4.139  1.00  0.00     0.117 A 
HETATM   28  C   UNL     1      44.767 -21.493   3.462  1.00  0.00     0.019 A 
HETATM   29  C   UNL     1      44.094 -21.603   2.253  1.00  0.00     0.004 A 
HETATM   30  C   UNL     1      43.373 -20.512   1.770  1.00  0.00     0.032 A 
ENDBRANCH  21  25
ENDBRANCH   1  15
BRANCH   1  31
HETATM   31  C   UNL     1      39.551 -13.416  -0.932  1.00  0.00    -0.047 A 
HETATM   32  C   UNL     1      39.603 -14.365  -1.976  1.00  0.00     0.043 A 
HETATM   33  C   UNL     1      38.668 -14.337  -3.023  1.00  0.00     0.103 A 
HETATM   34  C   UNL     1      37.677 -13.353  -3.066  1.00  0.00     0.036 A 
HETATM   35  C   UNL     1      37.631 -12.395  -2.057  1.00  0.00     0.003 A 
HETATM   36  C   UNL     1      38.558 -12.425  -1.009  1.00  0.00     0.008 A 
BRANCH  33  37
HETATM   37  N   UNL     1      38.729 -15.350  -4.083  1.00  0.00    -0.116 N 
HETATM   38  O   UNL     1      37.701 -15.559  -4.745  1.00  0.00    -0.532 OA
HETATM   39  O   UNL     1      39.807 -15.938  -4.259  1.00  0.00    -0.532 OA
ENDBRANCH  33  37
ENDBRANCH   1  31
TORSDOF 9
ENDMDL
MODEL 2
REMARK VINA RESULT:      -9.1      1.198      1.527
REMARK  9 active torsions:
REMARK  status: ('A' for Active; 'I' for Inactive)
REMARK    1  A    between atoms: C_3  and  C_4 
REMARK    2  A    between atoms: C_4  and  C_5 
REMARK    3  A    between atoms: C_5  and  N_6 
REMARK       I    between atoms: N_6  and  C_7 
REMARK    4  A    between atoms: C_7  and  C_8 
REMARK    5  A    between atoms: C_8  and  C_9 
REMARK    6  A    between atoms: C_9  and  C_10 
REMARK    7  A    between atoms: C_9  and  C_26 
REMARK    8  A    between atoms: C_14  and  C_15 
REMARK    9  A    between atoms: C_28  and  N_29 
ROOT
HETATM    1  C   UNL     1      41.524 -13.552   0.822  1.00  0.00     0.062 C 
ENDROOT
BRANCH   1   2
HETATM    2  C   UNL     1      40.894 -12.393   1.610  1.00  0.00     0.116 C 
BRANCH   2   3
HETATM    3  C   UNL     1      41.198 -12.328   3.096  1.00  0.00     0.218 C 
HETATM    4  N   UNL     1      42.433 -12.807   3.469  1.00  0.00    -0.361 N 
HETATM    5  H   UNL     1      42.976 -13.341   2.800  1.00  0.00     0.162 HD
HETATM    6  O   UNL     1      40.409 -11.833   3.897  1.00  0.00    -0.274 OA
BRANCH   4   7
HETATM    7  C   UNL     1      42.827 -12.809   4.866  1.00  0.00     0.128 C 
BRANCH   7   8
HETATM    8  C   UNL     1      43.649 -14.036   5.244  1.00  0.00     0.079 C 
BRANCH   8   9
HETATM    9  C   UNL     1      42.750 -15.217   5.494  1.00  0.00     0.035 A 
HETATM   10  C   UNL     1      43.275 -16.503   5.610  1.00  0.00     0.027 A 
HETATM   11  C   UNL     1      42.402 -17.571   5.791  1.00  0.00     0.003 A 
HETATM   12  C   UNL     1      41.034 -17.333   5.845  1.00  0.00     0.019 A 
HETATM   13  C   UNL     1      40.595 -16.027   5.718  1.00  0.00     0.117 A 
HETATM   14  N   UNL     1      41.419 -14.971   5.545  1.00  0.00    -0.266 NA
ENDBRANCH   8   9
ENDBRANCH   7   8
ENDBRANCH   4   7
ENDBRANCH   2   3
ENDBRANCH   1   2
BRANCH   1  15
HETATM   15  C   UNL     1      41.053 -14.914   1.294  1.00  0.00    -0.021 A 
HETATM   16  C   UNL     1      41.910 -16.044   1.530  1.00  0.00    -0.001 A 
HETATM   17  C   UNL     1      41.119 -17.093   1.993  1.00  0.00     0.043 A 
HETATM   18  C   UNL     1      43.297 -16.258   1.415  1.00  0.00     0.015 A 
HETATM   19  C   UNL     1      41.645 -18.346   2.344  1.00  0.00     0.044 A 
HETATM   20  N   UNL     1      39.822 -16.636   2.023  1.00  0.00    -0.365 N 
HETATM   21  C   UNL     1      43.036 -18.558   2.240  1.00  0.00    -0.005 A 
HETATM   22  C   UNL     1      43.836 -17.500   1.777  1.00  0.00     0.015 A 
HETATM   23  H   UNL     1      39.025 -17.190   2.305  1.00  0.00     0.165 HD
HETATM   24  C   UNL     1      39.775 -15.322   1.643  1.00  0.00     0.097 A 
BRANCH  21  25
HETATM   25  C   UNL     1      43.657 -19.844   2.621  1.00  0.00     0.066 A 
HETATM   26  N   UNL     1      44.240 -19.874   3.847  1.00  0.00    -0.260 NA
HETATM   27  C   UNL     1      44.817 -21.028   4.247  1.00  0.00     0.117 A 
HETATM   28  C   UNL     1      44.854 -22.176   3.479  1.00  0.00     0.019 A 
HETATM   29  C   UNL     1      44.264 -22.139   2.222  1.00  0.00     0.004 A 
HETATM   30  C   UNL     1      43.659 -20.962   1.786  1.00  0.00     0.032 A 
ENDBRANCH  21  25
ENDBRANCH   1  15
BRANCH   1  31
HETATM   31  C   UNL     1      41.478 -13.536  -0.707  1.00  0.00    -0.047 A 
HETATM   32  C   UNL     1      40.474 -14.268  -1.379  1.00  0.00     0.043 A 
HETATM   33  C   UNL     1      40.415 -14.290  -2.781  1.00  0.00     0.103 A 
HETATM   34  C   UNL     1      41.363 -13.603  -3.545  1.00  0.00     0.036 A 
HETATM   35  C   UNL     1      42.373 -12.900  -2.895  1.00  0.00     0.003 A 
HETATM   36  C   UNL     1      42.430 -12.872  -1.496  1.00  0.00     0.008 A 
BRANCH  33  37
HETATM   37  N   UNL     1      39.347 -15.038  -3.455  1.00  0.00    -0.116 N 
HETATM   38  O   UNL     1      39.674 -15.857  -4.326  1.00  0.00    -0.532 OA
HETATM   39  O   UNL     1      38.177 -14.810  -3.113  1.00  0.00    -0.532 OA
ENDBRANCH  33  37
ENDBRANCH   1  31
TORSDOF 9
ENDMDL
MODEL 3
REMARK VINA RESULT:      -8.9      1.312      1.919
REMARK  9 active torsions:
REMARK  status: ('A' for Active; 'I' for Inactive)
REMARK    1  A    between atoms: C_3  and  C_4 
REMARK    2  A    between atoms: C_4  and  C_5 
REMARK    3  A    between atoms: C_5  and  N_6 
REMARK       I    between atoms: N_6  and  C_7 
REMARK    4  A    between atoms: C_7  and  C_8 
REMARK    5  A    between atoms: C_8  and  C_9 
REMARK    6  A    between atoms: C_9  and  C_10 
REMARK    7  A    between atoms: C_9  and  C_26 
REMARK    8  A    between atoms: C_14  and  C_15 
REMARK    9  A    between atoms: C_28  and  N_29 
ROOT
HETATM    1  C   UNL     1      40.876 -13.480   0.741  1.00  0.00     0.062 C 
ENDROOT
BRANCH   1   2
HETATM    2  C   UNL     1      40.018 -12.345   1.324  1.00  0.00     0.116 C 
BRANCH   2   3
HETATM    3  C   UNL     1      40.332 -11.908   2.744  1.00  0.00     0.218 C 
HETATM    4  N   UNL     1      39.540 -12.463   3.723  1.00  0.00    -0.361 N 
HETATM    5  H   UNL     1      38.696 -12.955   3.453  1.00  0.00     0.162 HD
HETATM    6  O   UNL     1      41.265 -11.149   2.996  1.00  0.00    -0.274 OA
BRANCH   4   7
HETATM    7  C   UNL     1      39.740 -12.106   5.117  1.00  0.00     0.128 C 
BRANCH   7   8
HETATM    8  C   UNL     1      39.713 -13.316   6.043  1.00  0.00     0.079 C 
BRANCH   8   9
HETATM    9  C   UNL     1      40.810 -14.282   5.682  1.00  0.00     0.035 A 
HETATM   10  C   UNL     1      40.667 -15.647   5.921  1.00  0.00     0.027 A 
HETATM   11  C   UNL     1      41.728 -16.496   5.617  1.00  0.00     0.003 A 
HETATM   12  C   UNL     1      42.898 -15.965   5.090  1.00  0.00     0.019 A 
HETATM   13  C   UNL     1      42.959 -14.598   4.886  1.00  0.00     0.117 A 
HETATM   14  N   UNL     1      41.946 -13.751   5.169  1.00  0.00    -0.266 NA
ENDBRANCH   8   9
ENDBRANCH   7   8
ENDBRANCH   4   7
ENDBRANCH   2   3
ENDBRANCH   1   2
BRANCH   1  15
HETATM   15  C   UNL     1      40.517 -14.842   1.302  1.00  0.00    -0.021 A 
HETATM   16  C   UNL     1      41.448 -15.920   1.502  1.00  0.00    -0.001 A 
HETATM   17  C   UNL     1      40.753 -16.985   2.071  1.00  0.00     0.043 A 
HETATM   18  C   UNL     1      42.828 -16.072   1.272  1.00  0.00     0.015 A 
HETATM   19  C   UNL     1      41.371 -18.197   2.419  1.00  0.00     0.044 A 
HETATM   20  N   UNL     1      39.443 -16.590   2.198  1.00  0.00    -0.365 N 
HETATM   21  C   UNL     1      42.756 -18.347   2.199  1.00  0.00    -0.005 A 
HETATM   22  C   UNL     1      43.459 -17.272   1.629  1.00  0.00     0.015 A 
HETATM   23  H   UNL     1      38.702 -17.168   2.569  1.00  0.00     0.165 HD
HETATM   24  C   UNL     1      39.297 -15.296   1.777  1.00  0.00     0.097 A 
BRANCH  21  25
HETATM   25  C   UNL     1      43.472 -19.586   2.570  1.00  0.00     0.066 A 
HETATM   26  N   UNL     1      44.126 -19.552   3.760  1.00  0.00    -0.260 NA
HETATM   27  C   UNL     1      44.791 -20.661   4.150  1.00  0.00     0.117 A 
HETATM   28  C   UNL     1      44.851 -21.824   3.404  1.00  0.00     0.019 A 
HETATM   29  C   UNL     1      44.189 -21.851   2.184  1.00  0.00     0.004 A 
HETATM   30  C   UNL     1      43.492 -20.721   1.760  1.00  0.00     0.032 A 
ENDBRANCH  21  25
ENDBRANCH   1  15
BRANCH   1  31
HETATM   31  C   UNL     1      41.018 -13.611  -0.776  1.00  0.00    -0.047 A 
HETATM   32  C   UNL     1      40.045 -14.329  -1.505  1.00  0.00     0.043 A 
HETATM   33  C   UNL     1      40.155 -14.485  -2.896  1.00  0.00     0.103 A 
HETATM   34  C   UNL     1      41.245 -13.951  -3.587  1.00  0.00     0.036 A 
HETATM   35  C   UNL     1      42.226 -13.264  -2.878  1.00  0.00     0.003 A 
HETATM   36  C   UNL     1      42.114 -13.102  -1.491  1.00  0.00     0.008 A 
BRANCH  33  37
HETATM   37  N   UNL     1      39.116 -15.214  -3.633  1.00  0.00    -0.116 N 
HETATM   38  O   UNL     1      37.933 -14.999  -3.332  1.00  0.00    -0.532 OA
HETATM   39  O   UNL     1      39.482 -16.002  -4.519  1.00  0.00    -0.532 OA
ENDBRANCH  33  37
ENDBRANCH   1  31
TORSDOF 9
ENDMDL
MODEL 4
REMARK VINA RESULT:      -8.7      3.480      8.088
REMARK  9 active torsions:
REMARK  status: ('A' for Active; 'I' for Inactive)
REMARK    1  A    between atoms: C_3  and  C_4 
REMARK    2  A    between atoms: C_4  and  C_5 
REMARK    3  A    between atoms: C_5  and  N_6 
REMARK       I    between atoms: N_6  and  C_7 
REMARK    4  A    between atoms: C_7  and  C_8 
REMARK    5  A    between atoms: C_8  and  C_9 
REMARK    6  A    between atoms: C_9  and  C_10 
REMARK    7  A    between atoms: C_9  and  C_26 
REMARK    8  A    between atoms: C_14  and  C_15 
REMARK    9  A    between atoms: C_28  and  N_29 
ROOT
HETATM    1  C   UNL     1      42.924 -17.329   2.879  1.00  0.00     0.062 C 
ENDROOT
BRANCH   1   2
HETATM    2  C   UNL     1      42.249 -17.460   1.504  1.00  0.00     0.116 C 
BRANCH   2   3
HETATM    3  C   UNL     1      41.550 -16.226   0.963  1.00  0.00     0.218 C 
HETATM    4  N   UNL     1      40.222 -16.100   1.302  1.00  0.00    -0.361 N 
HETATM    5  H   UNL     1      39.741 -16.896   1.707  1.00  0.00     0.162 HD
HETATM    6  O   UNL     1      42.150 -15.377   0.309  1.00  0.00    -0.274 OA
BRANCH   4   7
HETATM    7  C   UNL     1      39.448 -14.967   0.829  1.00  0.00     0.128 C 
BRANCH   7   8
HETATM    8  C   UNL     1      38.775 -14.200   1.960  1.00  0.00     0.079 C 
BRANCH   8   9
HETATM    9  C   UNL     1      39.429 -12.858   2.151  1.00  0.00     0.035 A 
HETATM   10  C   UNL     1      38.840 -11.883   2.953  1.00  0.00     0.027 A 
HETATM   11  C   UNL     1      39.455 -10.639   3.060  1.00  0.00     0.003 A 
HETATM   12  C   UNL     1      40.634 -10.399   2.364  1.00  0.00     0.019 A 
HETATM   13  C   UNL     1      41.151 -11.420   1.588  1.00  0.00     0.117 A 
HETATM   14  N   UNL     1      40.577 -12.637   1.467  1.00  0.00    -0.266 NA
ENDBRANCH   8   9
ENDBRANCH   7   8
ENDBRANCH   4   7
ENDBRANCH   2   3
ENDBRANCH   1   2
BRANCH   1  15
HETATM   15  C   UNL     1      41.981 -16.828   3.956  1.00  0.00    -0.021 A 
HETATM   16  C   UNL     1      41.903 -15.467   4.413  1.00  0.00    -0.001 A 
HETATM   17  C   UNL     1      40.895 -15.394   5.372  1.00  0.00     0.043 A 
HETATM   18  C   UNL     1      42.586 -14.284   4.073  1.00  0.00     0.015 A 
HETATM   19  C   UNL     1      40.539 -14.196   6.010  1.00  0.00     0.044 A 
HETATM   20  N   UNL     1      40.385 -16.662   5.517  1.00  0.00    -0.365 N 
HETATM   21  C   UNL     1      41.214 -13.008   5.663  1.00  0.00    -0.005 A 
HETATM   22  C   UNL     1      42.228 -13.078   4.694  1.00  0.00     0.015 A 
HETATM   23  H   UNL     1      39.647 -16.914   6.161  1.00  0.00     0.165 HD
HETATM   24  C   UNL     1      41.001 -17.522   4.648  1.00  0.00     0.097 A 
BRANCH  21  25
HETATM   25  C   UNL     1      40.867 -11.708   6.277  1.00  0.00     0.066 A 
HETATM   26  N   UNL     1      39.835 -11.734   7.161  1.00  0.00    -0.260 NA
HETATM   27  C   UNL     1      39.482 -10.574   7.756  1.00  0.00     0.117 A 
HETATM   28  C   UNL     1      40.103  -9.363   7.512  1.00  0.00     0.019 A 
HETATM   29  C   UNL     1      41.151  -9.340   6.602  1.00  0.00     0.004 A 
HETATM   30  C   UNL     1      41.539 -10.524   5.976  1.00  0.00     0.032 A 
ENDBRANCH  21  25
ENDBRANCH   1  15
BRANCH   1  31
HETATM   31  C   UNL     1      43.710 -18.512   3.447  1.00  0.00    -0.047 A 
HETATM   32  C   UNL     1      43.727 -19.736   2.743  1.00  0.00     0.043 A 
HETATM   33  C   UNL     1      44.423 -20.847   3.246  1.00  0.00     0.103 A 
HETATM   34  C   UNL     1      45.098 -20.770   4.468  1.00  0.00     0.036 A 
HETATM   35  C   UNL     1      45.066 -19.578   5.184  1.00  0.00     0.003 A 
HETATM   36  C   UNL     1      44.378 -18.467   4.682  1.00  0.00     0.008 A 
BRANCH  33  37
HETATM   37  N   UNL     1      44.447 -22.100   2.483  1.00  0.00    -0.116 N 
HETATM   38  O   UNL     1      44.165 -22.049   1.277  1.00  0.00    -0.532 OA
HETATM   39  O   UNL     1      44.751 -23.139   3.088  1.00  0.00    -0.532 OA
ENDBRANCH  33  37
ENDBRANCH   1  31
TORSDOF 9
ENDMDL
MODEL 5
REMARK VINA RESULT:      -8.7      3.449      8.567
REMARK  9 active torsions:
REMARK  status: ('A' for Active; 'I' for Inactive)
REMARK    1  A    between atoms: C_3  and  C_4 
REMARK    2  A    between atoms: C_4  and  C_5 
REMARK    3  A    between atoms: C_5  and  N_6 
REMARK       I    between atoms: N_6  and  C_7 
REMARK    4  A    between atoms: C_7  and  C_8 
REMARK    5  A    between atoms: C_8  and  C_9 
REMARK    6  A    between atoms: C_9  and  C_10 
REMARK    7  A    between atoms: C_9  and  C_26 
REMARK    8  A    between atoms: C_14  and  C_15 
REMARK    9  A    between atoms: C_28  and  N_29 
ROOT
HETATM    1  C   UNL     1      42.932 -17.372   2.789  1.00  0.00     0.062 C 
ENDROOT
BRANCH   1   2
HETATM    2  C   UNL     1      42.199 -17.557   1.450  1.00  0.00     0.116 C 
BRANCH   2   3
HETATM    3  C   UNL     1      41.382 -16.380   0.948  1.00  0.00     0.218 C 
HETATM    4  N   UNL     1      42.039 -15.521   0.098  1.00  0.00    -0.361 N 
HETATM    5  H   UNL     1      43.047 -15.593   0.009  1.00  0.00     0.162 HD
HETATM    6  O   UNL     1      40.198 -16.240   1.247  1.00  0.00    -0.274 OA
BRANCH   4   7
HETATM    7  C   UNL     1      41.361 -14.352  -0.433  1.00  0.00     0.128 C 
BRANCH   7   8
HETATM    8  C   UNL     1      41.449 -14.260  -1.952  1.00  0.00     0.079 C 
BRANCH   8   9
HETATM    9  C   UNL     1      40.161 -14.715  -2.584  1.00  0.00     0.035 A 
HETATM   10  C   UNL     1      40.131 -15.821  -3.430  1.00  0.00     0.027 A 
HETATM   11  C   UNL     1      38.926 -16.174  -4.031  1.00  0.00     0.003 A 
HETATM   12  C   UNL     1      37.790 -15.416  -3.779  1.00  0.00     0.019 A 
HETATM   13  C   UNL     1      37.906 -14.331  -2.929  1.00  0.00     0.117 A 
HETATM   14  N   UNL     1      39.060 -13.967  -2.330  1.00  0.00    -0.266 NA
ENDBRANCH   8   9
ENDBRANCH   7   8
ENDBRANCH   4   7
ENDBRANCH   2   3
ENDBRANCH   1   2
BRANCH   1  15
HETATM   15  C   UNL     1      42.049 -16.781   3.871  1.00  0.00    -0.021 A 
HETATM   16  C   UNL     1      42.063 -15.404   4.282  1.00  0.00    -0.001 A 
HETATM   17  C   UNL     1      41.088 -15.240   5.263  1.00  0.00     0.043 A 
HETATM   18  C   UNL     1      42.804 -14.274   3.885  1.00  0.00     0.015 A 
HETATM   19  C   UNL     1      40.818 -14.002   5.869  1.00  0.00     0.044 A 
HETATM   20  N   UNL     1      40.509 -16.470   5.465  1.00  0.00    -0.365 N 
HETATM   21  C   UNL     1      41.552 -12.868   5.464  1.00  0.00    -0.005 A 
HETATM   22  C   UNL     1      42.534 -13.030   4.473  1.00  0.00     0.015 A 
HETATM   23  H   UNL     1      39.775 -16.657   6.135  1.00  0.00     0.165 HD
HETATM   24  C   UNL     1      41.049 -17.392   4.611  1.00  0.00     0.097 A 
BRANCH  21  25
HETATM   25  C   UNL     1      41.298 -11.531   6.042  1.00  0.00     0.066 A 
HETATM   26  N   UNL     1      40.475 -10.727   5.320  1.00  0.00    -0.260 NA
HETATM   27  C   UNL     1      40.204  -9.496   5.806  1.00  0.00     0.117 A 
HETATM   28  C   UNL     1      40.722  -9.006   6.991  1.00  0.00     0.019 A 
HETATM   29  C   UNL     1      41.569  -9.828   7.722  1.00  0.00     0.004 A 
HETATM   30  C   UNL     1      41.863 -11.104   7.244  1.00  0.00     0.032 A 
ENDBRANCH  21  25
ENDBRANCH   1  15
BRANCH   1  31
HETATM   31  C   UNL     1      43.704 -18.547   3.392  1.00  0.00    -0.047 A 
HETATM   32  C   UNL     1      43.735 -19.782   2.709  1.00  0.00     0.043 A 
HETATM   33  C   UNL     1      44.417 -20.885   3.244  1.00  0.00     0.103 A 
HETATM   34  C   UNL     1      45.065 -20.791   4.478  1.00  0.00     0.036 A 
HETATM   35  C   UNL     1      45.020 -19.587   5.175  1.00  0.00     0.003 A 
HETATM   36  C   UNL     1      44.345 -18.483   4.640  1.00  0.00     0.008 A 
BRANCH  33  37
HETATM   37  N   UNL     1      44.455 -22.151   2.501  1.00  0.00    -0.116 N 
HETATM   38  O   UNL     1      44.125 -22.131   1.306  1.00  0.00    -0.532 OA
HETATM   39  O   UNL     1      44.819 -23.168   3.111  1.00  0.00    -0.532 OA
ENDBRANCH  33  37
ENDBRANCH   1  31
TORSDOF 9
ENDMDL
MODEL 6
REMARK VINA RESULT:      -8.7      2.253      4.686
REMARK  9 active torsions:
REMARK  status: ('A' for Active; 'I' for Inactive)
REMARK    1  A    between atoms: C_3  and  C_4 
REMARK    2  A    between atoms: C_4  and  C_5 
REMARK    3  A    between atoms: C_5  and  N_6 
REMARK       I    between atoms: N_6  and  C_7 
REMARK    4  A    between atoms: C_7  and  C_8 
REMARK    5  A    between atoms: C_8  and  C_9 
REMARK    6  A    between atoms: C_9  and  C_10 
REMARK    7  A    between atoms: C_9  and  C_26 
REMARK    8  A    between atoms: C_14  and  C_15 
REMARK    9  A    between atoms: C_28  and  N_29 
ROOT
HETATM    1  C   UNL     1      41.028 -13.382   1.271  1.00  0.00     0.062 C 
ENDROOT
BRANCH   1   2
HETATM    2  C   UNL     1      40.960 -12.018   1.977  1.00  0.00     0.116 C 
BRANCH   2   3
HETATM    3  C   UNL     1      41.261 -10.793   1.132  1.00  0.00     0.218 C 
HETATM    4  N   UNL     1      42.461 -10.817   0.459  1.00  0.00    -0.361 N 
HETATM    5  H   UNL     1      43.148 -11.522   0.703  1.00  0.00     0.162 HD
HETATM    6  O   UNL     1      40.458  -9.869   1.022  1.00  0.00    -0.274 OA
BRANCH   4   7
HETATM    7  C   UNL     1      42.862  -9.693  -0.368  1.00  0.00     0.128 C 
BRANCH   7   8
HETATM    8  C   UNL     1      43.321 -10.119  -1.757  1.00  0.00     0.079 C 
BRANCH   8   9
HETATM    9  C   UNL     1      42.152 -10.591  -2.579  1.00  0.00     0.035 A 
HETATM   10  C   UNL     1      42.344 -11.400  -3.697  1.00  0.00     0.027 A 
HETATM   11  C   UNL     1      41.237 -11.771  -4.455  1.00  0.00     0.003 A 
HETATM   12  C   UNL     1      39.975 -11.324  -4.085  1.00  0.00     0.019 A 
HETATM   13  C   UNL     1      39.871 -10.522  -2.963  1.00  0.00     0.117 A 
HETATM   14  N   UNL     1      40.927 -10.148  -2.206  1.00  0.00    -0.266 NA
ENDBRANCH   8   9
ENDBRANCH   7   8
ENDBRANCH   4   7
ENDBRANCH   2   3
ENDBRANCH   1   2
BRANCH   1  15
HETATM   15  C   UNL     1      40.913 -14.551   2.230  1.00  0.00    -0.021 A 
HETATM   16  C   UNL     1      41.661 -15.775   2.127  1.00  0.00    -0.001 A 
HETATM   17  C   UNL     1      41.314 -16.581   3.208  1.00  0.00     0.043 A 
HETATM   18  C   UNL     1      42.624 -16.256   1.220  1.00  0.00     0.015 A 
HETATM   19  C   UNL     1      41.880 -17.847   3.426  1.00  0.00     0.044 A 
HETATM   20  N   UNL     1      40.375 -15.893   3.939  1.00  0.00    -0.365 N 
HETATM   21  C   UNL     1      42.853 -18.326   2.524  1.00  0.00    -0.005 A 
HETATM   22  C   UNL     1      43.208 -17.513   1.435  1.00  0.00     0.015 A 
HETATM   23  H   UNL     1      39.929 -16.242   4.776  1.00  0.00     0.165 HD
HETATM   24  C   UNL     1      40.155 -14.661   3.384  1.00  0.00     0.097 A 
BRANCH  21  25
HETATM   25  C   UNL     1      43.509 -19.637   2.713  1.00  0.00     0.066 A 
HETATM   26  N   UNL     1      44.188 -19.791   3.879  1.00  0.00    -0.260 NA
HETATM   27  C   UNL     1      44.800 -20.974   4.105  1.00  0.00     0.117 A 
HETATM   28  C   UNL     1      44.783 -22.032   3.215  1.00  0.00     0.019 A 
HETATM   29  C   UNL     1      44.095 -21.866   2.020  1.00  0.00     0.004 A 
HETATM   30  C   UNL     1      43.451 -20.658   1.763  1.00  0.00     0.032 A 
ENDBRANCH  21  25
ENDBRANCH   1  15
BRANCH   1  31
HETATM   31  C   UNL     1      40.115 -13.656   0.075  1.00  0.00    -0.047 A 
HETATM   32  C   UNL     1      40.653 -14.247  -1.089  1.00  0.00     0.043 A 
HETATM   33  C   UNL     1      39.847 -14.494  -2.211  1.00  0.00     0.103 A 
HETATM   34  C   UNL     1      38.495 -14.140  -2.209  1.00  0.00     0.036 A 
HETATM   35  C   UNL     1      37.958 -13.532  -1.078  1.00  0.00     0.003 A 
HETATM   36  C   UNL     1      38.759 -13.290   0.045  1.00  0.00     0.008 A 
BRANCH  33  37
HETATM   37  N   UNL     1      40.426 -15.133  -3.399  1.00  0.00    -0.116 N 
HETATM   38  O   UNL     1      39.648 -15.625  -4.230  1.00  0.00    -0.532 OA
HETATM   39  O   UNL     1      41.662 -15.141  -3.506  1.00  0.00    -0.532 OA
ENDBRANCH  33  37
ENDBRANCH   1  31
TORSDOF 9
ENDMDL
MODEL 7
REMARK VINA RESULT:      -8.7      2.306      2.694
REMARK  9 active torsions:
REMARK  status: ('A' for Active; 'I' for Inactive)
REMARK    1  A    between atoms: C_3  and  C_4 
REMARK    2  A    between atoms: C_4  and  C_5 
REMARK    3  A    between atoms: C_5  and  N_6 
REMARK       I    between atoms: N_6  and  C_7 
REMARK    4  A    between atoms: C_7  and  C_8 
REMARK    5  A    between atoms: C_8  and  C_9 
REMARK    6  A    between atoms: C_9  and  C_10 
REMARK    7  A    between atoms: C_9  and  C_26 
REMARK    8  A    between atoms: C_14  and  C_15 
REMARK    9  A    between atoms: C_28  and  N_29 
ROOT
HETATM    1  C   UNL     1      41.777 -13.679   0.756  1.00  0.00     0.062 C 
ENDROOT
BRANCH   1   2
HETATM    2  C   UNL     1      41.241 -12.517   1.609  1.00  0.00     0.116 C 
BRANCH   2   3
HETATM    3  C   UNL     1      41.338 -12.672   3.116  1.00  0.00     0.218 C 
HETATM    4  N   UNL     1      42.598 -12.931   3.606  1.00  0.00    -0.361 N 
HETATM    5  H   UNL     1      43.332 -13.196   2.958  1.00  0.00     0.162 HD
HETATM    6  O   UNL     1      40.361 -12.524   3.846  1.00  0.00    -0.274 OA
BRANCH   4   7
HETATM    7  C   UNL     1      42.808 -13.113   5.030  1.00  0.00     0.128 C 
BRANCH   7   8
HETATM    8  C   UNL     1      44.008 -14.000   5.340  1.00  0.00     0.079 C 
BRANCH   8   9
HETATM    9  C   UNL     1      43.560 -15.306   5.940  1.00  0.00     0.035 A 
HETATM   10  C   UNL     1      42.799 -16.208   5.200  1.00  0.00     0.027 A 
HETATM   11  C   UNL     1      42.365 -17.380   5.813  1.00  0.00     0.003 A 
HETATM   12  C   UNL     1      42.693 -17.618   7.141  1.00  0.00     0.019 A 
HETATM   13  C   UNL     1      43.449 -16.669   7.805  1.00  0.00     0.117 A 
HETATM   14  N   UNL     1      43.887 -15.525   7.236  1.00  0.00    -0.266 NA
ENDBRANCH   8   9
ENDBRANCH   7   8
ENDBRANCH   4   7
ENDBRANCH   2   3
ENDBRANCH   1   2
BRANCH   1  15
HETATM   15  C   UNL     1      41.272 -15.033   1.216  1.00  0.00    -0.021 A 
HETATM   16  C   UNL     1      42.108 -16.160   1.527  1.00  0.00    -0.001 A 
HETATM   17  C   UNL     1      41.285 -17.201   1.950  1.00  0.00     0.043 A 
HETATM   18  C   UNL     1      43.500 -16.377   1.509  1.00  0.00     0.015 A 
HETATM   19  C   UNL     1      41.784 -18.449   2.355  1.00  0.00     0.044 A 
HETATM   20  N   UNL     1      39.991 -16.743   1.884  1.00  0.00    -0.365 N 
HETATM   21  C   UNL     1      43.178 -18.664   2.349  1.00  0.00    -0.005 A 
HETATM   22  C   UNL     1      44.010 -17.614   1.926  1.00  0.00     0.015 A 
HETATM   23  H   UNL     1      39.175 -17.291   2.120  1.00  0.00     0.165 HD
HETATM   24  C   UNL     1      39.973 -15.435   1.482  1.00  0.00     0.097 A 
BRANCH  21  25
HETATM   25  C   UNL     1      43.769 -19.945   2.791  1.00  0.00     0.066 A 
HETATM   26  N   UNL     1      43.700 -20.963   1.895  1.00  0.00    -0.260 NA
HETATM   27  C   UNL     1      44.231 -22.154   2.246  1.00  0.00     0.117 A 
HETATM   28  C   UNL     1      44.833 -22.398   3.466  1.00  0.00     0.019 A 
HETATM   29  C   UNL     1      44.893 -21.357   4.383  1.00  0.00     0.004 A 
HETATM   30  C   UNL     1      44.356 -20.116   4.045  1.00  0.00     0.032 A 
ENDBRANCH  21  25
ENDBRANCH   1  15
BRANCH   1  31
HETATM   31  C   UNL     1      41.650 -13.615  -0.767  1.00  0.00    -0.047 A 
HETATM   32  C   UNL     1      42.130 -12.480  -1.457  1.00  0.00     0.043 A 
HETATM   33  C   UNL     1      42.011 -12.380  -2.852  1.00  0.00     0.103 A 
HETATM   34  C   UNL     1      41.395 -13.396  -3.588  1.00  0.00     0.036 A 
HETATM   35  C   UNL     1      40.894 -14.508  -2.917  1.00  0.00     0.003 A 
HETATM   36  C   UNL     1      41.016 -14.612  -1.526  1.00  0.00     0.008 A 
BRANCH  33  37
HETATM   37  N   UNL     1      42.541 -11.202  -3.547  1.00  0.00    -0.116 N 
HETATM   38  O   UNL     1      42.976 -10.268  -2.857  1.00  0.00    -0.532 OA
HETATM   39  O   UNL     1      42.526 -11.208  -4.787  1.00  0.00    -0.532 OA
ENDBRANCH  33  37
ENDBRANCH   1  31
TORSDOF 9
ENDMDL
MODEL 8
REMARK VINA RESULT:      -8.6      1.426      2.365
REMARK  9 active torsions:
REMARK  status: ('A' for Active; 'I' for Inactive)
REMARK    1  A    between atoms: C_3  and  C_4 
REMARK    2  A    between atoms: C_4  and  C_5 
REMARK    3  A    between atoms: C_5  and  N_6 
REMARK       I    between atoms: N_6  and  C_7 
REMARK    4  A    between atoms: C_7  and  C_8 
REMARK    5  A    between atoms: C_8  and  C_9 
REMARK    6  A    between atoms: C_9  and  C_10 
REMARK    7  A    between atoms: C_9  and  C_26 
REMARK    8  A    between atoms: C_14  and  C_15 
REMARK    9  A    between atoms: C_28  and  N_29 
ROOT
HETATM    1  C   UNL     1      40.696 -13.292   0.846  1.00  0.00     0.062 C 
ENDROOT
BRANCH   1   2
HETATM    2  C   UNL     1      39.301 -13.534   1.446  1.00  0.00     0.116 C 
BRANCH   2   3
HETATM    3  C   UNL     1      39.147 -13.300   2.938  1.00  0.00     0.218 C 
HETATM    4  N   UNL     1      39.579 -14.327   3.746  1.00  0.00    -0.361 N 
HETATM    5  H   UNL     1      39.782 -15.229   3.330  1.00  0.00     0.162 HD
HETATM    6  O   UNL     1      38.710 -12.243   3.385  1.00  0.00    -0.274 OA
BRANCH   4   7
HETATM    7  C   UNL     1      39.466 -14.221   5.190  1.00  0.00     0.128 C 
BRANCH   7   8
HETATM    8  C   UNL     1      40.795 -13.900   5.862  1.00  0.00     0.079 C 
BRANCH   8   9
HETATM    9  C   UNL     1      41.657 -15.132   5.944  1.00  0.00     0.035 A 
HETATM   10  C   UNL     1      41.094 -16.404   5.861  1.00  0.00     0.027 A 
HETATM   11  C   UNL     1      41.923 -17.514   5.992  1.00  0.00     0.003 A 
HETATM   12  C   UNL     1      43.283 -17.329   6.206  1.00  0.00     0.019 A 
HETATM   13  C   UNL     1      43.761 -16.033   6.278  1.00  0.00     0.117 A 
HETATM   14  N   UNL     1      42.981 -14.937   6.152  1.00  0.00    -0.266 NA
ENDBRANCH   8   9
ENDBRANCH   7   8
ENDBRANCH   4   7
ENDBRANCH   2   3
ENDBRANCH   1   2
BRANCH   1  15
HETATM   15  C   UNL     1      41.806 -13.952   1.642  1.00  0.00    -0.021 A 
HETATM   16  C   UNL     1      42.026 -15.370   1.727  1.00  0.00    -0.001 A 
HETATM   17  C   UNL     1      43.157 -15.582   2.511  1.00  0.00     0.043 A 
HETATM   18  C   UNL     1      41.374 -16.493   1.182  1.00  0.00     0.015 A 
HETATM   19  C   UNL     1      43.668 -16.861   2.779  1.00  0.00     0.044 A 
HETATM   20  N   UNL     1      43.607 -14.346   2.912  1.00  0.00    -0.365 N 
HETATM   21  C   UNL     1      43.023 -17.986   2.225  1.00  0.00    -0.005 A 
HETATM   22  C   UNL     1      41.884 -17.775   1.430  1.00  0.00     0.015 A 
HETATM   23  H   UNL     1      44.409 -14.191   3.506  1.00  0.00     0.165 HD
HETATM   24  C   UNL     1      42.828 -13.361   2.367  1.00  0.00     0.097 A 
BRANCH  21  25
HETATM   25  C   UNL     1      43.528 -19.358   2.445  1.00  0.00     0.066 A 
HETATM   26  N   UNL     1      44.313 -19.526   3.540  1.00  0.00    -0.260 NA
HETATM   27  C   UNL     1      44.795 -20.763   3.791  1.00  0.00     0.117 A 
HETATM   28  C   UNL     1      44.542 -21.864   2.994  1.00  0.00     0.019 A 
HETATM   29  C   UNL     1      43.746 -21.685   1.870  1.00  0.00     0.004 A 
HETATM   30  C   UNL     1      43.233 -20.421   1.590  1.00  0.00     0.032 A 
ENDBRANCH  21  25
ENDBRANCH   1  15
BRANCH   1  31
HETATM   31  C   UNL     1      40.938 -13.581  -0.637  1.00  0.00    -0.047 A 
HETATM   32  C   UNL     1      39.961 -14.284  -1.376  1.00  0.00     0.043 A 
HETATM   33  C   UNL     1      40.160 -14.582  -2.733  1.00  0.00     0.103 A 
HETATM   34  C   UNL     1      41.341 -14.206  -3.378  1.00  0.00     0.036 A 
HETATM   35  C   UNL     1      42.323 -13.537  -2.655  1.00  0.00     0.003 A 
HETATM   36  C   UNL     1      42.124 -13.233  -1.302  1.00  0.00     0.008 A 
BRANCH  33  37
HETATM   37  N   UNL     1      39.118 -15.291  -3.485  1.00  0.00    -0.116 N 
HETATM   38  O   UNL     1      39.479 -16.097  -4.355  1.00  0.00    -0.532 OA
HETATM   39  O   UNL     1      37.935 -15.047  -3.204  1.00  0.00    -0.532 OA
ENDBRANCH  33  37
ENDBRANCH   1  31
TORSDOF 9
ENDMDL
MODEL 9
REMARK VINA RESULT:      -8.5      3.658      8.482
REMARK  9 active torsions:
REMARK  status: ('A' for Active; 'I' for Inactive)
REMARK    1  A    between atoms: C_3  and  C_4 
REMARK    2  A    between atoms: C_4  and  C_5 
REMARK    3  A    between atoms: C_5  and  N_6 
REMARK       I    between atoms: N_6  and  C_7 
REMARK    4  A    between atoms: C_7  and  C_8 
REMARK    5  A    between atoms: C_8  and  C_9 
REMARK    6  A    between atoms: C_9  and  C_10 
REMARK    7  A    between atoms: C_9  and  C_26 
REMARK    8  A    between atoms: C_14  and  C_15 
REMARK    9  A    between atoms: C_28  and  N_29 
ROOT
HETATM    1  C   UNL     1      42.878 -17.398   2.753  1.00  0.00     0.062 C 
ENDROOT
BRANCH   1   2
HETATM    2  C   UNL     1      42.110 -17.621   1.440  1.00  0.00     0.116 C 
BRANCH   2   3
HETATM    3  C   UNL     1      41.394 -16.418   0.852  1.00  0.00     0.218 C 
HETATM    4  N   UNL     1      42.124 -15.676  -0.048  1.00  0.00    -0.361 N 
HETATM    5  H   UNL     1      43.123 -15.837  -0.123  1.00  0.00     0.162 HD
HETATM    6  O   UNL     1      40.225 -16.161   1.129  1.00  0.00    -0.274 OA
BRANCH   4   7
HETATM    7  C   UNL     1      41.548 -14.495  -0.664  1.00  0.00     0.128 C 
BRANCH   7   8
HETATM    8  C   UNL     1      41.792 -13.229   0.149  1.00  0.00     0.079 C 
BRANCH   8   9
HETATM    9  C   UNL     1      42.161 -12.083  -0.755  1.00  0.00     0.035 A 
HETATM   10  C   UNL     1      41.519 -11.902  -1.978  1.00  0.00     0.027 A 
HETATM   11  C   UNL     1      41.928 -10.859  -2.804  1.00  0.00     0.003 A 
HETATM   12  C   UNL     1      42.965 -10.031  -2.394  1.00  0.00     0.019 A 
HETATM   13  C   UNL     1      43.552 -10.281  -1.166  1.00  0.00     0.117 A 
HETATM   14  N   UNL     1      43.174 -11.284  -0.343  1.00  0.00    -0.266 NA
ENDBRANCH   8   9
ENDBRANCH   7   8
ENDBRANCH   4   7
ENDBRANCH   2   3
ENDBRANCH   1   2
BRANCH   1  15
HETATM   15  C   UNL     1      42.022 -16.782   3.843  1.00  0.00    -0.021 A 
HETATM   16  C   UNL     1      42.055 -15.397   4.229  1.00  0.00    -0.001 A 
HETATM   17  C   UNL     1      41.101 -15.208   5.226  1.00  0.00     0.043 A 
HETATM   18  C   UNL     1      42.797 -14.281   3.797  1.00  0.00     0.015 A 
HETATM   19  C   UNL     1      40.854 -13.958   5.815  1.00  0.00     0.044 A 
HETATM   20  N   UNL     1      40.517 -16.429   5.462  1.00  0.00    -0.365 N 
HETATM   21  C   UNL     1      41.589 -12.837   5.376  1.00  0.00    -0.005 A 
HETATM   22  C   UNL     1      42.548 -13.025   4.368  1.00  0.00     0.015 A 
HETATM   23  H   UNL     1      39.795 -16.598   6.149  1.00  0.00     0.165 HD
HETATM   24  C   UNL     1      41.033 -17.371   4.613  1.00  0.00     0.097 A 
BRANCH  21  25
HETATM   25  C   UNL     1      41.357 -11.488   5.935  1.00  0.00     0.066 A 
HETATM   26  N   UNL     1      41.882 -11.265   7.168  1.00  0.00    -0.260 NA
HETATM   27  C   UNL     1      41.704 -10.046   7.722  1.00  0.00     0.117 A 
HETATM   28  C   UNL     1      41.013  -9.017   7.111  1.00  0.00     0.019 A 
HETATM   29  C   UNL     1      40.470  -9.252   5.854  1.00  0.00     0.004 A 
HETATM   30  C   UNL     1      40.642 -10.500   5.258  1.00  0.00     0.032 A 
ENDBRANCH  21  25
ENDBRANCH   1  15
BRANCH   1  31
HETATM   31  C   UNL     1      43.670 -18.554   3.367  1.00  0.00    -0.047 A 
HETATM   32  C   UNL     1      43.700 -19.803   2.707  1.00  0.00     0.043 A 
HETATM   33  C   UNL     1      44.401 -20.889   3.252  1.00  0.00     0.103 A 
HETATM   34  C   UNL     1      45.068 -20.765   4.474  1.00  0.00     0.036 A 
HETATM   35  C   UNL     1      45.023 -19.549   5.148  1.00  0.00     0.003 A 
HETATM   36  C   UNL     1      44.330 -18.461   4.603  1.00  0.00     0.008 A 
BRANCH  33  37
HETATM   37  N   UNL     1      44.438 -22.169   2.534  1.00  0.00    -0.116 N 
HETATM   38  O   UNL     1      44.790 -23.177   3.164  1.00  0.00    -0.532 OA
HETATM   39  O   UNL     1      44.112 -22.169   1.337  1.00  0.00    -0.532 OA
ENDBRANCH  33  37
ENDBRANCH   1  31
TORSDOF 9
ENDMDL
MODEL 10
REMARK VINA RESULT:      -8.3      2.615      3.169
REMARK  9 active torsions:
REMARK  status: ('A' for Active; 'I' for Inactive)
REMARK    1  A    between atoms: C_3  and  C_4 
REMARK    2  A    between atoms: C_4  and  C_5 
REMARK    3  A    between atoms: C_5  and  N_6 
REMARK       I    between atoms: N_6  and  C_7 
REMARK    4  A    between atoms: C_7  and  C_8 
REMARK    5  A    between atoms: C_8  and  C_9 
REMARK    6  A    between atoms: C_9  and  C_10 
REMARK    7  A    between atoms: C_9  and  C_26 
REMARK    8  A    between atoms: C_14  and  C_15 
REMARK    9  A    between atoms: C_28  and  N_29 
ROOT
HETATM    1  C   UNL     1      40.868 -12.890   1.354  1.00  0.00     0.062 C 
ENDROOT
BRANCH   1   2
HETATM    2  C   UNL     1      39.777 -11.899   1.791  1.00  0.00     0.116 C 
BRANCH   2   3
HETATM    3  C   UNL     1      39.937 -11.263   3.160  1.00  0.00     0.218 C 
HETATM    4  N   UNL     1      41.196 -11.350   3.710  1.00  0.00    -0.361 N 
HETATM    5  H   UNL     1      41.873 -11.978   3.291  1.00  0.00     0.162 HD
HETATM    6  O   UNL     1      39.013 -10.669   3.710  1.00  0.00    -0.274 OA
BRANCH   4   7
HETATM    7  C   UNL     1      41.463 -10.790   5.023  1.00  0.00     0.128 C 
BRANCH   7   8
HETATM    8  C   UNL     1      40.954 -11.674   6.155  1.00  0.00     0.079 C 
BRANCH   8   9
HETATM    9  C   UNL     1      41.295 -13.117   5.893  1.00  0.00     0.035 A 
HETATM   10  C   UNL     1      40.295 -14.082   5.802  1.00  0.00     0.027 A 
HETATM   11  C   UNL     1      40.660 -15.412   5.609  1.00  0.00     0.003 A 
HETATM   12  C   UNL     1      42.006 -15.743   5.517  1.00  0.00     0.019 A 
HETATM   13  C   UNL     1      42.936 -14.724   5.620  1.00  0.00     0.117 A 
HETATM   14  N   UNL     1      42.610 -13.426   5.805  1.00  0.00    -0.266 NA
ENDBRANCH   8   9
ENDBRANCH   7   8
ENDBRANCH   4   7
ENDBRANCH   2   3
ENDBRANCH   1   2
BRANCH   1  15
HETATM   15  C   UNL     1      40.495 -14.336   1.617  1.00  0.00    -0.021 A 
HETATM   16  C   UNL     1      41.435 -15.397   1.857  1.00  0.00    -0.001 A 
HETATM   17  C   UNL     1      40.713 -16.563   2.098  1.00  0.00     0.043 A 
HETATM   18  C   UNL     1      42.841 -15.460   1.917  1.00  0.00     0.015 A 
HETATM   19  C   UNL     1      41.327 -17.791   2.393  1.00  0.00     0.044 A 
HETATM   20  N   UNL     1      39.381 -16.241   1.990  1.00  0.00    -0.365 N 
HETATM   21  C   UNL     1      42.734 -17.853   2.464  1.00  0.00    -0.005 A 
HETATM   22  C   UNL     1      43.464 -16.677   2.226  1.00  0.00     0.015 A 
HETATM   23  H   UNL     1      38.620 -16.898   2.100  1.00  0.00     0.165 HD
HETATM   24  C   UNL     1      39.237 -14.903   1.740  1.00  0.00     0.097 A 
BRANCH  21  25
HETATM   25  C   UNL     1      43.440 -19.108   2.798  1.00  0.00     0.066 A 
HETATM   26  N   UNL     1      44.029 -19.142   4.022  1.00  0.00    -0.260 NA
HETATM   27  C   UNL     1      44.682 -20.269   4.380  1.00  0.00     0.117 A 
HETATM   28  C   UNL     1      44.793 -21.384   3.571  1.00  0.00     0.019 A 
HETATM   29  C   UNL     1      44.197 -21.342   2.318  1.00  0.00     0.004 A 
HETATM   30  C   UNL     1      43.513 -20.193   1.924  1.00  0.00     0.032 A 
ENDBRANCH  21  25
ENDBRANCH   1  15
BRANCH   1  31
HETATM   31  C   UNL     1      41.446 -12.796  -0.060  1.00  0.00    -0.047 A 
HETATM   32  C   UNL     1      42.089 -11.608  -0.470  1.00  0.00     0.043 A 
HETATM   33  C   UNL     1      42.613 -11.482  -1.766  1.00  0.00     0.103 A 
HETATM   34  C   UNL     1      42.490 -12.526  -2.687  1.00  0.00     0.036 A 
HETATM   35  C   UNL     1      41.834 -13.692  -2.305  1.00  0.00     0.003 A 
HETATM   36  C   UNL     1      41.316 -13.822  -1.011  1.00  0.00     0.008 A 
BRANCH  33  37
HETATM   37  N   UNL     1      43.300 -10.246  -2.159  1.00  0.00    -0.116 N 
HETATM   38  O   UNL     1      42.989  -9.730  -3.242  1.00  0.00    -0.532 OA
HETATM   39  O   UNL     1      44.152  -9.787  -1.382  1.00  0.00    -0.532 OA
ENDBRANCH  33  37
ENDBRANCH   1  31
TORSDOF 9
ENDMDL
