MODEL 1
REMARK VINA RESULT:      -8.0      0.000      0.000
REMARK  3 active torsions:
REMARK  status: ('A' for Active; 'I' for Inactive)
REMARK    1  A    between atoms: C_2  and  N_3 
REMARK       I    between atoms: N_3  and  C_4 
REMARK    2  A    between atoms: C_4  and  C_5 
REMARK    3  A    between atoms: C_5  and  C_6 
ROOT
HETATM    1  C   UNL     1      43.803 -15.544   7.061  1.00  0.00     0.286 C 
HETATM    2  N   UNL     1      42.317 -15.718   6.724  1.00  0.00    -0.056 N 
HETATM    3  H   UNL     1      42.118 -16.731   6.614  1.00  0.00     0.278 HD
HETATM    4  H   UNL     1      41.753 -15.396   7.520  1.00  0.00     0.278 HD
HETATM    5  C   UNL     1      41.869 -15.033   5.458  1.00  0.00     0.209 C 
HETATM    6  C   UNL     1      42.336 -13.566   5.477  1.00  0.00     0.115 C 
HETATM    7  N   UNL     1      43.775 -13.478   5.656  1.00  0.00    -0.353 N 
HETATM    8  C   UNL     1      44.462 -14.249   6.556  1.00  0.00     0.249 C 
HETATM    9  O   UNL     1      45.588 -13.916   6.914  1.00  0.00    -0.271 OA
HETATM   10  C   UNL     1      40.352 -15.132   5.333  1.00  0.00     0.035 C 
HETATM   11  C   UNL     1      39.879 -14.414   4.068  1.00  0.00     0.002 C 
HETATM   12  C   UNL     1      40.374 -12.969   4.006  1.00  0.00     0.002 C 
HETATM   13  C   UNL     1      41.888 -12.863   4.195  1.00  0.00     0.027 C 
HETATM   14  H   UNL     1      44.247 -12.602   5.437  1.00  0.00     0.163 HD
ENDROOT
BRANCH   1  15
HETATM   15  C   UNL     1      44.642 -16.778   6.711  1.00  0.00     0.146 C 
BRANCH  15  16
HETATM   16  C   UNL     1      44.118 -18.012   7.377  1.00  0.00     0.224 C 
HETATM   17  N   UNL     1      43.936 -19.219   6.800  1.00  0.00    -0.327 N 
HETATM   18  H   UNL     1      43.587 -19.878   7.492  1.00  0.00     0.169 HD
HETATM   19  O   UNL     1      43.716 -17.873   8.545  1.00  0.00    -0.273 OA
BRANCH  17  20
HETATM   20  C   UNL     1      44.100 -19.777   5.518  1.00  0.00     0.034 A 
HETATM   21  C   UNL     1      43.826 -19.161   4.301  1.00  0.00     0.031 A 
HETATM   22  C   UNL     1      44.007 -19.849   3.089  1.00  0.00     0.026 A 
HETATM   23  C   UNL     1      44.469 -21.159   3.086  1.00  0.00     0.034 A 
HETATM   24  C   UNL     1      44.757 -21.791   4.288  1.00  0.00     0.026 A 
HETATM   25 CL   UNL     1      44.679 -21.994   1.601  1.00  0.00    -0.084 Cl
HETATM   26  C   UNL     1      44.575 -21.101   5.493  1.00  0.00     0.031 A 
ENDBRANCH  17  20
ENDBRANCH  15  16
ENDBRANCH   1  15
TORSDOF 3
ENDMDL
MODEL 2
REMARK VINA RESULT:      -8.0      3.425      6.591
REMARK  3 active torsions:
REMARK  status: ('A' for Active; 'I' for Inactive)
REMARK    1  A    between atoms: C_2  and  N_3 
REMARK       I    between atoms: N_3  and  C_4 
REMARK    2  A    between atoms: C_4  and  C_5 
REMARK    3  A    between atoms: C_5  and  C_6 
ROOT
HETATM    1  C   UNL     1      43.902 -17.203   4.334  1.00  0.00     0.286 C 
HETATM    2  N   UNL     1      43.843 -17.966   3.005  1.00  0.00    -0.056 N 
HETATM    3  H   UNL     1      43.046 -17.601   2.448  1.00  0.00     0.278 HD
HETATM    4  H   UNL     1      44.693 -17.763   2.464  1.00  0.00     0.278 HD
HETATM    5  C   UNL     1      43.653 -19.455   3.135  1.00  0.00     0.209 C 
HETATM    6  C   UNL     1      44.685 -20.017   4.131  1.00  0.00     0.115 C 
HETATM    7  N   UNL     1      44.589 -19.348   5.417  1.00  0.00    -0.353 N 
HETATM    8  C   UNL     1      44.439 -17.992   5.540  1.00  0.00     0.249 C 
HETATM    9  O   UNL     1      44.699 -17.442   6.606  1.00  0.00    -0.271 OA
HETATM   10  C   UNL     1      43.789 -20.110   1.765  1.00  0.00     0.035 C 
HETATM   11  C   UNL     1      43.630 -21.626   1.885  1.00  0.00     0.002 C 
HETATM   12  C   UNL     1      44.589 -22.227   2.915  1.00  0.00     0.002 C 
HETATM   13  C   UNL     1      44.498 -21.529   4.273  1.00  0.00     0.027 C 
HETATM   14  H   UNL     1      45.023 -19.779   6.231  1.00  0.00     0.163 HD
ENDROOT
BRANCH   1  15
HETATM   15  C   UNL     1      42.590 -16.485   4.668  1.00  0.00     0.146 C 
BRANCH  15  16
HETATM   16  C   UNL     1      41.397 -17.322   4.323  1.00  0.00     0.224 C 
HETATM   17  N   UNL     1      40.604 -17.180   3.239  1.00  0.00    -0.327 N 
HETATM   18  H   UNL     1      39.881 -17.897   3.249  1.00  0.00     0.169 HD
HETATM   19  O   UNL     1      41.049 -18.155   5.177  1.00  0.00    -0.273 OA
BRANCH  17  20
HETATM   20  C   UNL     1      40.527 -16.313   2.133  1.00  0.00     0.034 A 
HETATM   21  C   UNL     1      39.735 -15.174   2.022  1.00  0.00     0.031 A 
HETATM   22  C   UNL     1      39.730 -14.413   0.841  1.00  0.00     0.026 A 
HETATM   23  C   UNL     1      40.525 -14.783  -0.238  1.00  0.00     0.034 A 
HETATM   24  C   UNL     1      41.330 -15.910  -0.146  1.00  0.00     0.026 A 
HETATM   25 CL   UNL     1      40.507 -13.850  -1.679  1.00  0.00    -0.084 Cl
HETATM   26  C   UNL     1      41.330 -16.666   1.032  1.00  0.00     0.031 A 
ENDBRANCH  17  20
ENDBRANCH  15  16
ENDBRANCH   1  15
TORSDOF 3
ENDMDL
MODEL 3
REMARK VINA RESULT:      -7.8      2.201      3.354
REMARK  3 active torsions:
REMARK  status: ('A' for Active; 'I' for Inactive)
REMARK    1  A    between atoms: C_2  and  N_3 
REMARK       I    between atoms: N_3  and  C_4 
REMARK    2  A    between atoms: C_4  and  C_5 
REMARK    3  A    between atoms: C_5  and  C_6 
ROOT
HETATM    1  C   UNL     1      41.501 -16.635   5.747  1.00  0.00     0.286 C 
HETATM    2  N   UNL     1      41.521 -17.810   4.761  1.00  0.00    -0.056 N 
HETATM    3  H   UNL     1      41.588 -18.695   5.299  1.00  0.00     0.278 HD
HETATM    4  H   UNL     1      40.624 -17.842   4.260  1.00  0.00     0.278 HD
HETATM    5  C   UNL     1      42.664 -17.795   3.779  1.00  0.00     0.209 C 
HETATM    6  C   UNL     1      42.741 -16.413   3.104  1.00  0.00     0.115 C 
HETATM    7  N   UNL     1      42.867 -15.355   4.091  1.00  0.00    -0.353 N 
HETATM    8  C   UNL     1      42.131 -15.324   5.246  1.00  0.00     0.249 C 
HETATM    9  O   UNL     1      42.015 -14.274   5.870  1.00  0.00    -0.271 OA
HETATM   10  C   UNL     1      42.470 -18.906   2.752  1.00  0.00     0.035 C 
HETATM   11  C   UNL     1      43.607 -18.884   1.729  1.00  0.00     0.002 C 
HETATM   12  C   UNL     1      43.770 -17.511   1.077  1.00  0.00     0.002 C 
HETATM   13  C   UNL     1      43.901 -16.388   2.107  1.00  0.00     0.027 C 
HETATM   14  H   UNL     1      43.179 -14.433   3.790  1.00  0.00     0.163 HD
ENDROOT
BRANCH   1  15
HETATM   15  C   UNL     1      42.020 -17.016   7.137  1.00  0.00     0.146 C 
BRANCH  15  16
HETATM   16  C   UNL     1      43.487 -16.749   7.273  1.00  0.00     0.224 C 
HETATM   17  N   UNL     1      44.490 -17.558   6.868  1.00  0.00    -0.327 N 
HETATM   18  H   UNL     1      45.385 -17.117   7.069  1.00  0.00     0.169 HD
HETATM   19  O   UNL     1      43.800 -15.734   7.918  1.00  0.00    -0.273 OA
BRANCH  17  20
HETATM   20  C   UNL     1      44.605 -18.821   6.258  1.00  0.00     0.034 A 
HETATM   21  C   UNL     1      45.323 -19.127   5.105  1.00  0.00     0.031 A 
HETATM   22  C   UNL     1      45.326 -20.431   4.585  1.00  0.00     0.026 A 
HETATM   23  C   UNL     1      44.616 -21.444   5.219  1.00  0.00     0.034 A 
HETATM   24  C   UNL     1      43.901 -21.164   6.375  1.00  0.00     0.026 A 
HETATM   25 CL   UNL     1      44.621 -23.033   4.571  1.00  0.00    -0.084 Cl
HETATM   26  C   UNL     1      43.899 -19.862   6.889  1.00  0.00     0.031 A 
ENDBRANCH  17  20
ENDBRANCH  15  16
ENDBRANCH   1  15
TORSDOF 3
ENDMDL
MODEL 4
REMARK VINA RESULT:      -7.7      2.810      6.807
REMARK  3 active torsions:
REMARK  status: ('A' for Active; 'I' for Inactive)
REMARK    1  A    between atoms: C_2  and  N_3 
REMARK       I    between atoms: N_3  and  C_4 
REMARK    2  A    between atoms: C_4  and  C_5 
REMARK    3  A    between atoms: C_5  and  C_6 
ROOT
HETATM    1  C   UNL     1      43.946 -17.598   4.887  1.00  0.00     0.286 C 
HETATM    2  N   UNL     1      43.739 -18.106   3.455  1.00  0.00    -0.056 N 
HETATM    3  H   UNL     1      42.869 -17.687   3.075  1.00  0.00     0.278 HD
HETATM    4  H   UNL     1      44.507 -17.764   2.863  1.00  0.00     0.278 HD
HETATM    5  C   UNL     1      43.610 -19.602   3.324  1.00  0.00     0.209 C 
HETATM    6  C   UNL     1      44.776 -20.283   4.065  1.00  0.00     0.115 C 
HETATM    7  N   UNL     1      44.825 -19.866   5.456  1.00  0.00    -0.353 N 
HETATM    8  C   UNL     1      44.654 -18.566   5.850  1.00  0.00     0.249 C 
HETATM    9  O   UNL     1      45.032 -18.207   6.961  1.00  0.00    -0.271 OA
HETATM   10  C   UNL     1      43.589 -19.987   1.849  1.00  0.00     0.035 C 
HETATM   11  C   UNL     1      43.490 -21.506   1.700  1.00  0.00     0.002 C 
HETATM   12  C   UNL     1      44.588 -22.234   2.475  1.00  0.00     0.002 C 
HETATM   13  C   UNL     1      44.652 -21.802   3.941  1.00  0.00     0.027 C 
HETATM   14  H   UNL     1      45.372 -20.416   6.117  1.00  0.00     0.163 HD
ENDROOT
BRANCH   1  15
HETATM   15  C   UNL     1      42.667 -17.022   5.504  1.00  0.00     0.146 C 
BRANCH  15  16
HETATM   16  C   UNL     1      42.740 -15.533   5.644  1.00  0.00     0.224 C 
HETATM   17  N   UNL     1      42.009 -14.626   4.961  1.00  0.00    -0.327 N 
HETATM   18  H   UNL     1      42.253 -13.688   5.272  1.00  0.00     0.169 HD
HETATM   19  O   UNL     1      43.638 -15.098   6.386  1.00  0.00    -0.273 OA
BRANCH  17  20
HETATM   20  C   UNL     1      41.027 -14.652   3.954  1.00  0.00     0.034 A 
HETATM   21  C   UNL     1      40.718 -15.721   3.118  1.00  0.00     0.031 A 
HETATM   22  C   UNL     1      39.730 -15.599   2.128  1.00  0.00     0.026 A 
HETATM   23  C   UNL     1      39.036 -14.405   1.970  1.00  0.00     0.034 A 
HETATM   24  C   UNL     1      39.320 -13.328   2.798  1.00  0.00     0.026 A 
HETATM   25 CL   UNL     1      37.834 -14.264   0.753  1.00  0.00    -0.084 Cl
HETATM   26  C   UNL     1      40.307 -13.455   3.782  1.00  0.00     0.031 A 
ENDBRANCH  17  20
ENDBRANCH  15  16
ENDBRANCH   1  15
TORSDOF 3
ENDMDL
MODEL 5
REMARK VINA RESULT:      -7.7      3.147      3.897
REMARK  3 active torsions:
REMARK  status: ('A' for Active; 'I' for Inactive)
REMARK    1  A    between atoms: C_2  and  N_3 
REMARK       I    between atoms: N_3  and  C_4 
REMARK    2  A    between atoms: C_4  and  C_5 
REMARK    3  A    between atoms: C_5  and  C_6 
ROOT
HETATM    1  C   UNL     1      42.745 -15.377   3.083  1.00  0.00     0.286 C 
HETATM    2  N   UNL     1      41.253 -15.604   2.809  1.00  0.00    -0.056 N 
HETATM    3  H   UNL     1      41.148 -16.459   2.229  1.00  0.00     0.278 HD
HETATM    4  H   UNL     1      40.774 -15.796   3.697  1.00  0.00     0.278 HD
HETATM    5  C   UNL     1      40.563 -14.481   2.078  1.00  0.00     0.209 C 
HETATM    6  C   UNL     1      40.870 -13.147   2.783  1.00  0.00     0.115 C 
HETATM    7  N   UNL     1      42.302 -12.925   2.881  1.00  0.00    -0.353 N 
HETATM    8  C   UNL     1      43.185 -13.911   3.235  1.00  0.00     0.249 C 
HETATM    9  O   UNL     1      44.308 -13.613   3.630  1.00  0.00    -0.271 OA
HETATM   10  C   UNL     1      39.063 -14.750   2.026  1.00  0.00     0.035 C 
HETATM   11  C   UNL     1      38.344 -13.603   1.315  1.00  0.00     0.002 C 
HETATM   12  C   UNL     1      38.670 -12.245   1.937  1.00  0.00     0.002 C 
HETATM   13  C   UNL     1      40.176 -12.000   2.047  1.00  0.00     0.027 C 
HETATM   14  H   UNL     1      42.644 -11.988   3.088  1.00  0.00     0.163 HD
ENDROOT
BRANCH   1  15
HETATM   15  C   UNL     1      43.652 -16.141   2.113  1.00  0.00     0.146 C 
BRANCH  15  16
HETATM   16  C   UNL     1      42.894 -17.180   1.346  1.00  0.00     0.224 C 
HETATM   17  N   UNL     1      42.863 -18.504   1.604  1.00  0.00    -0.327 N 
HETATM   18  H   UNL     1      42.252 -18.968   0.934  1.00  0.00     0.169 HD
HETATM   19  O   UNL     1      42.327 -16.788   0.311  1.00  0.00    -0.273 OA
BRANCH  17  20
HETATM   20  C   UNL     1      43.450 -19.380   2.537  1.00  0.00     0.034 A 
HETATM   21  C   UNL     1      43.750 -19.101   3.867  1.00  0.00     0.031 A 
HETATM   22  C   UNL     1      44.367 -20.064   4.682  1.00  0.00     0.026 A 
HETATM   23  C   UNL     1      44.684 -21.318   4.174  1.00  0.00     0.034 A 
HETATM   24  C   UNL     1      44.385 -21.621   2.854  1.00  0.00     0.026 A 
HETATM   25 CL   UNL     1      45.445 -22.485   5.177  1.00  0.00    -0.084 Cl
HETATM   26  C   UNL     1      43.771 -20.659   2.044  1.00  0.00     0.031 A 
ENDBRANCH  17  20
ENDBRANCH  15  16
ENDBRANCH   1  15
TORSDOF 3
ENDMDL
MODEL 6
REMARK VINA RESULT:      -7.6      3.133      4.285
REMARK  3 active torsions:
REMARK  status: ('A' for Active; 'I' for Inactive)
REMARK    1  A    between atoms: C_2  and  N_3 
REMARK       I    between atoms: N_3  and  C_4 
REMARK    2  A    between atoms: C_4  and  C_5 
REMARK    3  A    between atoms: C_5  and  C_6 
ROOT
HETATM    1  C   UNL     1      41.103 -15.406   2.927  1.00  0.00     0.286 C 
HETATM    2  N   UNL     1      40.851 -13.894   2.953  1.00  0.00    -0.056 N 
HETATM    3  H   UNL     1      41.058 -13.539   3.906  1.00  0.00     0.278 HD
HETATM    4  H   UNL     1      41.517 -13.432   2.320  1.00  0.00     0.278 HD
HETATM    5  C   UNL     1      39.442 -13.479   2.616  1.00  0.00     0.209 C 
HETATM    6  C   UNL     1      39.007 -14.161   1.306  1.00  0.00     0.115 C 
HETATM    7  N   UNL     1      39.135 -15.605   1.401  1.00  0.00    -0.353 N 
HETATM    8  C   UNL     1      40.220 -16.220   1.967  1.00  0.00     0.249 C 
HETATM    9  O   UNL     1      40.447 -17.402   1.727  1.00  0.00    -0.271 OA
HETATM   10  C   UNL     1      39.369 -11.960   2.503  1.00  0.00     0.035 C 
HETATM   11  C   UNL     1      37.951 -11.525   2.131  1.00  0.00     0.002 C 
HETATM   12  C   UNL     1      37.445 -12.227   0.870  1.00  0.00     0.002 C 
HETATM   13  C   UNL     1      37.576 -13.748   0.957  1.00  0.00     0.027 C 
HETATM   14  H   UNL     1      38.653 -16.189   0.719  1.00  0.00     0.163 HD
ENDROOT
BRANCH   1  15
HETATM   15  C   UNL     1      41.137 -16.028   4.327  1.00  0.00     0.146 C 
BRANCH  15  16
HETATM   16  C   UNL     1      42.499 -15.936   4.942  1.00  0.00     0.224 C 
HETATM   17  N   UNL     1      43.537 -16.770   4.721  1.00  0.00    -0.327 N 
HETATM   18  H   UNL     1      44.345 -16.459   5.256  1.00  0.00     0.169 HD
HETATM   19  O   UNL     1      42.644 -15.068   5.820  1.00  0.00    -0.273 OA
BRANCH  17  20
HETATM   20  C   UNL     1      43.775 -17.931   3.961  1.00  0.00     0.034 A 
HETATM   21  C   UNL     1      43.591 -18.080   2.589  1.00  0.00     0.031 A 
HETATM   22  C   UNL     1      43.839 -19.311   1.960  1.00  0.00     0.026 A 
HETATM   23  C   UNL     1      44.279 -20.403   2.698  1.00  0.00     0.034 A 
HETATM   24  C   UNL     1      44.478 -20.275   4.066  1.00  0.00     0.026 A 
HETATM   25 CL   UNL     1      44.572 -21.905   1.921  1.00  0.00    -0.084 Cl
HETATM   26  C   UNL     1      44.229 -19.046   4.689  1.00  0.00     0.031 A 
ENDBRANCH  17  20
ENDBRANCH  15  16
ENDBRANCH   1  15
TORSDOF 3
ENDMDL
MODEL 7
REMARK VINA RESULT:      -7.6      2.619      4.236
REMARK  3 active torsions:
REMARK  status: ('A' for Active; 'I' for Inactive)
REMARK    1  A    between atoms: C_2  and  N_3 
REMARK       I    between atoms: N_3  and  C_4 
REMARK    2  A    between atoms: C_4  and  C_5 
REMARK    3  A    between atoms: C_5  and  C_6 
ROOT
HETATM    1  C   UNL     1      40.989 -16.306   4.007  1.00  0.00     0.286 C 
HETATM    2  N   UNL     1      41.830 -15.027   4.107  1.00  0.00    -0.056 N 
HETATM    3  H   UNL     1      42.155 -14.767   3.156  1.00  0.00     0.278 HD
HETATM    4  H   UNL     1      41.232 -14.257   4.430  1.00  0.00     0.278 HD
HETATM    5  C   UNL     1      43.052 -15.138   4.982  1.00  0.00     0.209 C 
HETATM    6  C   UNL     1      42.652 -15.730   6.346  1.00  0.00     0.115 C 
HETATM    7  N   UNL     1      41.987 -17.011   6.186  1.00  0.00    -0.353 N 
HETATM    8  C   UNL     1      41.038 -17.242   5.226  1.00  0.00     0.249 C 
HETATM    9  O   UNL     1      40.275 -18.197   5.337  1.00  0.00    -0.271 OA
HETATM   10  C   UNL     1      43.695 -13.764   5.139  1.00  0.00     0.035 C 
HETATM   11  C   UNL     1      44.920 -13.855   6.051  1.00  0.00     0.002 C 
HETATM   12  C   UNL     1      44.590 -14.499   7.398  1.00  0.00     0.002 C 
HETATM   13  C   UNL     1      43.887 -15.849   7.242  1.00  0.00     0.027 C 
HETATM   14  H   UNL     1      41.898 -17.626   6.994  1.00  0.00     0.163 HD
ENDROOT
BRANCH   1  15
HETATM   15  C   UNL     1      41.221 -17.070   2.699  1.00  0.00     0.146 C 
BRANCH  15  16
HETATM   16  C   UNL     1      42.580 -16.800   2.132  1.00  0.00     0.224 C 
HETATM   17  N   UNL     1      43.701 -17.518   2.360  1.00  0.00    -0.327 N 
HETATM   18  H   UNL     1      44.474 -17.119   1.831  1.00  0.00     0.169 HD
HETATM   19  O   UNL     1      42.700 -15.750   1.477  1.00  0.00    -0.273 OA
BRANCH  17  20
HETATM   20  C   UNL     1      44.058 -18.645   3.124  1.00  0.00     0.034 A 
HETATM   21  C   UNL     1      44.347 -18.670   4.485  1.00  0.00     0.031 A 
HETATM   22  C   UNL     1      44.723 -19.865   5.119  1.00  0.00     0.026 A 
HETATM   23  C   UNL     1      44.807 -21.049   4.396  1.00  0.00     0.034 A 
HETATM   24  C   UNL     1      44.514 -21.049   3.039  1.00  0.00     0.026 A 
HETATM   25 CL   UNL     1      45.274 -22.504   5.178  1.00  0.00    -0.084 Cl
HETATM   26  C   UNL     1      44.141 -19.855   2.412  1.00  0.00     0.031 A 
ENDBRANCH  17  20
ENDBRANCH  15  16
ENDBRANCH   1  15
TORSDOF 3
ENDMDL
MODEL 8
REMARK VINA RESULT:      -7.6      2.608      3.361
REMARK  3 active torsions:
REMARK  status: ('A' for Active; 'I' for Inactive)
REMARK    1  A    between atoms: C_2  and  N_3 
REMARK       I    between atoms: N_3  and  C_4 
REMARK    2  A    between atoms: C_4  and  C_5 
REMARK    3  A    between atoms: C_5  and  C_6 
ROOT
HETATM    1  C   UNL     1      40.606 -16.342   5.350  1.00  0.00     0.286 C 
HETATM    2  N   UNL     1      40.621 -17.128   4.033  1.00  0.00    -0.056 N 
HETATM    3  H   UNL     1      41.243 -17.951   4.145  1.00  0.00     0.278 HD
HETATM    4  H   UNL     1      39.679 -17.498   3.853  1.00  0.00     0.278 HD
HETATM    5  C   UNL     1      41.112 -16.354   2.837  1.00  0.00     0.209 C 
HETATM    6  C   UNL     1      40.363 -15.012   2.753  1.00  0.00     0.115 C 
HETATM    7  N   UNL     1      40.510 -14.252   3.982  1.00  0.00    -0.353 N 
HETATM    8  C   UNL     1      40.411 -14.821   5.224  1.00  0.00     0.249 C 
HETATM    9  O   UNL     1      40.205 -14.115   6.206  1.00  0.00    -0.271 OA
HETATM   10  C   UNL     1      40.911 -17.184   1.573  1.00  0.00     0.035 C 
HETATM   11  C   UNL     1      41.376 -16.400   0.346  1.00  0.00     0.002 C 
HETATM   12  C   UNL     1      40.709 -15.026   0.253  1.00  0.00     0.002 C 
HETATM   13  C   UNL     1      40.856 -14.217   1.543  1.00  0.00     0.027 C 
HETATM   14  H   UNL     1      40.289 -13.258   3.978  1.00  0.00     0.163 HD
ENDROOT
BRANCH   1  15
HETATM   15  C   UNL     1      41.789 -16.686   6.262  1.00  0.00     0.146 C 
BRANCH  15  16
HETATM   16  C   UNL     1      43.080 -16.155   5.720  1.00  0.00     0.224 C 
HETATM   17  N   UNL     1      43.981 -16.838   4.982  1.00  0.00    -0.327 N 
HETATM   18  H   UNL     1      44.755 -16.225   4.736  1.00  0.00     0.169 HD
HETATM   19  O   UNL     1      43.392 -15.007   6.081  1.00  0.00    -0.273 OA
BRANCH  17  20
HETATM   20  C   UNL     1      44.116 -18.148   4.486  1.00  0.00     0.034 A 
HETATM   21  C   UNL     1      44.418 -19.291   5.223  1.00  0.00     0.031 A 
HETATM   22  C   UNL     1      44.555 -20.538   4.592  1.00  0.00     0.026 A 
HETATM   23  C   UNL     1      44.385 -20.654   3.217  1.00  0.00     0.034 A 
HETATM   24  C   UNL     1      44.075 -19.530   2.465  1.00  0.00     0.026 A 
HETATM   25 CL   UNL     1      44.562 -22.182   2.455  1.00  0.00    -0.084 Cl
HETATM   26  C   UNL     1      43.940 -18.289   3.097  1.00  0.00     0.031 A 
ENDBRANCH  17  20
ENDBRANCH  15  16
ENDBRANCH   1  15
TORSDOF 3
ENDMDL
MODEL 9
REMARK VINA RESULT:      -7.5      2.234      3.363
REMARK  3 active torsions:
REMARK  status: ('A' for Active; 'I' for Inactive)
REMARK    1  A    between atoms: C_2  and  N_3 
REMARK       I    between atoms: N_3  and  C_4 
REMARK    2  A    between atoms: C_4  and  C_5 
REMARK    3  A    between atoms: C_5  and  C_6 
ROOT
HETATM    1  C   UNL     1      42.369 -15.910   4.643  1.00  0.00     0.286 C 
HETATM    2  N   UNL     1      42.052 -14.502   4.124  1.00  0.00    -0.056 N 
HETATM    3  H   UNL     1      42.155 -13.828   4.907  1.00  0.00     0.278 HD
HETATM    4  H   UNL     1      42.753 -14.239   3.420  1.00  0.00     0.278 HD
HETATM    5  C   UNL     1      40.664 -14.330   3.564  1.00  0.00     0.209 C 
HETATM    6  C   UNL     1      40.381 -15.449   2.544  1.00  0.00     0.115 C 
HETATM    7  N   UNL     1      40.560 -16.760   3.144  1.00  0.00    -0.353 N 
HETATM    8  C   UNL     1      41.613 -17.065   3.965  1.00  0.00     0.249 C 
HETATM    9  O   UNL     1      41.911 -18.238   4.168  1.00  0.00    -0.271 OA
HETATM   10  C   UNL     1      40.537 -12.951   2.925  1.00  0.00     0.035 C 
HETATM   11  C   UNL     1      39.143 -12.772   2.324  1.00  0.00     0.002 C 
HETATM   12  C   UNL     1      38.785 -13.898   1.352  1.00  0.00     0.002 C 
HETATM   13  C   UNL     1      38.972 -15.284   1.972  1.00  0.00     0.027 C 
HETATM   14  H   UNL     1      40.169 -17.575   2.675  1.00  0.00     0.163 HD
ENDROOT
BRANCH   1  15
HETATM   15  C   UNL     1      42.300 -16.010   6.171  1.00  0.00     0.146 C 
BRANCH  15  16
HETATM   16  C   UNL     1      43.664 -16.068   6.786  1.00  0.00     0.224 C 
HETATM   17  N   UNL     1      44.473 -17.148   6.843  1.00  0.00    -0.327 N 
HETATM   18  H   UNL     1      45.347 -16.895   7.300  1.00  0.00     0.169 HD
HETATM   19  O   UNL     1      44.033 -15.047   7.392  1.00  0.00    -0.273 OA
BRANCH  17  20
HETATM   20  C   UNL     1      44.411 -18.496   6.445  1.00  0.00     0.034 A 
HETATM   21  C   UNL     1      43.791 -19.538   7.129  1.00  0.00     0.031 A 
HETATM   22  C   UNL     1      43.833 -20.851   6.630  1.00  0.00     0.026 A 
HETATM   23  C   UNL     1      44.491 -21.131   5.439  1.00  0.00     0.034 A 
HETATM   24  C   UNL     1      45.109 -20.106   4.736  1.00  0.00     0.026 A 
HETATM   25 CL   UNL     1      44.543 -22.740   4.842  1.00  0.00    -0.084 Cl
HETATM   26  C   UNL     1      45.065 -18.800   5.237  1.00  0.00     0.031 A 
ENDBRANCH  17  20
ENDBRANCH  15  16
ENDBRANCH   1  15
TORSDOF 3
ENDMDL
MODEL 10
REMARK VINA RESULT:      -7.4      3.064      4.201
REMARK  3 active torsions:
REMARK  status: ('A' for Active; 'I' for Inactive)
REMARK    1  A    between atoms: C_2  and  N_3 
REMARK       I    between atoms: N_3  and  C_4 
REMARK    2  A    between atoms: C_4  and  C_5 
REMARK    3  A    between atoms: C_5  and  C_6 
ROOT
HETATM    1  C   UNL     1      41.805 -13.052   4.084  1.00  0.00     0.286 C 
HETATM    2  N   UNL     1      40.412 -12.790   3.498  1.00  0.00    -0.056 N 
HETATM    3  H   UNL     1      39.702 -12.981   4.231  1.00  0.00     0.278 HD
HETATM    4  H   UNL     1      40.328 -11.792   3.266  1.00  0.00     0.278 HD
HETATM    5  C   UNL     1      40.058 -13.633   2.300  1.00  0.00     0.209 C 
HETATM    6  C   UNL     1      41.195 -13.553   1.265  1.00  0.00     0.115 C 
HETATM    7  N   UNL     1      42.463 -13.954   1.848  1.00  0.00    -0.353 N 
HETATM    8  C   UNL     1      42.870 -13.550   3.092  1.00  0.00     0.249 C 
HETATM    9  O   UNL     1      44.055 -13.623   3.402  1.00  0.00    -0.271 OA
HETATM   10  C   UNL     1      38.735 -13.154   1.711  1.00  0.00     0.035 C 
HETATM   11  C   UNL     1      38.377 -13.980   0.475  1.00  0.00     0.002 C 
HETATM   12  C   UNL     1      39.504 -13.990  -0.558  1.00  0.00     0.002 C 
HETATM   13  C   UNL     1      40.846 -14.408   0.045  1.00  0.00     0.027 C 
HETATM   14  H   UNL     1      43.238 -14.192   1.231  1.00  0.00     0.163 HD
ENDROOT
BRANCH   1  15
HETATM   15  C   UNL     1      41.766 -13.914   5.351  1.00  0.00     0.146 C 
BRANCH  15  16
HETATM   16  C   UNL     1      40.563 -14.805   5.377  1.00  0.00     0.224 C 
HETATM   17  N   UNL     1      40.481 -16.056   4.876  1.00  0.00    -0.327 N 
HETATM   18  H   UNL     1      39.552 -16.433   5.050  1.00  0.00     0.169 HD
HETATM   19  O   UNL     1      39.515 -14.295   5.810  1.00  0.00    -0.273 OA
BRANCH  17  20
HETATM   20  C   UNL     1      41.332 -16.942   4.188  1.00  0.00     0.034 A 
HETATM   21  C   UNL     1      41.387 -17.145   2.813  1.00  0.00     0.031 A 
HETATM   22  C   UNL     1      42.267 -18.089   2.259  1.00  0.00     0.026 A 
HETATM   23  C   UNL     1      43.105 -18.836   3.079  1.00  0.00     0.034 A 
HETATM   24  C   UNL     1      43.073 -18.644   4.453  1.00  0.00     0.026 A 
HETATM   25 CL   UNL     1      44.172 -19.992   2.393  1.00  0.00    -0.084 Cl
HETATM   26  C   UNL     1      42.194 -17.702   5.000  1.00  0.00     0.031 A 
ENDBRANCH  17  20
ENDBRANCH  15  16
ENDBRANCH   1  15
TORSDOF 3
ENDMDL
