MODEL 1
REMARK VINA RESULT:      -7.9      0.000      0.000
REMARK  6 active torsions:
REMARK  status: ('A' for Active; 'I' for Inactive)
REMARK    1  A    between atoms: C_3  and  N_4 
REMARK       I    between atoms: N_4  and  C_5 
REMARK       I    between atoms: C_5  and  N_6 
REMARK    2  A    between atoms: N_6  and  C_7 
REMARK    3  A    between atoms: C_7  and  C_8 
REMARK    4  A    between atoms: C_8  and  N_9 
REMARK    5  A    between atoms: C_8  and  C_13 
REMARK    6  A    between atoms: C_20  and  C_21 
ROOT
HETATM    1  N   UNL     1      41.732 -16.736   5.257  1.00  0.00    -0.309 N 
HETATM    2  C   UNL     1      41.592 -15.588   4.523  1.00  0.00     0.320 C 
HETATM    3  N   UNL     1      40.301 -15.120   4.539  1.00  0.00    -0.340 N 
HETATM    4  O   UNL     1      42.460 -14.989   3.897  1.00  0.00    -0.247 OA
HETATM    5  H   UNL     1      40.905 -17.319   5.270  1.00  0.00     0.170 HD
HETATM    6  H   UNL     1      39.616 -15.687   5.024  1.00  0.00     0.164 HD
ENDROOT
BRANCH   1   7
HETATM    7  C   UNL     1      42.940 -17.441   5.478  1.00  0.00     0.043 A 
HETATM    8  C   UNL     1      43.921 -17.107   6.427  1.00  0.00    -0.035 A 
HETATM    9  C   UNL     1      43.793 -15.993   7.428  1.00  0.00     0.050 C 
HETATM   10  C   UNL     1      45.093 -17.884   6.487  1.00  0.00     0.010 A 
HETATM   11  C   UNL     1      45.270 -19.002   5.667  1.00  0.00     0.016 A 
HETATM   12  C   UNL     1      44.273 -19.381   4.767  1.00  0.00     0.019 A 
HETATM   13  C   UNL     1      43.114 -18.596   4.692  1.00  0.00     0.046 A 
BRANCH  12  14
HETATM   14  C   UNL     1      44.403 -20.550   3.902  1.00  0.00     0.179 A 
HETATM   15  O   UNL     1      44.656 -21.752   4.509  1.00  0.00    -0.302 OA
HETATM   16  C   UNL     1      44.722 -22.639   3.477  1.00  0.00     0.163 A 
HETATM   17  C   UNL     1      44.511 -21.949   2.311  1.00  0.00     0.144 A 
HETATM   18  N   UNL     1      44.308 -20.620   2.586  1.00  0.00    -0.234 NA
ENDBRANCH  12  14
ENDBRANCH   1   7
BRANCH   3  19
HETATM   19  C   UNL     1      39.791 -14.116   3.603  1.00  0.00     0.164 C 
BRANCH  19  20
HETATM   20  C   UNL     1      39.134 -14.656   2.291  1.00  0.00     0.261 C 
BRANCH  20  21
HETATM   21  N   UNL     1      38.592 -13.530   1.411  1.00  0.00    -0.067 N 
HETATM   22  H   UNL     1      39.325 -13.392   0.683  1.00  0.00     0.280 HD
HETATM   23  C   UNL     1      37.351 -13.849   0.632  1.00  0.00     0.270 C 
HETATM   24  C   UNL     1      38.479 -12.225   2.128  1.00  0.00     0.270 C 
ENDBRANCH  20  21
BRANCH  20  25
HETATM   25  C   UNL     1      40.075 -15.568   1.564  1.00  0.00     0.085 A 
HETATM   26  O   UNL     1      40.079 -16.878   1.952  1.00  0.00    -0.325 OA
HETATM   27  C   UNL     1      40.982 -17.523   1.171  1.00  0.00     0.142 A 
HETATM   28  C   UNL     1      41.569 -16.645   0.292  1.00  0.00     0.027 A 
HETATM   29  C   UNL     1      40.984 -15.379   0.543  1.00  0.00     0.037 A 
ENDBRANCH  20  25
ENDBRANCH  19  20
ENDBRANCH   3  19
TORSDOF 6
ENDMDL
MODEL 2
REMARK VINA RESULT:      -7.7      3.362      4.253
REMARK  6 active torsions:
REMARK  status: ('A' for Active; 'I' for Inactive)
REMARK    1  A    between atoms: C_3  and  N_4 
REMARK       I    between atoms: N_4  and  C_5 
REMARK       I    between atoms: C_5  and  N_6 
REMARK    2  A    between atoms: N_6  and  C_7 
REMARK    3  A    between atoms: C_7  and  C_8 
REMARK    4  A    between atoms: C_8  and  N_9 
REMARK    5  A    between atoms: C_8  and  C_13 
REMARK    6  A    between atoms: C_20  and  C_21 
ROOT
HETATM    1  N   UNL     1      43.008 -16.508   0.940  1.00  0.00    -0.309 N 
HETATM    2  C   UNL     1      41.750 -16.304   0.436  1.00  0.00     0.320 C 
HETATM    3  N   UNL     1      41.781 -15.877  -0.868  1.00  0.00    -0.340 N 
HETATM    4  O   UNL     1      40.680 -16.460   1.012  1.00  0.00    -0.247 OA
HETATM    5  H   UNL     1      43.712 -15.895   0.548  1.00  0.00     0.170 HD
HETATM    6  H   UNL     1      42.694 -15.710  -1.272  1.00  0.00     0.164 HD
ENDROOT
BRANCH   1   7
HETATM    7  C   UNL     1      43.318 -16.991   2.235  1.00  0.00     0.043 A 
HETATM    8  C   UNL     1      43.325 -16.225   3.413  1.00  0.00    -0.035 A 
HETATM    9  C   UNL     1      42.908 -14.784   3.495  1.00  0.00     0.050 C 
HETATM   10  C   UNL     1      43.706 -16.846   4.618  1.00  0.00     0.010 A 
HETATM   11  C   UNL     1      44.017 -18.208   4.670  1.00  0.00     0.016 A 
HETATM   12  C   UNL     1      43.950 -18.991   3.517  1.00  0.00     0.019 A 
HETATM   13  C   UNL     1      43.591 -18.369   2.312  1.00  0.00     0.046 A 
BRANCH  12  14
HETATM   14  C   UNL     1      44.250 -20.420   3.523  1.00  0.00     0.179 A 
HETATM   15  O   UNL     1      44.627 -20.975   4.718  1.00  0.00    -0.302 OA
HETATM   16  C   UNL     1      44.835 -22.288   4.424  1.00  0.00     0.163 A 
HETATM   17  C   UNL     1      44.582 -22.469   3.089  1.00  0.00     0.144 A 
HETATM   18  N   UNL     1      44.210 -21.278   2.519  1.00  0.00    -0.234 NA
ENDBRANCH  12  14
ENDBRANCH   1   7
BRANCH   3  19
HETATM   19  C   UNL     1      40.631 -15.281  -1.553  1.00  0.00     0.164 C 
BRANCH  19  20
HETATM   20  C   UNL     1      40.884 -14.737  -2.997  1.00  0.00     0.261 C 
BRANCH  20  21
HETATM   21  N   UNL     1      39.608 -14.712  -3.837  1.00  0.00    -0.067 N 
HETATM   22  H   UNL     1      39.888 -14.243  -4.724  1.00  0.00     0.280 HD
HETATM   23  C   UNL     1      39.086 -16.048  -4.271  1.00  0.00     0.270 C 
HETATM   24  C   UNL     1      38.532 -13.859  -3.248  1.00  0.00     0.270 C 
ENDBRANCH  20  21
BRANCH  20  25
HETATM   25  C   UNL     1      41.580 -13.411  -2.948  1.00  0.00     0.085 A 
HETATM   26  O   UNL     1      42.234 -13.105  -1.788  1.00  0.00    -0.325 OA
HETATM   27  C   UNL     1      42.796 -11.881  -1.956  1.00  0.00     0.142 A 
HETATM   28  C   UNL     1      42.505 -11.389  -3.206  1.00  0.00     0.027 A 
HETATM   29  C   UNL     1      41.718 -12.375  -3.850  1.00  0.00     0.037 A 
ENDBRANCH  20  25
ENDBRANCH  19  20
ENDBRANCH   3  19
TORSDOF 6
ENDMDL
MODEL 3
REMARK VINA RESULT:      -7.5      1.710      1.834
REMARK  6 active torsions:
REMARK  status: ('A' for Active; 'I' for Inactive)
REMARK    1  A    between atoms: C_3  and  N_4 
REMARK       I    between atoms: N_4  and  C_5 
REMARK       I    between atoms: C_5  and  N_6 
REMARK    2  A    between atoms: N_6  and  C_7 
REMARK    3  A    between atoms: C_7  and  C_8 
REMARK    4  A    between atoms: C_8  and  N_9 
REMARK    5  A    between atoms: C_8  and  C_13 
REMARK    6  A    between atoms: C_20  and  C_21 
ROOT
HETATM    1  N   UNL     1      42.439 -15.765   4.698  1.00  0.00    -0.309 N 
HETATM    2  C   UNL     1      42.709 -14.758   3.809  1.00  0.00     0.320 C 
HETATM    3  N   UNL     1      41.637 -13.916   3.644  1.00  0.00    -0.340 N 
HETATM    4  O   UNL     1      43.751 -14.563   3.194  1.00  0.00    -0.247 OA
HETATM    5  H   UNL     1      41.469 -16.053   4.711  1.00  0.00     0.170 HD
HETATM    6  H   UNL     1      40.785 -14.160   4.133  1.00  0.00     0.164 HD
ENDROOT
BRANCH   1   7
HETATM    7  C   UNL     1      43.345 -16.768   5.121  1.00  0.00     0.043 A 
HETATM    8  C   UNL     1      44.153 -16.709   6.268  1.00  0.00    -0.035 A 
HETATM    9  C   UNL     1      44.110 -15.603   7.285  1.00  0.00     0.050 C 
HETATM   10  C   UNL     1      45.041 -17.772   6.523  1.00  0.00     0.010 A 
HETATM   11  C   UNL     1      45.090 -18.896   5.694  1.00  0.00     0.016 A 
HETATM   12  C   UNL     1      44.245 -18.993   4.588  1.00  0.00     0.019 A 
HETATM   13  C   UNL     1      43.374 -17.926   4.321  1.00  0.00     0.046 A 
BRANCH  12  14
HETATM   14  C   UNL     1      44.246 -20.154   3.701  1.00  0.00     0.179 A 
HETATM   15  O   UNL     1      43.670 -19.998   2.467  1.00  0.00    -0.302 OA
HETATM   16  C   UNL     1      43.818 -21.216   1.875  1.00  0.00     0.163 A 
HETATM   17  C   UNL     1      44.464 -22.042   2.759  1.00  0.00     0.144 A 
HETATM   18  N   UNL     1      44.734 -21.361   3.920  1.00  0.00    -0.234 NA
ENDBRANCH  12  14
ENDBRANCH   1   7
BRANCH   3  19
HETATM   19  C   UNL     1      41.520 -12.960   2.541  1.00  0.00     0.164 C 
BRANCH  19  20
HETATM   20  C   UNL     1      40.852 -13.488   1.229  1.00  0.00     0.261 C 
BRANCH  20  21
HETATM   21  N   UNL     1      41.413 -12.808  -0.019  1.00  0.00    -0.067 N 
HETATM   22  H   UNL     1      42.148 -13.461  -0.364  1.00  0.00     0.280 HD
HETATM   23  C   UNL     1      40.466 -12.673  -1.173  1.00  0.00     0.270 C 
HETATM   24  C   UNL     1      42.118 -11.524   0.276  1.00  0.00     0.270 C 
ENDBRANCH  20  21
BRANCH  20  25
HETATM   25  C   UNL     1      40.920 -14.983   1.164  1.00  0.00     0.085 A 
HETATM   26  O   UNL     1      40.046 -15.670   1.957  1.00  0.00    -0.325 OA
HETATM   27  C   UNL     1      40.266 -16.992   1.743  1.00  0.00     0.142 A 
HETATM   28  C   UNL     1      41.278 -17.167   0.829  1.00  0.00     0.027 A 
HETATM   29  C   UNL     1      41.704 -15.869   0.452  1.00  0.00     0.037 A 
ENDBRANCH  20  25
ENDBRANCH  19  20
ENDBRANCH   3  19
TORSDOF 6
ENDMDL
MODEL 4
REMARK VINA RESULT:      -7.5      2.449      4.676
REMARK  6 active torsions:
REMARK  status: ('A' for Active; 'I' for Inactive)
REMARK    1  A    between atoms: C_3  and  N_4 
REMARK       I    between atoms: N_4  and  C_5 
REMARK       I    between atoms: C_5  and  N_6 
REMARK    2  A    between atoms: N_6  and  C_7 
REMARK    3  A    between atoms: C_7  and  C_8 
REMARK    4  A    between atoms: C_8  and  N_9 
REMARK    5  A    between atoms: C_8  and  C_13 
REMARK    6  A    between atoms: C_20  and  C_21 
ROOT
HETATM    1  N   UNL     1      42.040 -18.270   1.856  1.00  0.00    -0.309 N 
HETATM    2  C   UNL     1      42.316 -17.189   1.061  1.00  0.00     0.320 C 
HETATM    3  N   UNL     1      41.270 -16.884   0.224  1.00  0.00    -0.340 N 
HETATM    4  O   UNL     1      43.344 -16.522   1.036  1.00  0.00    -0.247 OA
HETATM    5  H   UNL     1      41.425 -18.950   1.427  1.00  0.00     0.170 HD
HETATM    6  H   UNL     1      40.471 -17.505   0.248  1.00  0.00     0.164 HD
ENDROOT
BRANCH   1   7
HETATM    7  C   UNL     1      42.888 -18.808   2.854  1.00  0.00     0.043 A 
HETATM    8  C   UNL     1      43.724 -19.926   2.701  1.00  0.00    -0.035 A 
HETATM    9  C   UNL     1      43.919 -20.674   1.412  1.00  0.00     0.050 C 
HETATM   10  C   UNL     1      44.471 -20.366   3.810  1.00  0.00     0.010 A 
HETATM   11  C   UNL     1      44.439 -19.683   5.029  1.00  0.00     0.016 A 
HETATM   12  C   UNL     1      43.662 -18.532   5.172  1.00  0.00     0.019 A 
HETATM   13  C   UNL     1      42.901 -18.105   4.074  1.00  0.00     0.046 A 
BRANCH  12  14
HETATM   14  C   UNL     1      43.607 -17.774   6.418  1.00  0.00     0.179 A 
HETATM   15  O   UNL     1      43.814 -16.421   6.337  1.00  0.00    -0.302 OA
HETATM   16  C   UNL     1      43.705 -15.989   7.624  1.00  0.00     0.163 A 
HETATM   17  C   UNL     1      43.442 -17.078   8.415  1.00  0.00     0.144 A 
HETATM   18  N   UNL     1      43.381 -18.212   7.644  1.00  0.00    -0.234 NA
ENDBRANCH  12  14
ENDBRANCH   1   7
BRANCH   3  19
HETATM   19  C   UNL     1      41.394 -16.002  -0.938  1.00  0.00     0.164 C 
BRANCH  19  20
HETATM   20  C   UNL     1      41.112 -14.484  -0.695  1.00  0.00     0.261 C 
BRANCH  20  21
HETATM   21  N   UNL     1      41.369 -13.641  -1.944  1.00  0.00    -0.067 N 
HETATM   22  H   UNL     1      40.538 -13.017  -2.014  1.00  0.00     0.280 HD
HETATM   23  C   UNL     1      42.534 -12.701  -1.869  1.00  0.00     0.270 C 
HETATM   24  C   UNL     1      41.381 -14.444  -3.203  1.00  0.00     0.270 C 
ENDBRANCH  20  21
BRANCH  20  25
HETATM   25  C   UNL     1      39.741 -14.284  -0.125  1.00  0.00     0.085 A 
HETATM   26  O   UNL     1      39.550 -14.694   1.164  1.00  0.00    -0.325 OA
HETATM   27  C   UNL     1      38.260 -14.418   1.484  1.00  0.00     0.142 A 
HETATM   28  C   UNL     1      37.614 -13.844   0.415  1.00  0.00     0.027 A 
HETATM   29  C   UNL     1      38.569 -13.757  -0.628  1.00  0.00     0.037 A 
ENDBRANCH  20  25
ENDBRANCH  19  20
ENDBRANCH   3  19
TORSDOF 6
ENDMDL
MODEL 5
REMARK VINA RESULT:      -7.5      2.338      3.501
REMARK  6 active torsions:
REMARK  status: ('A' for Active; 'I' for Inactive)
REMARK    1  A    between atoms: C_3  and  N_4 
REMARK       I    between atoms: N_4  and  C_5 
REMARK       I    between atoms: C_5  and  N_6 
REMARK    2  A    between atoms: N_6  and  C_7 
REMARK    3  A    between atoms: C_7  and  C_8 
REMARK    4  A    between atoms: C_8  and  N_9 
REMARK    5  A    between atoms: C_8  and  C_13 
REMARK    6  A    between atoms: C_20  and  C_21 
ROOT
HETATM    1  N   UNL     1      43.157 -16.439   1.743  1.00  0.00    -0.309 N 
HETATM    2  C   UNL     1      42.083 -16.700   0.933  1.00  0.00     0.320 C 
HETATM    3  N   UNL     1      42.163 -16.026  -0.261  1.00  0.00    -0.340 N 
HETATM    4  O   UNL     1      41.128 -17.431   1.170  1.00  0.00    -0.247 OA
HETATM    5  H   UNL     1      43.544 -15.511   1.627  1.00  0.00     0.170 HD
HETATM    6  H   UNL     1      42.944 -15.392  -0.376  1.00  0.00     0.164 HD
ENDROOT
BRANCH   1   7
HETATM    7  C   UNL     1      43.398 -17.010   3.017  1.00  0.00     0.043 A 
HETATM    8  C   UNL     1      43.303 -16.337   4.246  1.00  0.00    -0.035 A 
HETATM    9  C   UNL     1      42.835 -14.918   4.406  1.00  0.00     0.050 C 
HETATM   10  C   UNL     1      43.624 -17.037   5.424  1.00  0.00     0.010 A 
HETATM   11  C   UNL     1      43.976 -18.389   5.397  1.00  0.00     0.016 A 
HETATM   12  C   UNL     1      44.009 -19.084   4.187  1.00  0.00     0.019 A 
HETATM   13  C   UNL     1      43.709 -18.383   3.010  1.00  0.00     0.046 A 
BRANCH  12  14
HETATM   14  C   UNL     1      44.354 -20.501   4.107  1.00  0.00     0.179 A 
HETATM   15  O   UNL     1      44.722 -21.121   5.272  1.00  0.00    -0.302 OA
HETATM   16  C   UNL     1      44.978 -22.406   4.899  1.00  0.00     0.163 A 
HETATM   17  C   UNL     1      44.758 -22.507   3.549  1.00  0.00     0.144 A 
HETATM   18  N   UNL     1      44.361 -21.292   3.050  1.00  0.00    -0.234 NA
ENDBRANCH  12  14
ENDBRANCH   1   7
BRANCH   3  19
HETATM   19  C   UNL     1      41.029 -15.858  -1.172  1.00  0.00     0.164 C 
BRANCH  19  20
HETATM   20  C   UNL     1      40.475 -14.404  -1.336  1.00  0.00     0.261 C 
BRANCH  20  21
HETATM   21  N   UNL     1      40.132 -14.077  -2.789  1.00  0.00    -0.067 N 
HETATM   22  H   UNL     1      39.268 -13.499  -2.729  1.00  0.00     0.280 HD
HETATM   23  C   UNL     1      41.113 -13.204  -3.511  1.00  0.00     0.270 C 
HETATM   24  C   UNL     1      39.761 -15.281  -3.592  1.00  0.00     0.270 C 
ENDBRANCH  20  21
BRANCH  20  25
HETATM   25  C   UNL     1      39.335 -14.164  -0.395  1.00  0.00     0.085 A 
HETATM   26  O   UNL     1      39.561 -14.440   0.924  1.00  0.00    -0.325 OA
HETATM   27  C   UNL     1      38.418 -14.148   1.595  1.00  0.00     0.142 A 
HETATM   28  C   UNL     1      37.454 -13.696   0.726  1.00  0.00     0.027 A 
HETATM   29  C   UNL     1      38.043 -13.705  -0.563  1.00  0.00     0.037 A 
ENDBRANCH  20  25
ENDBRANCH  19  20
ENDBRANCH   3  19
TORSDOF 6
ENDMDL
MODEL 6
REMARK VINA RESULT:      -7.3      3.725      5.141
REMARK  6 active torsions:
REMARK  status: ('A' for Active; 'I' for Inactive)
REMARK    1  A    between atoms: C_3  and  N_4 
REMARK       I    between atoms: N_4  and  C_5 
REMARK       I    between atoms: C_5  and  N_6 
REMARK    2  A    between atoms: N_6  and  C_7 
REMARK    3  A    between atoms: C_7  and  C_8 
REMARK    4  A    between atoms: C_8  and  N_9 
REMARK    5  A    between atoms: C_8  and  C_13 
REMARK    6  A    between atoms: C_20  and  C_21 
ROOT
HETATM    1  N   UNL     1      40.841 -16.803   0.132  1.00  0.00    -0.309 N 
HETATM    2  C   UNL     1      41.177 -15.751  -0.681  1.00  0.00     0.320 C 
HETATM    3  N   UNL     1      40.669 -15.897  -1.948  1.00  0.00    -0.340 N 
HETATM    4  O   UNL     1      41.844 -14.765  -0.390  1.00  0.00    -0.247 OA
HETATM    5  H   UNL     1      40.746 -17.685  -0.356  1.00  0.00     0.170 HD
HETATM    6  H   UNL     1      40.176 -16.759  -2.146  1.00  0.00     0.164 HD
ENDROOT
BRANCH   1   7
HETATM    7  C   UNL     1      41.169 -16.933   1.503  1.00  0.00     0.043 A 
HETATM    8  C   UNL     1      40.614 -16.181   2.551  1.00  0.00    -0.035 A 
HETATM    9  C   UNL     1      39.507 -15.178   2.387  1.00  0.00     0.050 C 
HETATM   10  C   UNL     1      41.085 -16.398   3.860  1.00  0.00     0.010 A 
HETATM   11  C   UNL     1      42.043 -17.378   4.137  1.00  0.00     0.016 A 
HETATM   12  C   UNL     1      42.552 -18.175   3.112  1.00  0.00     0.019 A 
HETATM   13  C   UNL     1      42.099 -17.945   1.805  1.00  0.00     0.046 A 
BRANCH  12  14
HETATM   14  C   UNL     1      43.541 -19.222   3.352  1.00  0.00     0.179 A 
HETATM   15  O   UNL     1      43.706 -20.164   2.370  1.00  0.00    -0.302 OA
HETATM   16  C   UNL     1      44.672 -20.990   2.860  1.00  0.00     0.163 A 
HETATM   17  C   UNL     1      45.042 -20.524   4.095  1.00  0.00     0.144 A 
HETATM   18  N   UNL     1      44.320 -19.398   4.404  1.00  0.00    -0.234 NA
ENDBRANCH  12  14
ENDBRANCH   1   7
BRANCH   3  19
HETATM   19  C   UNL     1      41.122 -15.111  -3.098  1.00  0.00     0.164 C 
BRANCH  19  20
HETATM   20  C   UNL     1      40.208 -13.919  -3.532  1.00  0.00     0.261 C 
BRANCH  20  21
HETATM   21  N   UNL     1      38.991 -13.763  -2.620  1.00  0.00    -0.067 N 
HETATM   22  H   UNL     1      38.949 -14.657  -2.086  1.00  0.00     0.280 HD
HETATM   23  C   UNL     1      39.096 -12.704  -1.565  1.00  0.00     0.270 C 
HETATM   24  C   UNL     1      37.701 -13.678  -3.369  1.00  0.00     0.270 C 
ENDBRANCH  20  21
BRANCH  20  25
HETATM   25  C   UNL     1      41.007 -12.660  -3.664  1.00  0.00     0.085 A 
HETATM   26  O   UNL     1      40.443 -11.652  -4.395  1.00  0.00    -0.325 OA
HETATM   27  C   UNL     1      41.316 -10.613  -4.382  1.00  0.00     0.142 A 
HETATM   28  C   UNL     1      42.440 -10.940  -3.661  1.00  0.00     0.027 A 
HETATM   29  C   UNL     1      42.243 -12.263  -3.196  1.00  0.00     0.037 A 
ENDBRANCH  20  25
ENDBRANCH  19  20
ENDBRANCH   3  19
TORSDOF 6
ENDMDL
MODEL 7
REMARK VINA RESULT:      -7.3      3.381      5.489
REMARK  6 active torsions:
REMARK  status: ('A' for Active; 'I' for Inactive)
REMARK    1  A    between atoms: C_3  and  N_4 
REMARK       I    between atoms: N_4  and  C_5 
REMARK       I    between atoms: C_5  and  N_6 
REMARK    2  A    between atoms: N_6  and  C_7 
REMARK    3  A    between atoms: C_7  and  C_8 
REMARK    4  A    between atoms: C_8  and  N_9 
REMARK    5  A    between atoms: C_8  and  C_13 
REMARK    6  A    between atoms: C_20  and  C_21 
ROOT
HETATM    1  N   UNL     1      42.832 -16.879   1.107  1.00  0.00    -0.309 N 
HETATM    2  C   UNL     1      41.599 -16.454   0.687  1.00  0.00     0.320 C 
HETATM    3  N   UNL     1      41.606 -16.078  -0.634  1.00  0.00    -0.340 N 
HETATM    4  O   UNL     1      40.568 -16.385   1.345  1.00  0.00    -0.247 OA
HETATM    5  H   UNL     1      43.606 -16.425   0.638  1.00  0.00     0.170 HD
HETATM    6  H   UNL     1      42.499 -16.101  -1.110  1.00  0.00     0.164 HD
ENDROOT
BRANCH   1   7
HETATM    7  C   UNL     1      43.148 -17.375   2.395  1.00  0.00     0.043 A 
HETATM    8  C   UNL     1      43.310 -18.729   2.733  1.00  0.00    -0.035 A 
HETATM    9  C   UNL     1      43.267 -19.864   1.749  1.00  0.00     0.050 C 
HETATM   10  C   UNL     1      43.575 -19.061   4.076  1.00  0.00     0.010 A 
HETATM   11  C   UNL     1      43.734 -18.075   5.053  1.00  0.00     0.016 A 
HETATM   12  C   UNL     1      43.640 -16.724   4.714  1.00  0.00     0.019 A 
HETATM   13  C   UNL     1      43.355 -16.393   3.382  1.00  0.00     0.046 A 
BRANCH  12  14
HETATM   14  C   UNL     1      43.814 -15.657   5.695  1.00  0.00     0.179 A 
HETATM   15  O   UNL     1      43.237 -14.447   5.412  1.00  0.00    -0.302 OA
HETATM   16  C   UNL     1      43.557 -13.666   6.481  1.00  0.00     0.163 A 
HETATM   17  C   UNL     1      44.301 -14.422   7.350  1.00  0.00     0.144 A 
HETATM   18  N   UNL     1      44.463 -15.688   6.846  1.00  0.00    -0.234 NA
ENDBRANCH  12  14
ENDBRANCH   1   7
BRANCH   3  19
HETATM   19  C   UNL     1      40.539 -15.294  -1.259  1.00  0.00     0.164 C 
BRANCH  19  20
HETATM   20  C   UNL     1      40.758 -14.881  -2.751  1.00  0.00     0.261 C 
BRANCH  20  21
HETATM   21  N   UNL     1      39.452 -14.874  -3.546  1.00  0.00    -0.067 N 
HETATM   22  H   UNL     1      39.631 -14.219  -4.336  1.00  0.00     0.280 HD
HETATM   23  C   UNL     1      39.085 -16.166  -4.211  1.00  0.00     0.270 C 
HETATM   24  C   UNL     1      38.304 -14.292  -2.788  1.00  0.00     0.270 C 
ENDBRANCH  20  21
BRANCH  20  25
HETATM   25  C   UNL     1      41.505 -13.586  -2.838  1.00  0.00     0.085 A 
HETATM   26  O   UNL     1      42.354 -13.299  -1.808  1.00  0.00    -0.325 OA
HETATM   27  C   UNL     1      42.929 -12.102  -2.085  1.00  0.00     0.142 A 
HETATM   28  C   UNL     1      42.454 -11.606  -3.275  1.00  0.00     0.027 A 
HETATM   29  C   UNL     1      41.532 -12.564  -3.766  1.00  0.00     0.037 A 
ENDBRANCH  20  25
ENDBRANCH  19  20
ENDBRANCH   3  19
TORSDOF 6
ENDMDL
MODEL 8
REMARK VINA RESULT:      -7.2      2.099      2.550
REMARK  6 active torsions:
REMARK  status: ('A' for Active; 'I' for Inactive)
REMARK    1  A    between atoms: C_3  and  N_4 
REMARK       I    between atoms: N_4  and  C_5 
REMARK       I    between atoms: C_5  and  N_6 
REMARK    2  A    between atoms: N_6  and  C_7 
REMARK    3  A    between atoms: C_7  and  C_8 
REMARK    4  A    between atoms: C_8  and  N_9 
REMARK    5  A    between atoms: C_8  and  C_13 
REMARK    6  A    between atoms: C_20  and  C_21 
ROOT
HETATM    1  N   UNL     1      42.416 -15.803   4.513  1.00  0.00    -0.309 N 
HETATM    2  C   UNL     1      42.700 -14.846   3.574  1.00  0.00     0.320 C 
HETATM    3  N   UNL     1      41.673 -13.946   3.429  1.00  0.00    -0.340 N 
HETATM    4  O   UNL     1      43.720 -14.736   2.903  1.00  0.00    -0.247 OA
HETATM    5  H   UNL     1      41.432 -16.031   4.583  1.00  0.00     0.170 HD
HETATM    6  H   UNL     1      40.833 -14.121   3.967  1.00  0.00     0.164 HD
ENDROOT
BRANCH   1   7
HETATM    7  C   UNL     1      43.281 -16.843   4.930  1.00  0.00     0.043 A 
HETATM    8  C   UNL     1      44.057 -16.841   6.102  1.00  0.00    -0.035 A 
HETATM    9  C   UNL     1      44.015 -15.765   7.149  1.00  0.00     0.050 C 
HETATM   10  C   UNL     1      44.908 -17.936   6.348  1.00  0.00     0.010 A 
HETATM   11  C   UNL     1      44.949 -19.036   5.487  1.00  0.00     0.016 A 
HETATM   12  C   UNL     1      44.134 -19.076   4.355  1.00  0.00     0.019 A 
HETATM   13  C   UNL     1      43.302 -17.978   4.097  1.00  0.00     0.046 A 
BRANCH  12  14
HETATM   14  C   UNL     1      44.129 -20.209   3.434  1.00  0.00     0.179 A 
HETATM   15  O   UNL     1      44.668 -21.385   3.886  1.00  0.00    -0.302 OA
HETATM   16  C   UNL     1      44.525 -22.242   2.837  1.00  0.00     0.163 A 
HETATM   17  C   UNL     1      43.918 -21.562   1.814  1.00  0.00     0.144 A 
HETATM   18  N   UNL     1      43.667 -20.268   2.198  1.00  0.00    -0.234 NA
ENDBRANCH  12  14
ENDBRANCH   1   7
BRANCH   3  19
HETATM   19  C   UNL     1      41.558 -13.025   2.296  1.00  0.00     0.164 C 
BRANCH  19  20
HETATM   20  C   UNL     1      41.132 -13.652   0.928  1.00  0.00     0.261 C 
BRANCH  20  21
HETATM   21  N   UNL     1      39.614 -13.686   0.756  1.00  0.00    -0.067 N 
HETATM   22  H   UNL     1      39.469 -14.060  -0.206  1.00  0.00     0.280 HD
HETATM   23  C   UNL     1      38.877 -14.644   1.642  1.00  0.00     0.270 C 
HETATM   24  C   UNL     1      38.990 -12.328   0.762  1.00  0.00     0.270 C 
ENDBRANCH  20  21
BRANCH  20  25
HETATM   25  C   UNL     1      41.836 -12.973  -0.207  1.00  0.00     0.085 A 
HETATM   26  O   UNL     1      42.521 -11.830   0.094  1.00  0.00    -0.325 OA
HETATM   27  C   UNL     1      43.085 -11.387  -1.058  1.00  0.00     0.142 A 
HETATM   28  C   UNL     1      42.766 -12.223  -2.100  1.00  0.00     0.027 A 
HETATM   29  C   UNL     1      41.957 -13.250  -1.554  1.00  0.00     0.037 A 
ENDBRANCH  20  25
ENDBRANCH  19  20
ENDBRANCH   3  19
TORSDOF 6
ENDMDL
MODEL 9
REMARK VINA RESULT:      -7.0      1.448      2.815
REMARK  6 active torsions:
REMARK  status: ('A' for Active; 'I' for Inactive)
REMARK    1  A    between atoms: C_3  and  N_4 
REMARK       I    between atoms: N_4  and  C_5 
REMARK       I    between atoms: C_5  and  N_6 
REMARK    2  A    between atoms: N_6  and  C_7 
REMARK    3  A    between atoms: C_7  and  C_8 
REMARK    4  A    between atoms: C_8  and  N_9 
REMARK    5  A    between atoms: C_8  and  C_13 
REMARK    6  A    between atoms: C_20  and  C_21 
ROOT
HETATM    1  N   UNL     1      41.648 -16.673   4.836  1.00  0.00    -0.309 N 
HETATM    2  C   UNL     1      41.374 -16.081   3.631  1.00  0.00     0.320 C 
HETATM    3  N   UNL     1      40.143 -15.473   3.624  1.00  0.00    -0.340 N 
HETATM    4  O   UNL     1      42.085 -16.052   2.633  1.00  0.00    -0.247 OA
HETATM    5  H   UNL     1      40.829 -17.019   5.320  1.00  0.00     0.170 HD
HETATM    6  H   UNL     1      39.577 -15.579   4.456  1.00  0.00     0.164 HD
ENDROOT
BRANCH   1   7
HETATM    7  C   UNL     1      42.848 -17.341   5.182  1.00  0.00     0.043 A 
HETATM    8  C   UNL     1      43.791 -16.892   6.121  1.00  0.00    -0.035 A 
HETATM    9  C   UNL     1      43.624 -15.671   6.980  1.00  0.00     0.050 C 
HETATM   10  C   UNL     1      44.962 -17.651   6.315  1.00  0.00     0.010 A 
HETATM   11  C   UNL     1      45.171 -18.856   5.640  1.00  0.00     0.016 A 
HETATM   12  C   UNL     1      44.209 -19.343   4.753  1.00  0.00     0.019 A 
HETATM   13  C   UNL     1      43.052 -18.578   4.543  1.00  0.00     0.046 A 
BRANCH  12  14
HETATM   14  C   UNL     1      44.373 -20.604   4.036  1.00  0.00     0.179 A 
HETATM   15  O   UNL     1      44.123 -20.594   2.688  1.00  0.00    -0.302 OA
HETATM   16  C   UNL     1      44.354 -21.878   2.297  1.00  0.00     0.163 A 
HETATM   17  C   UNL     1      44.726 -22.598   3.403  1.00  0.00     0.144 A 
HETATM   18  N   UNL     1      44.737 -21.783   4.507  1.00  0.00    -0.234 NA
ENDBRANCH  12  14
ENDBRANCH   1   7
BRANCH   3  19
HETATM   19  C   UNL     1      39.457 -15.047   2.402  1.00  0.00     0.164 C 
BRANCH  19  20
HETATM   20  C   UNL     1      39.714 -13.577   1.934  1.00  0.00     0.261 C 
BRANCH  20  21
HETATM   21  N   UNL     1      38.960 -13.241   0.647  1.00  0.00    -0.067 N 
HETATM   22  H   UNL     1      38.712 -12.234   0.746  1.00  0.00     0.280 HD
HETATM   23  C   UNL     1      39.763 -13.304  -0.616  1.00  0.00     0.270 C 
HETATM   24  C   UNL     1      37.661 -13.967   0.519  1.00  0.00     0.270 C 
ENDBRANCH  20  21
BRANCH  20  25
HETATM   25  C   UNL     1      39.438 -12.612   3.045  1.00  0.00     0.085 A 
HETATM   26  O   UNL     1      40.223 -12.720   4.158  1.00  0.00    -0.325 OA
HETATM   27  C   UNL     1      39.818 -11.759   5.027  1.00  0.00     0.142 A 
HETATM   28  C   UNL     1      38.776 -11.039   4.494  1.00  0.00     0.027 A 
HETATM   29  C   UNL     1      38.527 -11.588   3.212  1.00  0.00     0.037 A 
ENDBRANCH  20  25
ENDBRANCH  19  20
ENDBRANCH   3  19
TORSDOF 6
ENDMDL
MODEL 10
REMARK VINA RESULT:      -7.0      2.768      3.759
REMARK  6 active torsions:
REMARK  status: ('A' for Active; 'I' for Inactive)
REMARK    1  A    between atoms: C_3  and  N_4 
REMARK       I    between atoms: N_4  and  C_5 
REMARK       I    between atoms: C_5  and  N_6 
REMARK    2  A    between atoms: N_6  and  C_7 
REMARK    3  A    between atoms: C_7  and  C_8 
REMARK    4  A    between atoms: C_8  and  N_9 
REMARK    5  A    between atoms: C_8  and  C_13 
REMARK    6  A    between atoms: C_20  and  C_21 
ROOT
HETATM    1  N   UNL     1      40.113 -16.019   2.716  1.00  0.00    -0.309 N 
HETATM    2  C   UNL     1      40.253 -14.945   1.877  1.00  0.00     0.320 C 
HETATM    3  N   UNL     1      39.175 -14.801   1.039  1.00  0.00    -0.340 N 
HETATM    4  O   UNL     1      41.193 -14.161   1.817  1.00  0.00    -0.247 OA
HETATM    5  H   UNL     1      39.582 -16.784   2.319  1.00  0.00     0.170 HD
HETATM    6  H   UNL     1      38.456 -15.512   1.095  1.00  0.00     0.164 HD
ENDROOT
BRANCH   1   7
HETATM    7  C   UNL     1      41.024 -16.411   3.727  1.00  0.00     0.043 A 
HETATM    8  C   UNL     1      41.129 -15.832   5.002  1.00  0.00    -0.035 A 
HETATM    9  C   UNL     1      40.218 -14.759   5.528  1.00  0.00     0.050 C 
HETATM   10  C   UNL     1      42.125 -16.306   5.877  1.00  0.00     0.010 A 
HETATM   11  C   UNL     1      42.961 -17.369   5.524  1.00  0.00     0.016 A 
HETATM   12  C   UNL     1      42.821 -17.994   4.284  1.00  0.00     0.019 A 
HETATM   13  C   UNL     1      41.843 -17.509   3.403  1.00  0.00     0.046 A 
BRANCH  12  14
HETATM   14  C   UNL     1      43.658 -19.118   3.875  1.00  0.00     0.179 A 
HETATM   15  O   UNL     1      44.448 -19.692   4.836  1.00  0.00    -0.302 OA
HETATM   16  C   UNL     1      45.099 -20.692   4.179  1.00  0.00     0.163 A 
HETATM   17  C   UNL     1      44.685 -20.680   2.872  1.00  0.00     0.144 A 
HETATM   18  N   UNL     1      43.768 -19.676   2.683  1.00  0.00    -0.234 NA
ENDBRANCH  12  14
ENDBRANCH   1   7
BRANCH   3  19
HETATM   19  C   UNL     1      39.186 -13.958  -0.158  1.00  0.00     0.164 C 
BRANCH  19  20
HETATM   20  C   UNL     1      40.002 -14.492  -1.380  1.00  0.00     0.261 C 
BRANCH  20  21
HETATM   21  N   UNL     1      39.104 -15.138  -2.435  1.00  0.00    -0.067 N 
HETATM   22  H   UNL     1      38.765 -16.016  -1.988  1.00  0.00     0.280 HD
HETATM   23  C   UNL     1      37.853 -14.387  -2.777  1.00  0.00     0.270 C 
HETATM   24  C   UNL     1      39.847 -15.567  -3.658  1.00  0.00     0.270 C 
ENDBRANCH  20  21
BRANCH  20  25
HETATM   25  C   UNL     1      40.884 -13.418  -1.938  1.00  0.00     0.085 A 
HETATM   26  O   UNL     1      42.230 -13.651  -1.898  1.00  0.00    -0.325 OA
HETATM   27  C   UNL     1      42.838 -12.572  -2.454  1.00  0.00     0.142 A 
HETATM   28  C   UNL     1      41.904 -11.643  -2.843  1.00  0.00     0.027 A 
HETATM   29  C   UNL     1      40.639 -12.186  -2.511  1.00  0.00     0.037 A 
ENDBRANCH  20  25
ENDBRANCH  19  20
ENDBRANCH   3  19
TORSDOF 6
ENDMDL
