MODEL 1
REMARK VINA RESULT:      -7.8      0.000      0.000
REMARK  5 active torsions:
REMARK  status: ('A' for Active; 'I' for Inactive)
REMARK    1  A    between atoms: C_2  and  O_3 
REMARK    2  A    between atoms: C_4  and  C_5 
REMARK    3  A    between atoms: C_5  and  O_6 
REMARK    4  A    between atoms: C_9  and  C_10 
REMARK    5  A    between atoms: C_22  and  O_23 
ROOT
HETATM    1  C   UNL     1      40.321 -16.297   1.863  1.00  0.00     0.047 C 
HETATM    2  C   UNL     1      40.895 -15.144   2.702  1.00  0.00     0.073 C 
HETATM    3  C   UNL     1      42.429 -15.330   2.953  1.00  0.00     0.133 C 
HETATM    4  C   UNL     1      42.853 -16.352   4.052  1.00  0.00     0.074 C 
HETATM    5  C   UNL     1      41.816 -16.487   5.113  1.00  0.00     0.030 A 
HETATM    6  C   UNL     1      40.580 -15.877   5.067  1.00  0.00     0.042 A 
HETATM    7  N   UNL     1      39.938 -16.193   6.230  1.00  0.00    -0.279 N 
HETATM    8  H   UNL     1      39.014 -15.910   6.543  1.00  0.00     0.189 HD
HETATM    9  N   UNL     1      40.687 -16.963   7.048  1.00  0.00    -0.149 NA
HETATM   10  C   UNL     1      41.816 -17.103   6.365  1.00  0.00     0.190 A 
HETATM   11  C   UNL     1      40.066 -14.981   4.006  1.00  0.00     0.097 C 
ENDROOT
BRANCH   4  12
HETATM   12  C   UNL     1      43.183 -17.732   3.488  1.00  0.00    -0.048 A 
HETATM   13  C   UNL     1      44.152 -18.497   4.167  1.00  0.00     0.009 A 
HETATM   14  C   UNL     1      44.522 -19.767   3.715  1.00  0.00     0.019 A 
HETATM   15  C   UNL     1      43.931 -20.290   2.570  1.00  0.00     0.011 A 
HETATM   16 BR   UNL     1      44.425 -22.007   1.957  1.00  0.00    -0.051 Br
HETATM   17  C   UNL     1      42.976 -19.555   1.876  1.00  0.00     0.019 A 
HETATM   18  C   UNL     1      42.605 -18.286   2.333  1.00  0.00     0.009 A 
ENDBRANCH   4  12
BRANCH   3  19
HETATM   19  C   UNL     1      43.079 -13.988   3.239  1.00  0.00     0.266 C 
HETATM   20  O   UNL     1      43.175 -13.109   2.388  1.00  0.00    -0.265 OA
BRANCH  19  21
HETATM   21  O   UNL     1      43.516 -13.875   4.519  1.00  0.00    -0.326 OA
HETATM   22  C   UNL     1      42.790 -12.936   5.313  1.00  0.00     0.213 C 
ENDBRANCH  19  21
ENDBRANCH   3  19
BRANCH   2  23
HETATM   23  O   UNL     1      40.664 -13.963   1.908  1.00  0.00    -0.389 OA
HETATM   24  H   UNL     1      39.710 -13.765   1.911  1.00  0.00     0.210 HD
ENDBRANCH   2  23
BRANCH  10  25
HETATM   25  O   UNL     1      42.770 -17.795   6.975  1.00  0.00    -0.343 OA
HETATM   26  H   UNL     1      43.289 -17.128   7.455  1.00  0.00     0.219 HD
ENDBRANCH  10  25
TORSDOF 5
ENDMDL
MODEL 2
REMARK VINA RESULT:      -7.5      2.821      3.959
REMARK  5 active torsions:
REMARK  status: ('A' for Active; 'I' for Inactive)
REMARK    1  A    between atoms: C_2  and  O_3 
REMARK    2  A    between atoms: C_4  and  C_5 
REMARK    3  A    between atoms: C_5  and  O_6 
REMARK    4  A    between atoms: C_9  and  C_10 
REMARK    5  A    between atoms: C_22  and  O_23 
ROOT
HETATM    1  C   UNL     1      43.976 -14.028   3.598  1.00  0.00     0.047 C 
HETATM    2  C   UNL     1      42.509 -13.606   3.418  1.00  0.00     0.073 C 
HETATM    3  C   UNL     1      41.531 -14.672   4.017  1.00  0.00     0.133 C 
HETATM    4  C   UNL     1      41.274 -15.957   3.171  1.00  0.00     0.074 C 
HETATM    5  C   UNL     1      41.432 -15.702   1.713  1.00  0.00     0.030 A 
HETATM    6  C   UNL     1      41.870 -14.507   1.180  1.00  0.00     0.042 A 
HETATM    7  N   UNL     1      41.833 -14.641  -0.179  1.00  0.00    -0.279 N 
HETATM    8  H   UNL     1      42.076 -13.959  -0.891  1.00  0.00     0.189 HD
HETATM    9  N   UNL     1      41.378 -15.850  -0.573  1.00  0.00    -0.149 NA
HETATM   10  C   UNL     1      41.121 -16.455   0.579  1.00  0.00     0.190 A 
HETATM   11  C   UNL     1      42.236 -13.280   1.923  1.00  0.00     0.097 C 
ENDROOT
BRANCH   4  12
HETATM   12  C   UNL     1      42.165 -17.127   3.580  1.00  0.00    -0.048 A 
HETATM   13  C   UNL     1      41.981 -17.666   4.869  1.00  0.00     0.009 A 
HETATM   14  C   UNL     1      42.759 -18.733   5.328  1.00  0.00     0.019 A 
HETATM   15  C   UNL     1      43.741 -19.274   4.506  1.00  0.00     0.011 A 
HETATM   16 BR   UNL     1      44.793 -20.717   5.121  1.00  0.00    -0.051 Br
HETATM   17  C   UNL     1      43.950 -18.758   3.231  1.00  0.00     0.019 A 
HETATM   18  C   UNL     1      43.166 -17.694   2.773  1.00  0.00     0.009 A 
ENDBRANCH   4  12
BRANCH   3  19
HETATM   19  C   UNL     1      40.202 -14.026   4.364  1.00  0.00     0.266 C 
HETATM   20  O   UNL     1      39.416 -13.635   3.507  1.00  0.00    -0.265 OA
BRANCH  19  21
HETATM   21  O   UNL     1      39.987 -13.948   5.702  1.00  0.00    -0.326 OA
HETATM   22  C   UNL     1      39.432 -12.708   6.143  1.00  0.00     0.213 C 
ENDBRANCH  19  21
ENDBRANCH   3  19
BRANCH   2  23
HETATM   23  O   UNL     1      42.393 -12.366   4.145  1.00  0.00    -0.389 OA
HETATM   24  H   UNL     1      41.842 -12.516   4.934  1.00  0.00     0.210 HD
ENDBRANCH   2  23
BRANCH  10  25
HETATM   25  O   UNL     1      40.605 -17.674   0.481  1.00  0.00    -0.343 OA
HETATM   26  H   UNL     1      41.368 -18.271   0.563  1.00  0.00     0.219 HD
ENDBRANCH  10  25
TORSDOF 5
ENDMDL
MODEL 3
REMARK VINA RESULT:      -7.4      2.425      3.671
REMARK  5 active torsions:
REMARK  status: ('A' for Active; 'I' for Inactive)
REMARK    1  A    between atoms: C_2  and  O_3 
REMARK    2  A    between atoms: C_4  and  C_5 
REMARK    3  A    between atoms: C_5  and  O_6 
REMARK    4  A    between atoms: C_9  and  C_10 
REMARK    5  A    between atoms: C_22  and  O_23 
ROOT
HETATM    1  C   UNL     1      39.466 -16.199   2.111  1.00  0.00     0.047 C 
HETATM    2  C   UNL     1      39.928 -14.935   1.367  1.00  0.00     0.073 C 
HETATM    3  C   UNL     1      41.371 -15.111   0.786  1.00  0.00     0.133 C 
HETATM    4  C   UNL     1      42.562 -14.972   1.782  1.00  0.00     0.074 C 
HETATM    5  C   UNL     1      42.230 -14.070   2.921  1.00  0.00     0.030 A 
HETATM    6  C   UNL     1      40.982 -13.523   3.134  1.00  0.00     0.042 A 
HETATM    7  N   UNL     1      41.084 -12.720   4.234  1.00  0.00    -0.279 N 
HETATM    8  H   UNL     1      40.366 -12.151   4.674  1.00  0.00     0.189 HD
HETATM    9  N   UNL     1      42.332 -12.693   4.748  1.00  0.00    -0.149 NA
HETATM   10  C   UNL     1      43.003 -13.491   3.928  1.00  0.00     0.190 A 
HETATM   11  C   UNL     1      39.777 -13.696   2.292  1.00  0.00     0.097 C 
ENDROOT
BRANCH   4  12
HETATM   12  C   UNL     1      43.047 -16.314   2.325  1.00  0.00    -0.048 A 
HETATM   13  C   UNL     1      43.759 -17.152   1.443  1.00  0.00     0.009 A 
HETATM   14  C   UNL     1      44.232 -18.402   1.853  1.00  0.00     0.019 A 
HETATM   15  C   UNL     1      43.993 -18.838   3.152  1.00  0.00     0.011 A 
HETATM   16 BR   UNL     1      44.632 -20.525   3.711  1.00  0.00    -0.051 Br
HETATM   17  C   UNL     1      43.288 -18.034   4.041  1.00  0.00     0.019 A 
HETATM   18  C   UNL     1      42.820 -16.782   3.630  1.00  0.00     0.009 A 
ENDBRANCH   4  12
BRANCH   3  19
HETATM   19  C   UNL     1      41.583 -14.168  -0.384  1.00  0.00     0.266 C 
HETATM   20  O   UNL     1      42.078 -13.053  -0.250  1.00  0.00    -0.265 OA
BRANCH  19  21
HETATM   21  O   UNL     1      41.181 -14.697  -1.568  1.00  0.00    -0.326 OA
HETATM   22  C   UNL     1      41.514 -13.911  -2.713  1.00  0.00     0.213 C 
ENDBRANCH  19  21
ENDBRANCH   3  19
BRANCH   2  23
HETATM   23  O   UNL     1      38.979 -14.774   0.293  1.00  0.00    -0.389 OA
HETATM   24  H   UNL     1      38.173 -14.357   0.647  1.00  0.00     0.210 HD
ENDBRANCH   2  23
BRANCH  10  25
HETATM   25  O   UNL     1      44.301 -13.609   4.182  1.00  0.00    -0.343 OA
HETATM   26  H   UNL     1      44.417 -14.542   4.431  1.00  0.00     0.219 HD
ENDBRANCH  10  25
TORSDOF 5
ENDMDL
MODEL 4
REMARK VINA RESULT:      -7.3      3.342      5.162
REMARK  5 active torsions:
REMARK  status: ('A' for Active; 'I' for Inactive)
REMARK    1  A    between atoms: C_2  and  O_3 
REMARK    2  A    between atoms: C_4  and  C_5 
REMARK    3  A    between atoms: C_5  and  O_6 
REMARK    4  A    between atoms: C_9  and  C_10 
REMARK    5  A    between atoms: C_22  and  O_23 
ROOT
HETATM    1  C   UNL     1      40.858 -17.776   5.864  1.00  0.00     0.047 C 
HETATM    2  C   UNL     1      42.343 -17.464   6.111  1.00  0.00     0.073 C 
HETATM    3  C   UNL     1      42.747 -16.085   5.491  1.00  0.00     0.133 C 
HETATM    4  C   UNL     1      42.983 -16.038   3.950  1.00  0.00     0.074 C 
HETATM    5  C   UNL     1      43.441 -17.352   3.419  1.00  0.00     0.030 A 
HETATM    6  C   UNL     1      43.527 -18.502   4.175  1.00  0.00     0.042 A 
HETATM    7  N   UNL     1      44.030 -19.476   3.359  1.00  0.00    -0.279 N 
HETATM    8  H   UNL     1      44.237 -20.446   3.580  1.00  0.00     0.189 HD
HETATM    9  N   UNL     1      44.297 -19.028   2.114  1.00  0.00    -0.149 NA
HETATM   10  C   UNL     1      43.958 -17.747   2.185  1.00  0.00     0.190 A 
HETATM   11  C   UNL     1      43.218 -18.649   5.615  1.00  0.00     0.097 C 
ENDROOT
BRANCH   4  12
HETATM   12  C   UNL     1      41.753 -15.578   3.172  1.00  0.00    -0.048 A 
HETATM   13  C   UNL     1      41.463 -14.199   3.171  1.00  0.00     0.009 A 
HETATM   14  C   UNL     1      40.351 -13.691   2.492  1.00  0.00     0.019 A 
HETATM   15  C   UNL     1      39.507 -14.558   1.807  1.00  0.00     0.011 A 
HETATM   16 BR   UNL     1      38.005 -13.877   0.885  1.00  0.00    -0.051 Br
HETATM   17  C   UNL     1      39.765 -15.925   1.796  1.00  0.00     0.019 A 
HETATM   18  C   UNL     1      40.881 -16.429   2.473  1.00  0.00     0.009 A 
ENDBRANCH   4  12
BRANCH   3  19
HETATM   19  C   UNL     1      43.966 -15.528   6.203  1.00  0.00     0.266 C 
HETATM   20  O   UNL     1      44.873 -16.245   6.614  1.00  0.00    -0.265 OA
BRANCH  19  21
HETATM   21  O   UNL     1      43.940 -14.176   6.315  1.00  0.00    -0.326 OA
HETATM   22  C   UNL     1      44.753 -13.651   7.365  1.00  0.00     0.213 C 
ENDBRANCH  19  21
ENDBRANCH   3  19
BRANCH   2  23
HETATM   23  O   UNL     1      42.474 -17.418   7.546  1.00  0.00    -0.389 OA
HETATM   24  H   UNL     1      41.720 -16.924   7.915  1.00  0.00     0.210 HD
ENDBRANCH   2  23
BRANCH  10  25
HETATM   25  O   UNL     1      44.168 -17.039   1.082  1.00  0.00    -0.343 OA
HETATM   26  H   UNL     1      44.241 -16.121   1.390  1.00  0.00     0.219 HD
ENDBRANCH  10  25
TORSDOF 5
ENDMDL
MODEL 5
REMARK VINA RESULT:      -7.0      3.782      5.047
REMARK  5 active torsions:
REMARK  status: ('A' for Active; 'I' for Inactive)
REMARK    1  A    between atoms: C_2  and  O_3 
REMARK    2  A    between atoms: C_4  and  C_5 
REMARK    3  A    between atoms: C_5  and  O_6 
REMARK    4  A    between atoms: C_9  and  C_10 
REMARK    5  A    between atoms: C_22  and  O_23 
ROOT
HETATM    1  C   UNL     1      41.075 -15.600  -2.591  1.00  0.00     0.047 C 
HETATM    2  C   UNL     1      40.940 -14.138  -2.135  1.00  0.00     0.073 C 
HETATM    3  C   UNL     1      41.814 -13.853  -0.867  1.00  0.00     0.133 C 
HETATM    4  C   UNL     1      41.259 -14.342   0.506  1.00  0.00     0.074 C 
HETATM    5  C   UNL     1      39.770 -14.389   0.517  1.00  0.00     0.030 A 
HETATM    6  C   UNL     1      38.981 -14.147  -0.588  1.00  0.00     0.042 A 
HETATM    7  N   UNL     1      37.682 -14.231  -0.174  1.00  0.00    -0.279 N 
HETATM    8  H   UNL     1      36.833 -14.100  -0.716  1.00  0.00     0.189 HD
HETATM    9  N   UNL     1      37.570 -14.496   1.145  1.00  0.00    -0.149 NA
HETATM   10  C   UNL     1      38.835 -14.561   1.539  1.00  0.00     0.190 A 
HETATM   11  C   UNL     1      39.438 -13.783  -1.948  1.00  0.00     0.097 C 
ENDROOT
BRANCH   4  12
HETATM   12  C   UNL     1      41.811 -15.704   0.921  1.00  0.00    -0.048 A 
HETATM   13  C   UNL     1      43.136 -15.750   1.398  1.00  0.00     0.009 A 
HETATM   14  C   UNL     1      43.725 -16.955   1.792  1.00  0.00     0.019 A 
HETATM   15  C   UNL     1      42.998 -18.137   1.707  1.00  0.00     0.011 A 
HETATM   16 BR   UNL     1      43.788 -19.768   2.241  1.00  0.00    -0.051 Br
HETATM   17  C   UNL     1      41.690 -18.123   1.234  1.00  0.00     0.019 A 
HETATM   18  C   UNL     1      41.102 -16.915   0.845  1.00  0.00     0.009 A 
ENDBRANCH   4  12
BRANCH   3  19
HETATM   19  C   UNL     1      42.139 -12.373  -0.778  1.00  0.00     0.266 C 
HETATM   20  O   UNL     1      41.575 -11.622   0.012  1.00  0.00    -0.265 OA
BRANCH  19  21
HETATM   21  O   UNL     1      43.112 -11.993  -1.644  1.00  0.00    -0.326 OA
HETATM   22  C   UNL     1      43.174 -10.588  -1.889  1.00  0.00     0.213 C 
ENDBRANCH  19  21
ENDBRANCH   3  19
BRANCH   2  23
HETATM   23  O   UNL     1      41.419 -13.360  -3.250  1.00  0.00    -0.389 OA
HETATM   24  H   UNL     1      41.778 -13.966  -3.923  1.00  0.00     0.210 HD
ENDBRANCH   2  23
BRANCH  10  25
HETATM   25  O   UNL     1      39.019 -14.771   2.837  1.00  0.00    -0.343 OA
HETATM   26  H   UNL     1      38.364 -14.200   3.272  1.00  0.00     0.219 HD
ENDBRANCH  10  25
TORSDOF 5
ENDMDL
MODEL 6
REMARK VINA RESULT:      -6.4      4.766      6.446
REMARK  5 active torsions:
REMARK  status: ('A' for Active; 'I' for Inactive)
REMARK    1  A    between atoms: C_2  and  O_3 
REMARK    2  A    between atoms: C_4  and  C_5 
REMARK    3  A    between atoms: C_5  and  O_6 
REMARK    4  A    between atoms: C_9  and  C_10 
REMARK    5  A    between atoms: C_22  and  O_23 
ROOT
HETATM    1  C   UNL     1      42.098 -12.192   0.632  1.00  0.00     0.047 C 
HETATM    2  C   UNL     1      40.701 -12.003   0.019  1.00  0.00     0.073 C 
HETATM    3  C   UNL     1      39.718 -13.130   0.480  1.00  0.00     0.133 C 
HETATM    4  C   UNL     1      39.847 -14.518  -0.220  1.00  0.00     0.074 C 
HETATM    5  C   UNL     1      40.374 -14.393  -1.607  1.00  0.00     0.030 A 
HETATM    6  C   UNL     1      40.809 -13.208  -2.164  1.00  0.00     0.042 A 
HETATM    7  N   UNL     1      41.164 -13.483  -3.454  1.00  0.00    -0.279 N 
HETATM    8  H   UNL     1      41.519 -12.849  -4.164  1.00  0.00     0.189 HD
HETATM    9  N   UNL     1      40.970 -14.777  -3.785  1.00  0.00    -0.149 NA
HETATM   10  C   UNL     1      40.473 -15.293  -2.669  1.00  0.00     0.190 A 
HETATM   11  C   UNL     1      40.818 -11.873  -1.525  1.00  0.00     0.097 C 
ENDROOT
BRANCH   4  12
HETATM   12  C   UNL     1      40.713 -15.503   0.563  1.00  0.00    -0.048 A 
HETATM   13  C   UNL     1      40.167 -16.056   1.739  1.00  0.00     0.009 A 
HETATM   14  C   UNL     1      40.893 -16.958   2.522  1.00  0.00     0.019 A 
HETATM   15  C   UNL     1      42.182 -17.318   2.143  1.00  0.00     0.011 A 
HETATM   16 BR   UNL     1      43.166 -18.539   3.195  1.00  0.00    -0.051 Br
HETATM   17  C   UNL     1      42.748 -16.783   0.990  1.00  0.00     0.019 A 
HETATM   18  C   UNL     1      42.018 -15.883   0.207  1.00  0.00     0.009 A 
ENDBRANCH   4  12
BRANCH   3  19
HETATM   19  C   UNL     1      38.283 -12.648   0.377  1.00  0.00     0.266 C 
HETATM   20  O   UNL     1      37.594 -12.840  -0.620  1.00  0.00    -0.265 OA
BRANCH  19  21
HETATM   21  O   UNL     1      37.859 -12.009   1.497  1.00  0.00    -0.326 OA
HETATM   22  C   UNL     1      36.834 -11.039   1.275  1.00  0.00     0.213 C 
ENDBRANCH  19  21
ENDBRANCH   3  19
BRANCH   2  23
HETATM   23  O   UNL     1      40.254 -10.725   0.514  1.00  0.00    -0.389 OA
HETATM   24  H   UNL     1      40.581 -10.609   1.425  1.00  0.00     0.210 HD
ENDBRANCH   2  23
BRANCH  10  25
HETATM   25  O   UNL     1      40.140 -16.577  -2.732  1.00  0.00    -0.343 OA
HETATM   26  H   UNL     1      39.401 -16.608  -3.362  1.00  0.00     0.219 HD
ENDBRANCH  10  25
TORSDOF 5
ENDMDL
MODEL 7
REMARK VINA RESULT:      -6.3      8.390     10.649
REMARK  5 active torsions:
REMARK  status: ('A' for Active; 'I' for Inactive)
REMARK    1  A    between atoms: C_2  and  O_3 
REMARK    2  A    between atoms: C_4  and  C_5 
REMARK    3  A    between atoms: C_5  and  O_6 
REMARK    4  A    between atoms: C_9  and  C_10 
REMARK    5  A    between atoms: C_22  and  O_23 
ROOT
HETATM    1  C   UNL     1      40.354 -11.492  12.086  1.00  0.00     0.047 C 
HETATM    2  C   UNL     1      41.525 -10.891  12.880  1.00  0.00     0.073 C 
HETATM    3  C   UNL     1      42.004  -9.538  12.254  1.00  0.00     0.133 C 
HETATM    4  C   UNL     1      42.896  -9.619  10.978  1.00  0.00     0.074 C 
HETATM    5  C   UNL     1      43.690 -10.879  10.935  1.00  0.00     0.030 A 
HETATM    6  C   UNL     1      43.560 -11.904  11.849  1.00  0.00     0.042 A 
HETATM    7  N   UNL     1      44.482 -12.854  11.512  1.00  0.00    -0.279 N 
HETATM    8  H   UNL     1      44.677 -13.740  11.969  1.00  0.00     0.189 HD
HETATM    9  N   UNL     1      45.224 -12.505  10.439  1.00  0.00    -0.149 NA
HETATM   10  C   UNL     1      44.746 -11.307  10.130  1.00  0.00     0.190 A 
HETATM   11  C   UNL     1      42.658 -11.945  13.022  1.00  0.00     0.097 C 
ENDROOT
BRANCH   4  12
HETATM   12  C   UNL     1      42.100  -9.478   9.683  1.00  0.00    -0.048 A 
HETATM   13  C   UNL     1      41.320  -8.315   9.523  1.00  0.00     0.009 A 
HETATM   14  C   UNL     1      40.553  -8.108   8.373  1.00  0.00     0.019 A 
HETATM   15  C   UNL     1      40.549  -9.067   7.365  1.00  0.00     0.011 A 
HETATM   16 BR   UNL     1      39.516  -8.790   5.808  1.00  0.00    -0.051 Br
HETATM   17  C   UNL     1      41.305 -10.226   7.498  1.00  0.00     0.019 A 
HETATM   18  C   UNL     1      42.075 -10.428   8.649  1.00  0.00     0.009 A 
ENDBRANCH   4  12
BRANCH   3  19
HETATM   19  C   UNL     1      42.704  -8.695  13.304  1.00  0.00     0.266 C 
HETATM   20  O   UNL     1      43.596  -9.141  14.018  1.00  0.00    -0.265 OA
BRANCH  19  21
HETATM   21  O   UNL     1      42.246  -7.417  13.346  1.00  0.00    -0.326 OA
HETATM   22  C   UNL     1      40.853  -7.276  13.066  1.00  0.00     0.213 C 
ENDBRANCH  19  21
ENDBRANCH   3  19
BRANCH   2  23
HETATM   23  O   UNL     1      40.995 -10.664  14.201  1.00  0.00    -0.389 OA
HETATM   24  H   UNL     1      41.215  -9.755  14.475  1.00  0.00     0.210 HD
ENDBRANCH   2  23
BRANCH  10  25
HETATM   25  O   UNL     1      45.344 -10.699   9.113  1.00  0.00    -0.343 OA
HETATM   26  H   UNL     1      46.288 -10.705   9.345  1.00  0.00     0.219 HD
ENDBRANCH  10  25
TORSDOF 5
ENDMDL
MODEL 8
REMARK VINA RESULT:      -6.2      3.877      4.715
REMARK  5 active torsions:
REMARK  status: ('A' for Active; 'I' for Inactive)
REMARK    1  A    between atoms: C_2  and  O_3 
REMARK    2  A    between atoms: C_4  and  C_5 
REMARK    3  A    between atoms: C_5  and  O_6 
REMARK    4  A    between atoms: C_9  and  C_10 
REMARK    5  A    between atoms: C_22  and  O_23 
ROOT
HETATM    1  C   UNL     1      39.105 -15.531   2.034  1.00  0.00     0.047 C 
HETATM    2  C   UNL     1      39.663 -14.297   1.307  1.00  0.00     0.073 C 
HETATM    3  C   UNL     1      41.148 -14.017   1.716  1.00  0.00     0.133 C 
HETATM    4  C   UNL     1      41.389 -13.327   3.094  1.00  0.00     0.074 C 
HETATM    5  C   UNL     1      40.242 -12.463   3.490  1.00  0.00     0.030 A 
HETATM    6  C   UNL     1      39.060 -12.378   2.785  1.00  0.00     0.042 A 
HETATM    7  N   UNL     1      38.283 -11.455   3.424  1.00  0.00    -0.279 N 
HETATM    8  H   UNL     1      37.352 -11.130   3.180  1.00  0.00     0.189 HD
HETATM    9  N   UNL     1      38.893 -10.912   4.500  1.00  0.00    -0.149 NA
HETATM   10  C   UNL     1      40.074 -11.516   4.501  1.00  0.00     0.190 A 
HETATM   11  C   UNL     1      38.717 -13.084   1.530  1.00  0.00     0.097 C 
ENDROOT
BRANCH   4  12
HETATM   12  C   UNL     1      41.685 -14.320   4.215  1.00  0.00    -0.048 A 
HETATM   13  C   UNL     1      43.030 -14.693   4.414  1.00  0.00     0.009 A 
HETATM   14  C   UNL     1      43.391 -15.603   5.412  1.00  0.00     0.019 A 
HETATM   15  C   UNL     1      42.409 -16.162   6.223  1.00  0.00     0.011 A 
HETATM   16 BR   UNL     1      42.891 -17.391   7.574  1.00  0.00    -0.051 Br
HETATM   17  C   UNL     1      41.073 -15.817   6.044  1.00  0.00     0.019 A 
HETATM   18  C   UNL     1      40.716 -14.903   5.048  1.00  0.00     0.009 A 
ENDBRANCH   4  12
BRANCH   3  19
HETATM   19  C   UNL     1      41.850 -13.225   0.629  1.00  0.00     0.266 C 
HETATM   20  O   UNL     1      41.956 -13.638  -0.522  1.00  0.00    -0.265 OA
BRANCH  19  21
HETATM   21  O   UNL     1      42.321 -12.030   1.067  1.00  0.00    -0.326 OA
HETATM   22  C   UNL     1      41.808 -10.896   0.367  1.00  0.00     0.213 C 
ENDBRANCH  19  21
ENDBRANCH   3  19
BRANCH   2  23
HETATM   23  O   UNL     1      39.591 -14.632  -0.093  1.00  0.00    -0.389 OA
HETATM   24  H   UNL     1      40.170 -15.398  -0.262  1.00  0.00     0.210 HD
ENDBRANCH   2  23
BRANCH  10  25
HETATM   25  O   UNL     1      40.914 -11.125   5.452  1.00  0.00    -0.343 OA
HETATM   26  H   UNL     1      41.448 -10.428   5.035  1.00  0.00     0.219 HD
ENDBRANCH  10  25
TORSDOF 5
ENDMDL
MODEL 9
REMARK VINA RESULT:      -6.1      3.599      5.899
REMARK  5 active torsions:
REMARK  status: ('A' for Active; 'I' for Inactive)
REMARK    1  A    between atoms: C_2  and  O_3 
REMARK    2  A    between atoms: C_4  and  C_5 
REMARK    3  A    between atoms: C_5  and  O_6 
REMARK    4  A    between atoms: C_9  and  C_10 
REMARK    5  A    between atoms: C_22  and  O_23 
ROOT
HETATM    1  C   UNL     1      43.427 -13.856   3.527  1.00  0.00     0.047 C 
HETATM    2  C   UNL     1      42.791 -14.606   4.708  1.00  0.00     0.073 C 
HETATM    3  C   UNL     1      41.407 -15.223   4.314  1.00  0.00     0.133 C 
HETATM    4  C   UNL     1      40.186 -14.255   4.257  1.00  0.00     0.074 C 
HETATM    5  C   UNL     1      40.345 -13.105   5.190  1.00  0.00     0.030 A 
HETATM    6  C   UNL     1      41.487 -12.859   5.924  1.00  0.00     0.042 A 
HETATM    7  N   UNL     1      41.235 -11.758   6.692  1.00  0.00    -0.279 N 
HETATM    8  H   UNL     1      41.844 -11.298   7.362  1.00  0.00     0.189 HD
HETATM    9  N   UNL     1      39.986 -11.275   6.519  1.00  0.00    -0.149 NA
HETATM   10  C   UNL     1      39.467 -12.115   5.633  1.00  0.00     0.190 A 
HETATM   11  C   UNL     1      42.724 -13.671   5.948  1.00  0.00     0.097 C 
ENDROOT
BRANCH   4  12
HETATM   12  C   UNL     1      39.905 -13.731   2.851  1.00  0.00    -0.048 A 
HETATM   13  C   UNL     1      39.136 -14.546   1.995  1.00  0.00     0.009 A 
HETATM   14  C   UNL     1      38.838 -14.148   0.688  1.00  0.00     0.019 A 
HETATM   15  C   UNL     1      39.312 -12.930   0.214  1.00  0.00     0.011 A 
HETATM   16 BR   UNL     1      38.909 -12.387  -1.550  1.00  0.00    -0.051 Br
HETATM   17  C   UNL     1      40.077 -12.108   1.034  1.00  0.00     0.019 A 
HETATM   18  C   UNL     1      40.370 -12.507   2.343  1.00  0.00     0.009 A 
ENDBRANCH   4  12
BRANCH   3  19
HETATM   19  C   UNL     1      41.078 -16.394   5.222  1.00  0.00     0.266 C 
HETATM   20  O   UNL     1      40.512 -16.251   6.301  1.00  0.00    -0.265 OA
BRANCH  19  21
HETATM   21  O   UNL     1      41.463 -17.588   4.704  1.00  0.00    -0.326 OA
HETATM   22  C   UNL     1      41.511 -17.628   3.277  1.00  0.00     0.213 C 
ENDBRANCH  19  21
ENDBRANCH   3  19
BRANCH   2  23
HETATM   23  O   UNL     1      43.728 -15.655   5.024  1.00  0.00    -0.389 OA
HETATM   24  H   UNL     1      43.270 -16.336   5.551  1.00  0.00     0.210 HD
ENDBRANCH   2  23
BRANCH  10  25
HETATM   25  O   UNL     1      38.199 -11.894   5.311  1.00  0.00    -0.343 OA
HETATM   26  H   UNL     1      37.869 -11.301   6.007  1.00  0.00     0.219 HD
ENDBRANCH  10  25
TORSDOF 5
ENDMDL
MODEL 10
REMARK VINA RESULT:      -6.1      4.792      7.073
REMARK  5 active torsions:
REMARK  status: ('A' for Active; 'I' for Inactive)
REMARK    1  A    between atoms: C_2  and  O_3 
REMARK    2  A    between atoms: C_4  and  C_5 
REMARK    3  A    between atoms: C_5  and  O_6 
REMARK    4  A    between atoms: C_9  and  C_10 
REMARK    5  A    between atoms: C_22  and  O_23 
ROOT
HETATM    1  C   UNL     1      41.381 -13.368   3.261  1.00  0.00     0.047 C 
HETATM    2  C   UNL     1      41.212 -14.745   2.599  1.00  0.00     0.073 C 
HETATM    3  C   UNL     1      41.970 -14.816   1.231  1.00  0.00     0.133 C 
HETATM    4  C   UNL     1      41.292 -14.132   0.004  1.00  0.00     0.074 C 
HETATM    5  C   UNL     1      39.809 -14.111   0.130  1.00  0.00     0.030 A 
HETATM    6  C   UNL     1      39.123 -14.534   1.250  1.00  0.00     0.042 A 
HETATM    7  N   UNL     1      37.791 -14.411   0.969  1.00  0.00    -0.279 N 
HETATM    8  H   UNL     1      36.995 -14.639   1.557  1.00  0.00     0.189 HD
HETATM    9  N   UNL     1      37.561 -13.949  -0.278  1.00  0.00    -0.149 NA
HETATM   10  C   UNL     1      38.785 -13.801  -0.766  1.00  0.00     0.190 A 
HETATM   11  C   UNL     1      39.701 -15.094   2.492  1.00  0.00     0.097 C 
ENDROOT
BRANCH   4  12
HETATM   12  C   UNL     1      41.799 -12.713  -0.243  1.00  0.00    -0.048 A 
HETATM   13  C   UNL     1      42.637 -12.508  -1.357  1.00  0.00     0.009 A 
HETATM   14  C   UNL     1      43.154 -11.243  -1.653  1.00  0.00     0.019 A 
HETATM   15  C   UNL     1      42.846 -10.163  -0.834  1.00  0.00     0.011 A 
HETATM   16 BR   UNL     1      43.539  -8.451  -1.231  1.00  0.00    -0.051 Br
HETATM   17  C   UNL     1      42.026 -10.338   0.276  1.00  0.00     0.019 A 
HETATM   18  C   UNL     1      41.507 -11.604   0.568  1.00  0.00     0.009 A 
ENDBRANCH   4  12
BRANCH   3  19
HETATM   19  C   UNL     1      42.292 -16.259   0.886  1.00  0.00     0.266 C 
HETATM   20  O   UNL     1      41.538 -16.960   0.218  1.00  0.00    -0.265 OA
BRANCH  19  21
HETATM   21  O   UNL     1      43.489 -16.665   1.381  1.00  0.00    -0.326 OA
HETATM   22  C   UNL     1      43.691 -18.078   1.359  1.00  0.00     0.213 C 
ENDBRANCH  19  21
ENDBRANCH   3  19
BRANCH   2  23
HETATM   23  O   UNL     1      41.792 -15.675   3.534  1.00  0.00    -0.389 OA
HETATM   24  H   UNL     1      41.482 -16.573   3.317  1.00  0.00     0.210 HD
ENDBRANCH   2  23
BRANCH  10  25
HETATM   25  O   UNL     1      38.851 -13.391  -2.027  1.00  0.00    -0.343 OA
HETATM   26  H   UNL     1      38.063 -13.773  -2.450  1.00  0.00     0.219 HD
ENDBRANCH  10  25
TORSDOF 5
ENDMDL
