MODEL 1
REMARK VINA RESULT:      -8.6      0.000      0.000
REMARK  8 active torsions:
REMARK  status: ('A' for Active; 'I' for Inactive)
REMARK    1  A    between atoms: C_4  and  N_5 
REMARK    2  A    between atoms: N_5  and  S_6 
REMARK    3  A    between atoms: S_6  and  C_7 
REMARK    4  A    between atoms: C_13  and  C_14 
REMARK       I    between atoms: C_14  and  N_15 
REMARK    5  A    between atoms: N_15  and  C_16 
REMARK    6  A    between atoms: C_16  and  C_17 
REMARK    7  A    between atoms: C_17  and  C_18 
REMARK    8  A    between atoms: C_18  and  O_19 
ROOT
HETATM    1  C   UNL     1      40.488 -14.663  -1.282  1.00  0.00     0.081 A 
HETATM    2  C   UNL     1      41.415 -15.428  -0.569  1.00  0.00     0.043 A 
HETATM    3  C   UNL     1      41.230 -15.615   0.804  1.00  0.00     0.043 A 
HETATM    4  C   UNL     1      40.119 -15.062   1.465  1.00  0.00     0.046 A 
HETATM    5  N   UNL     1      39.983 -15.224   2.848  1.00  0.00    -0.364 N 
HETATM    6  C   UNL     1      40.882 -15.978   3.560  1.00  0.00     0.109 A 
HETATM    7  C   UNL     1      41.973 -16.574   3.052  1.00  0.00     0.098 A 
HETATM    8  C   UNL     1      42.213 -16.408   1.590  1.00  0.00     0.201 A 
HETATM    9  O   UNL     1      43.191 -16.902   1.035  1.00  0.00    -0.286 OA
HETATM   10  C   UNL     1      39.199 -14.303   0.733  1.00  0.00     0.032 A 
HETATM   11  C   UNL     1      39.373 -14.112  -0.641  1.00  0.00     0.027 A 
HETATM   12  H   UNL     1      39.122 -14.939   3.304  1.00  0.00     0.165 HD
ENDROOT
BRANCH   1  13
HETATM   13  S   UNL     1      40.707 -14.441  -3.035  1.00  0.00     0.263 S 
HETATM   14  O   UNL     1      39.761 -13.440  -3.477  1.00  0.00    -0.200 OA
HETATM   15  O   UNL     1      40.737 -15.760  -3.631  1.00  0.00    -0.200 OA
BRANCH  13  16
HETATM   16  N   UNL     1      42.281 -13.838  -3.143  1.00  0.00    -0.281 N 
HETATM   17  H   UNL     1      42.961 -14.440  -2.682  1.00  0.00     0.179 HD
BRANCH  16  18
HETATM   18  C   UNL     1      42.487 -12.433  -3.079  1.00  0.00     0.043 A 
HETATM   19  C   UNL     1      42.780 -11.830  -1.855  1.00  0.00     0.037 A 
HETATM   20  C   UNL     1      42.945 -10.442  -1.778  1.00  0.00    -0.059 A 
HETATM   21  C   UNL     1      43.268  -9.772  -0.474  1.00  0.00     0.048 C 
HETATM   22  C   UNL     1      42.832  -9.673  -2.946  1.00  0.00     0.013 A 
HETATM   23  C   UNL     1      42.535 -10.273  -4.176  1.00  0.00    -0.059 A 
HETATM   24  C   UNL     1      42.357 -11.659  -4.232  1.00  0.00     0.037 A 
HETATM   25  C   UNL     1      42.443  -9.436  -5.419  1.00  0.00     0.048 C 
ENDBRANCH  16  18
ENDBRANCH  13  16
ENDBRANCH   1  13
BRANCH   7  26
HETATM   26  C   UNL     1      42.861 -17.338   3.977  1.00  0.00     0.257 C 
HETATM   27  N   UNL     1      43.162 -18.616   3.582  1.00  0.00    -0.357 N 
HETATM   28  H   UNL     1      42.772 -18.957   2.701  1.00  0.00     0.162 HD
HETATM   29  O   UNL     1      43.292 -16.838   5.013  1.00  0.00    -0.267 OA
BRANCH  27  30
HETATM   30  C   UNL     1      44.045 -19.478   4.334  1.00  0.00     0.125 C 
BRANCH  30  31
HETATM   31  C   UNL     1      44.847 -20.415   3.439  1.00  0.00     0.046 C 
BRANCH  31  32
HETATM   32  C   UNL     1      44.721 -21.859   3.909  1.00  0.00     0.168 C 
BRANCH  32  33
HETATM   33  O   UNL     1      44.526 -22.696   2.772  1.00  0.00    -0.396 OA
HETATM   34  C   UNL     1      44.106 -21.950   1.637  1.00  0.00     0.201 C 
ENDBRANCH  32  33
ENDBRANCH  31  32
ENDBRANCH  30  31
ENDBRANCH  27  30
ENDBRANCH   7  26
TORSDOF 8
ENDMDL
MODEL 2
REMARK VINA RESULT:      -8.5      1.078      1.393
REMARK  8 active torsions:
REMARK  status: ('A' for Active; 'I' for Inactive)
REMARK    1  A    between atoms: C_4  and  N_5 
REMARK    2  A    between atoms: N_5  and  S_6 
REMARK    3  A    between atoms: S_6  and  C_7 
REMARK    4  A    between atoms: C_13  and  C_14 
REMARK       I    between atoms: C_14  and  N_15 
REMARK    5  A    between atoms: N_15  and  C_16 
REMARK    6  A    between atoms: C_16  and  C_17 
REMARK    7  A    between atoms: C_17  and  C_18 
REMARK    8  A    between atoms: C_18  and  O_19 
ROOT
HETATM    1  C   UNL     1      40.762 -14.963  -0.979  1.00  0.00     0.081 A 
HETATM    2  C   UNL     1      41.716 -15.869  -0.510  1.00  0.00     0.043 A 
HETATM    3  C   UNL     1      41.655 -16.294   0.820  1.00  0.00     0.043 A 
HETATM    4  C   UNL     1      40.640 -15.837   1.679  1.00  0.00     0.046 A 
HETATM    5  N   UNL     1      40.629 -16.240   3.018  1.00  0.00    -0.364 N 
HETATM    6  C   UNL     1      41.557 -17.135   3.491  1.00  0.00     0.109 A 
HETATM    7  C   UNL     1      42.566 -17.661   2.777  1.00  0.00     0.098 A 
HETATM    8  C   UNL     1      42.672 -17.242   1.350  1.00  0.00     0.201 A 
HETATM    9  O   UNL     1      43.568 -17.656   0.619  1.00  0.00    -0.286 OA
HETATM   10  C   UNL     1      39.690 -14.933   1.190  1.00  0.00     0.032 A 
HETATM   11  C   UNL     1      39.740 -14.505  -0.140  1.00  0.00     0.027 A 
HETATM   12  H   UNL     1      39.830 -16.018   3.603  1.00  0.00     0.165 HD
ENDROOT
BRANCH   1  13
HETATM   13  S   UNL     1      40.821 -14.436  -2.678  1.00  0.00     0.263 S 
HETATM   14  O   UNL     1      39.848 -13.379  -2.850  1.00  0.00    -0.200 OA
HETATM   15  O   UNL     1      40.784 -15.630  -3.496  1.00  0.00    -0.200 OA
BRANCH  13  16
HETATM   16  N   UNL     1      42.384 -13.813  -2.823  1.00  0.00    -0.281 N 
HETATM   17  H   UNL     1      43.071 -14.362  -2.308  1.00  0.00     0.179 HD
BRANCH  16  18
HETATM   18  C   UNL     1      42.563 -12.404  -2.875  1.00  0.00     0.043 A 
HETATM   19  C   UNL     1      42.907 -11.706  -1.716  1.00  0.00     0.037 A 
HETATM   20  C   UNL     1      43.045 -10.313  -1.752  1.00  0.00    -0.059 A 
HETATM   21  C   UNL     1      43.420  -9.541  -0.521  1.00  0.00     0.048 C 
HETATM   22  C   UNL     1      42.855  -9.637  -2.966  1.00  0.00     0.013 A 
HETATM   23  C   UNL     1      42.508 -10.332  -4.131  1.00  0.00    -0.059 A 
HETATM   24  C   UNL     1      42.358 -11.722  -4.074  1.00  0.00     0.037 A 
HETATM   25  C   UNL     1      42.334  -9.593  -5.425  1.00  0.00     0.048 C 
ENDBRANCH  16  18
ENDBRANCH  13  16
ENDBRANCH   1  13
BRANCH   7  26
HETATM   26  C   UNL     1      43.502 -18.603   3.457  1.00  0.00     0.257 C 
HETATM   27  N   UNL     1      44.034 -19.583   2.660  1.00  0.00    -0.357 N 
HETATM   28  H   UNL     1      43.765 -19.606   1.674  1.00  0.00     0.162 HD
HETATM   29  O   UNL     1      43.775 -18.489   4.650  1.00  0.00    -0.267 OA
BRANCH  27  30
HETATM   30  C   UNL     1      44.994 -20.550   3.144  1.00  0.00     0.125 C 
BRANCH  30  31
HETATM   31  C   UNL     1      44.407 -21.952   3.251  1.00  0.00     0.046 C 
BRANCH  31  32
HETATM   32  C   UNL     1      44.626 -22.530   4.643  1.00  0.00     0.168 C 
BRANCH  32  33
HETATM   33  O   UNL     1      44.872 -21.458   5.551  1.00  0.00    -0.396 OA
HETATM   34  C   UNL     1      43.874 -21.388   6.562  1.00  0.00     0.201 C 
ENDBRANCH  32  33
ENDBRANCH  31  32
ENDBRANCH  30  31
ENDBRANCH  27  30
ENDBRANCH   7  26
TORSDOF 8
ENDMDL
MODEL 3
REMARK VINA RESULT:      -8.3      1.587      2.773
REMARK  8 active torsions:
REMARK  status: ('A' for Active; 'I' for Inactive)
REMARK    1  A    between atoms: C_4  and  N_5 
REMARK    2  A    between atoms: N_5  and  S_6 
REMARK    3  A    between atoms: S_6  and  C_7 
REMARK    4  A    between atoms: C_13  and  C_14 
REMARK       I    between atoms: C_14  and  N_15 
REMARK    5  A    between atoms: N_15  and  C_16 
REMARK    6  A    between atoms: C_16  and  C_17 
REMARK    7  A    between atoms: C_17  and  C_18 
REMARK    8  A    between atoms: C_18  and  O_19 
ROOT
HETATM    1  C   UNL     1      40.618 -14.732  -1.147  1.00  0.00     0.081 A 
HETATM    2  C   UNL     1      41.346 -15.675  -0.417  1.00  0.00     0.043 A 
HETATM    3  C   UNL     1      41.103 -15.808   0.954  1.00  0.00     0.043 A 
HETATM    4  C   UNL     1      40.130 -15.021   1.596  1.00  0.00     0.046 A 
HETATM    5  N   UNL     1      39.942 -15.140   2.976  1.00  0.00    -0.364 N 
HETATM    6  C   UNL     1      40.644 -16.066   3.705  1.00  0.00     0.109 A 
HETATM    7  C   UNL     1      41.587 -16.890   3.217  1.00  0.00     0.098 A 
HETATM    8  C   UNL     1      41.878 -16.790   1.759  1.00  0.00     0.201 A 
HETATM    9  O   UNL     1      42.733 -17.490   1.221  1.00  0.00    -0.286 OA
HETATM   10  C   UNL     1      39.409 -14.085   0.846  1.00  0.00     0.032 A 
HETATM   11  C   UNL     1      39.641 -13.947  -0.526  1.00  0.00     0.027 A 
HETATM   12  H   UNL     1      39.157 -14.671   3.417  1.00  0.00     0.165 HD
ENDROOT
BRANCH   1  13
HETATM   13  S   UNL     1      40.906 -14.575  -2.897  1.00  0.00     0.263 S 
HETATM   14  O   UNL     1      39.916 -13.665  -3.430  1.00  0.00    -0.200 OA
HETATM   15  O   UNL     1      41.056 -15.915  -3.426  1.00  0.00    -0.200 OA
BRANCH  13  16
HETATM   16  N   UNL     1      42.438 -13.867  -2.963  1.00  0.00    -0.281 N 
HETATM   17  H   UNL     1      43.136 -14.399  -2.446  1.00  0.00     0.179 HD
BRANCH  16  18
HETATM   18  C   UNL     1      42.544 -12.449  -2.954  1.00  0.00     0.043 A 
HETATM   19  C   UNL     1      42.361 -11.734  -4.139  1.00  0.00     0.037 A 
HETATM   20  C   UNL     1      42.504 -10.341  -4.146  1.00  0.00    -0.059 A 
HETATM   21  C   UNL     1      42.305  -9.550  -5.406  1.00  0.00     0.048 C 
HETATM   22  C   UNL     1      42.811  -9.678  -2.949  1.00  0.00     0.013 A 
HETATM   23  C   UNL     1      42.997 -10.391  -1.758  1.00  0.00    -0.059 A 
HETATM   24  C   UNL     1      42.867 -11.784  -1.772  1.00  0.00     0.037 A 
HETATM   25  C   UNL     1      43.300  -9.661  -0.483  1.00  0.00     0.048 C 
ENDBRANCH  16  18
ENDBRANCH  13  16
ENDBRANCH   1  13
BRANCH   7  26
HETATM   26  C   UNL     1      42.272 -17.822   4.159  1.00  0.00     0.257 C 
HETATM   27  N   UNL     1      43.632 -17.914   4.010  1.00  0.00    -0.357 N 
HETATM   28  H   UNL     1      44.081 -17.352   3.284  1.00  0.00     0.162 HD
HETATM   29  O   UNL     1      41.648 -18.450   5.011  1.00  0.00    -0.267 OA
BRANCH  27  30
HETATM   30  C   UNL     1      44.459 -18.733   4.869  1.00  0.00     0.125 C 
BRANCH  30  31
HETATM   31  C   UNL     1      44.946 -17.979   6.100  1.00  0.00     0.046 C 
BRANCH  31  32
HETATM   32  C   UNL     1      44.310 -18.536   7.367  1.00  0.00     0.168 C 
BRANCH  32  33
HETATM   33  O   UNL     1      43.250 -17.670   7.767  1.00  0.00    -0.396 OA
HETATM   34  C   UNL     1      43.547 -16.310   7.479  1.00  0.00     0.201 C 
ENDBRANCH  32  33
ENDBRANCH  31  32
ENDBRANCH  30  31
ENDBRANCH  27  30
ENDBRANCH   7  26
TORSDOF 8
ENDMDL
MODEL 4
REMARK VINA RESULT:      -8.2      4.666      8.396
REMARK  8 active torsions:
REMARK  status: ('A' for Active; 'I' for Inactive)
REMARK    1  A    between atoms: C_4  and  N_5 
REMARK    2  A    between atoms: N_5  and  S_6 
REMARK    3  A    between atoms: S_6  and  C_7 
REMARK    4  A    between atoms: C_13  and  C_14 
REMARK       I    between atoms: C_14  and  N_15 
REMARK    5  A    between atoms: N_15  and  C_16 
REMARK    6  A    between atoms: C_16  and  C_17 
REMARK    7  A    between atoms: C_17  and  C_18 
REMARK    8  A    between atoms: C_18  and  O_19 
ROOT
HETATM    1  C   UNL     1      40.762 -14.638   2.750  1.00  0.00     0.081 A 
HETATM    2  C   UNL     1      41.429 -14.168   3.884  1.00  0.00     0.043 A 
HETATM    3  C   UNL     1      40.999 -12.980   4.483  1.00  0.00     0.043 A 
HETATM    4  C   UNL     1      39.899 -12.270   3.970  1.00  0.00     0.046 A 
HETATM    5  N   UNL     1      39.519 -11.059   4.559  1.00  0.00    -0.364 N 
HETATM    6  C   UNL     1      40.161 -10.589   5.677  1.00  0.00     0.109 A 
HETATM    7  C   UNL     1      41.211 -11.174   6.277  1.00  0.00     0.098 A 
HETATM    8  C   UNL     1      41.705 -12.447   5.679  1.00  0.00     0.201 A 
HETATM    9  O   UNL     1      42.668 -13.050   6.145  1.00  0.00    -0.286 OA
HETATM   10  C   UNL     1      39.241 -12.759   2.837  1.00  0.00     0.032 A 
HETATM   11  C   UNL     1      39.661 -13.948   2.233  1.00  0.00     0.027 A 
HETATM   12  H   UNL     1      38.653 -10.614   4.275  1.00  0.00     0.165 HD
ENDROOT
BRANCH   1  13
HETATM   13  S   UNL     1      41.291 -16.163   1.997  1.00  0.00     0.263 S 
HETATM   14  O   UNL     1      41.206 -16.002   0.562  1.00  0.00    -0.200 OA
HETATM   15  O   UNL     1      40.595 -17.236   2.675  1.00  0.00    -0.200 OA
BRANCH  13  16
HETATM   16  N   UNL     1      42.907 -16.274   2.473  1.00  0.00    -0.281 N 
HETATM   17  H   UNL     1      43.533 -15.764   1.851  1.00  0.00     0.179 HD
BRANCH  16  18
HETATM   18  C   UNL     1      43.378 -17.491   3.037  1.00  0.00     0.043 A 
HETATM   19  C   UNL     1      43.769 -17.528   4.377  1.00  0.00     0.037 A 
HETATM   20  C   UNL     1      44.272 -18.713   4.927  1.00  0.00    -0.059 A 
HETATM   21  C   UNL     1      44.691 -18.780   6.367  1.00  0.00     0.048 C 
HETATM   22  C   UNL     1      44.358 -19.859   4.124  1.00  0.00     0.013 A 
HETATM   23  C   UNL     1      43.970 -19.826   2.778  1.00  0.00    -0.059 A 
HETATM   24  C   UNL     1      43.485 -18.630   2.239  1.00  0.00     0.037 A 
HETATM   25  C   UNL     1      44.046 -21.070   1.942  1.00  0.00     0.048 C 
ENDBRANCH  16  18
ENDBRANCH  13  16
ENDBRANCH   1  13
BRANCH   7  26
HETATM   26  C   UNL     1      41.806 -10.511   7.474  1.00  0.00     0.257 C 
HETATM   27  N   UNL     1      42.030 -11.330   8.551  1.00  0.00    -0.357 N 
HETATM   28  H   UNL     1      41.783 -12.318   8.468  1.00  0.00     0.162 HD
HETATM   29  O   UNL     1      42.080  -9.313   7.476  1.00  0.00    -0.267 OA
BRANCH  27  30
HETATM   30  C   UNL     1      42.644 -10.863   9.773  1.00  0.00     0.125 C 
BRANCH  30  31
HETATM   31  C   UNL     1      44.166 -10.868   9.701  1.00  0.00     0.046 C 
BRANCH  31  32
HETATM   32  C   UNL     1      44.734 -12.170  10.249  1.00  0.00     0.168 C 
BRANCH  32  33
HETATM   33  O   UNL     1      44.654 -13.169   9.235  1.00  0.00    -0.396 OA
HETATM   34  C   UNL     1      45.517 -12.878   8.143  1.00  0.00     0.201 C 
ENDBRANCH  32  33
ENDBRANCH  31  32
ENDBRANCH  30  31
ENDBRANCH  27  30
ENDBRANCH   7  26
TORSDOF 8
ENDMDL
MODEL 5
REMARK VINA RESULT:      -8.1      3.789      8.970
REMARK  8 active torsions:
REMARK  status: ('A' for Active; 'I' for Inactive)
REMARK    1  A    between atoms: C_4  and  N_5 
REMARK    2  A    between atoms: N_5  and  S_6 
REMARK    3  A    between atoms: S_6  and  C_7 
REMARK    4  A    between atoms: C_13  and  C_14 
REMARK       I    between atoms: C_14  and  N_15 
REMARK    5  A    between atoms: N_15  and  C_16 
REMARK    6  A    between atoms: C_16  and  C_17 
REMARK    7  A    between atoms: C_17  and  C_18 
REMARK    8  A    between atoms: C_18  and  O_19 
ROOT
HETATM    1  C   UNL     1      43.379 -16.497   6.346  1.00  0.00     0.081 A 
HETATM    2  C   UNL     1      42.260 -16.156   5.582  1.00  0.00     0.043 A 
HETATM    3  C   UNL     1      41.973 -14.806   5.361  1.00  0.00     0.043 A 
HETATM    4  C   UNL     1      42.803 -13.796   5.880  1.00  0.00     0.046 A 
HETATM    5  N   UNL     1      42.467 -12.453   5.685  1.00  0.00    -0.364 N 
HETATM    6  C   UNL     1      41.374 -12.103   4.932  1.00  0.00     0.109 A 
HETATM    7  C   UNL     1      40.510 -12.962   4.367  1.00  0.00     0.098 A 
HETATM    8  C   UNL     1      40.775 -14.415   4.569  1.00  0.00     0.201 A 
HETATM    9  O   UNL     1      40.035 -15.279   4.105  1.00  0.00    -0.286 OA
HETATM   10  C   UNL     1      43.922 -14.157   6.638  1.00  0.00     0.032 A 
HETATM   11  C   UNL     1      44.220 -15.505   6.862  1.00  0.00     0.027 A 
HETATM   12  H   UNL     1      43.127 -11.728   5.944  1.00  0.00     0.165 HD
ENDROOT
BRANCH   1  13
HETATM   13  S   UNL     1      43.763 -18.215   6.610  1.00  0.00     0.263 S 
HETATM   14  O   UNL     1      42.562 -18.982   6.358  1.00  0.00    -0.200 OA
HETATM   15  O   UNL     1      44.458 -18.306   7.877  1.00  0.00    -0.200 OA
BRANCH  13  16
HETATM   16  N   UNL     1      44.914 -18.531   5.416  1.00  0.00    -0.281 N 
HETATM   17  H   UNL     1      45.716 -17.905   5.473  1.00  0.00     0.179 HD
BRANCH  16  18
HETATM   18  C   UNL     1      44.476 -18.933   4.125  1.00  0.00     0.043 A 
HETATM   19  C   UNL     1      44.568 -20.274   3.749  1.00  0.00     0.037 A 
HETATM   20  C   UNL     1      44.176 -20.670   2.464  1.00  0.00    -0.059 A 
HETATM   21  C   UNL     1      44.259 -22.107   2.040  1.00  0.00     0.048 C 
HETATM   22  C   UNL     1      43.675 -19.710   1.574  1.00  0.00     0.013 A 
HETATM   23  C   UNL     1      43.583 -18.362   1.946  1.00  0.00    -0.059 A 
HETATM   24  C   UNL     1      43.995 -17.980   3.227  1.00  0.00     0.037 A 
HETATM   25  C   UNL     1      43.020 -17.354   0.987  1.00  0.00     0.048 C 
ENDBRANCH  16  18
ENDBRANCH  13  16
ENDBRANCH   1  13
BRANCH   7  26
HETATM   26  C   UNL     1      39.357 -12.409   3.599  1.00  0.00     0.257 C 
HETATM   27  N   UNL     1      39.146 -12.970   2.366  1.00  0.00    -0.357 N 
HETATM   28  H   UNL     1      39.775 -13.715   2.058  1.00  0.00     0.162 HD
HETATM   29  O   UNL     1      38.647 -11.517   4.058  1.00  0.00    -0.267 OA
BRANCH  27  30
HETATM   30  C   UNL     1      38.046 -12.587   1.510  1.00  0.00     0.125 C 
BRANCH  30  31
HETATM   31  C   UNL     1      37.477 -13.765   0.728  1.00  0.00     0.046 C 
BRANCH  31  32
HETATM   32  C   UNL     1      38.072 -13.827  -0.673  1.00  0.00     0.168 C 
BRANCH  32  33
HETATM   33  O   UNL     1      39.489 -13.950  -0.565  1.00  0.00    -0.396 OA
HETATM   34  C   UNL     1      40.160 -13.132  -1.515  1.00  0.00     0.201 C 
ENDBRANCH  32  33
ENDBRANCH  31  32
ENDBRANCH  30  31
ENDBRANCH  27  30
ENDBRANCH   7  26
TORSDOF 8
ENDMDL
MODEL 6
REMARK VINA RESULT:      -8.1      3.254      8.757
REMARK  8 active torsions:
REMARK  status: ('A' for Active; 'I' for Inactive)
REMARK    1  A    between atoms: C_4  and  N_5 
REMARK    2  A    between atoms: N_5  and  S_6 
REMARK    3  A    between atoms: S_6  and  C_7 
REMARK    4  A    between atoms: C_13  and  C_14 
REMARK       I    between atoms: C_14  and  N_15 
REMARK    5  A    between atoms: N_15  and  C_16 
REMARK    6  A    between atoms: C_16  and  C_17 
REMARK    7  A    between atoms: C_17  and  C_18 
REMARK    8  A    between atoms: C_18  and  O_19 
ROOT
HETATM    1  C   UNL     1      42.435 -15.655   4.996  1.00  0.00     0.081 A 
HETATM    2  C   UNL     1      41.430 -15.624   4.027  1.00  0.00     0.043 A 
HETATM    3  C   UNL     1      41.371 -14.543   3.142  1.00  0.00     0.043 A 
HETATM    4  C   UNL     1      42.318 -13.506   3.205  1.00  0.00     0.046 A 
HETATM    5  N   UNL     1      42.209 -12.413   2.339  1.00  0.00    -0.364 N 
HETATM    6  C   UNL     1      41.230 -12.371   1.378  1.00  0.00     0.109 A 
HETATM    7  C   UNL     1      40.276 -13.300   1.197  1.00  0.00     0.098 A 
HETATM    8  C   UNL     1      40.298 -14.476   2.114  1.00  0.00     0.201 A 
HETATM    9  O   UNL     1      39.460 -15.371   2.038  1.00  0.00    -0.286 OA
HETATM   10  C   UNL     1      43.321 -13.557   4.179  1.00  0.00     0.032 A 
HETATM   11  C   UNL     1      43.390 -14.635   5.067  1.00  0.00     0.027 A 
HETATM   12  H   UNL     1      42.959 -11.731   2.295  1.00  0.00     0.165 HD
ENDROOT
BRANCH   1  13
HETATM   13  S   UNL     1      42.528 -17.041   6.111  1.00  0.00     0.263 S 
HETATM   14  O   UNL     1      41.412 -17.915   5.826  1.00  0.00    -0.200 OA
HETATM   15  O   UNL     1      42.743 -16.505   7.439  1.00  0.00    -0.200 OA
BRANCH  13  16
HETATM   16  N   UNL     1      43.976 -17.785   5.663  1.00  0.00    -0.281 N 
HETATM   17  H   UNL     1      44.794 -17.246   5.941  1.00  0.00     0.179 HD
BRANCH  16  18
HETATM   18  C   UNL     1      44.035 -18.494   4.432  1.00  0.00     0.043 A 
HETATM   19  C   UNL     1      43.834 -17.813   3.230  1.00  0.00     0.037 A 
HETATM   20  C   UNL     1      43.851 -18.512   2.017  1.00  0.00    -0.059 A 
HETATM   21  C   UNL     1      43.644 -17.801   0.712  1.00  0.00     0.048 C 
HETATM   22  C   UNL     1      44.092 -19.893   2.026  1.00  0.00     0.013 A 
HETATM   23  C   UNL     1      44.292 -20.582   3.229  1.00  0.00    -0.059 A 
HETATM   24  C   UNL     1      44.255 -19.871   4.433  1.00  0.00     0.037 A 
HETATM   25  C   UNL     1      44.573 -22.056   3.215  1.00  0.00     0.048 C 
ENDBRANCH  16  18
ENDBRANCH  13  16
ENDBRANCH   1  13
BRANCH   7  26
HETATM   26  C   UNL     1      39.270 -13.084   0.117  1.00  0.00     0.257 C 
HETATM   27  N   UNL     1      39.115 -14.128  -0.760  1.00  0.00    -0.357 N 
HETATM   28  H   UNL     1      39.680 -14.967  -0.620  1.00  0.00     0.162 HD
HETATM   29  O   UNL     1      38.627 -12.041   0.035  1.00  0.00    -0.267 OA
BRANCH  27  30
HETATM   30  C   UNL     1      38.150 -14.107  -1.836  1.00  0.00     0.125 C 
BRANCH  30  31
HETATM   31  C   UNL     1      38.804 -14.234  -3.207  1.00  0.00     0.046 C 
BRANCH  31  32
HETATM   32  C   UNL     1      39.859 -15.333  -3.208  1.00  0.00     0.168 C 
BRANCH  32  33
HETATM   33  O   UNL     1      41.032 -14.842  -3.854  1.00  0.00    -0.396 OA
HETATM   34  C   UNL     1      41.245 -13.464  -3.579  1.00  0.00     0.201 C 
ENDBRANCH  32  33
ENDBRANCH  31  32
ENDBRANCH  30  31
ENDBRANCH  27  30
ENDBRANCH   7  26
TORSDOF 8
ENDMDL
MODEL 7
REMARK VINA RESULT:      -8.0      6.970      9.869
REMARK  8 active torsions:
REMARK  status: ('A' for Active; 'I' for Inactive)
REMARK    1  A    between atoms: C_4  and  N_5 
REMARK    2  A    between atoms: N_5  and  S_6 
REMARK    3  A    between atoms: S_6  and  C_7 
REMARK    4  A    between atoms: C_13  and  C_14 
REMARK       I    between atoms: C_14  and  N_15 
REMARK    5  A    between atoms: N_15  and  C_16 
REMARK    6  A    between atoms: C_16  and  C_17 
REMARK    7  A    between atoms: C_17  and  C_18 
REMARK    8  A    between atoms: C_18  and  O_19 
ROOT
HETATM    1  C   UNL     1      40.411 -10.421   7.338  1.00  0.00     0.081 A 
HETATM    2  C   UNL     1      40.348 -11.776   6.999  1.00  0.00     0.043 A 
HETATM    3  C   UNL     1      40.819 -12.186   5.749  1.00  0.00     0.043 A 
HETATM    4  C   UNL     1      41.368 -11.261   4.843  1.00  0.00     0.046 A 
HETATM    5  N   UNL     1      41.788 -11.691   3.580  1.00  0.00    -0.364 N 
HETATM    6  C   UNL     1      41.738 -13.018   3.236  1.00  0.00     0.109 A 
HETATM    7  C   UNL     1      41.255 -14.006   4.009  1.00  0.00     0.098 A 
HETATM    8  C   UNL     1      40.745 -13.619   5.355  1.00  0.00     0.201 A 
HETATM    9  O   UNL     1      40.270 -14.447   6.129  1.00  0.00    -0.286 OA
HETATM   10  C   UNL     1      41.426  -9.910   5.202  1.00  0.00     0.032 A 
HETATM   11  C   UNL     1      40.961  -9.489   6.452  1.00  0.00     0.027 A 
HETATM   12  H   UNL     1      42.300 -11.054   2.978  1.00  0.00     0.165 HD
ENDROOT
BRANCH   1  13
HETATM   13  S   UNL     1      39.834  -9.896   8.938  1.00  0.00     0.263 S 
HETATM   14  O   UNL     1      38.391 -10.008   8.949  1.00  0.00    -0.200 OA
HETATM   15  O   UNL     1      40.491  -8.641   9.237  1.00  0.00    -0.200 OA
BRANCH  13  16
HETATM   16  N   UNL     1      40.511 -11.043   9.976  1.00  0.00    -0.281 N 
HETATM   17  H   UNL     1      39.808 -11.539  10.522  1.00  0.00     0.179 HD
BRANCH  16  18
HETATM   18  C   UNL     1      41.757 -10.760  10.598  1.00  0.00     0.043 A 
HETATM   19  C   UNL     1      42.946 -10.969   9.897  1.00  0.00     0.037 A 
HETATM   20  C   UNL     1      44.178 -10.730  10.518  1.00  0.00    -0.059 A 
HETATM   21  C   UNL     1      45.468 -10.941   9.782  1.00  0.00     0.048 C 
HETATM   22  C   UNL     1      44.199 -10.261  11.840  1.00  0.00     0.013 A 
HETATM   23  C   UNL     1      43.009 -10.052  12.549  1.00  0.00    -0.059 A 
HETATM   24  C   UNL     1      41.787 -10.312  11.919  1.00  0.00     0.037 A 
HETATM   25  C   UNL     1      43.053  -9.526  13.954  1.00  0.00     0.048 C 
ENDBRANCH  16  18
ENDBRANCH  13  16
ENDBRANCH   1  13
BRANCH   7  26
HETATM   26  C   UNL     1      41.253 -15.395   3.467  1.00  0.00     0.257 C 
HETATM   27  N   UNL     1      41.616 -16.375   4.356  1.00  0.00    -0.357 N 
HETATM   28  H   UNL     1      41.856 -16.100   5.310  1.00  0.00     0.162 HD
HETATM   29  O   UNL     1      40.937 -15.632   2.303  1.00  0.00    -0.267 OA
BRANCH  27  30
HETATM   30  C   UNL     1      41.622 -17.779   4.011  1.00  0.00     0.125 C 
BRANCH  30  31
HETATM   31  C   UNL     1      42.883 -18.491   4.487  1.00  0.00     0.046 C 
BRANCH  31  32
HETATM   32  C   UNL     1      43.931 -18.540   3.383  1.00  0.00     0.168 C 
BRANCH  32  33
HETATM   33  O   UNL     1      43.990 -17.264   2.749  1.00  0.00    -0.396 OA
HETATM   34  C   UNL     1      44.199 -17.383   1.348  1.00  0.00     0.201 C 
ENDBRANCH  32  33
ENDBRANCH  31  32
ENDBRANCH  30  31
ENDBRANCH  27  30
ENDBRANCH   7  26
TORSDOF 8
ENDMDL
MODEL 8
REMARK VINA RESULT:      -7.9      3.823      9.490
REMARK  8 active torsions:
REMARK  status: ('A' for Active; 'I' for Inactive)
REMARK    1  A    between atoms: C_4  and  N_5 
REMARK    2  A    between atoms: N_5  and  S_6 
REMARK    3  A    between atoms: S_6  and  C_7 
REMARK    4  A    between atoms: C_13  and  C_14 
REMARK       I    between atoms: C_14  and  N_15 
REMARK    5  A    between atoms: N_15  and  C_16 
REMARK    6  A    between atoms: C_16  and  C_17 
REMARK    7  A    between atoms: C_17  and  C_18 
REMARK    8  A    between atoms: C_18  and  O_19 
ROOT
HETATM    1  C   UNL     1      43.413 -15.703   6.563  1.00  0.00     0.081 A 
HETATM    2  C   UNL     1      42.295 -15.706   5.725  1.00  0.00     0.043 A 
HETATM    3  C   UNL     1      41.929 -14.524   5.075  1.00  0.00     0.043 A 
HETATM    4  C   UNL     1      42.680 -13.346   5.241  1.00  0.00     0.046 A 
HETATM    5  N   UNL     1      42.264 -12.165   4.618  1.00  0.00    -0.364 N 
HETATM    6  C   UNL     1      41.172 -12.154   3.787  1.00  0.00     0.109 A 
HETATM    7  C   UNL     1      40.379 -13.207   3.528  1.00  0.00     0.098 A 
HETATM    8  C   UNL     1      40.730 -14.494   4.194  1.00  0.00     0.201 A 
HETATM    9  O   UNL     1      40.059 -15.510   4.033  1.00  0.00    -0.286 OA
HETATM   10  C   UNL     1      43.799 -13.364   6.080  1.00  0.00     0.032 A 
HETATM   11  C   UNL     1      44.175 -14.543   6.732  1.00  0.00     0.027 A 
HETATM   12  H   UNL     1      42.871 -11.351   4.630  1.00  0.00     0.165 HD
ENDROOT
BRANCH   1  13
HETATM   13  S   UNL     1      43.897 -17.213   7.374  1.00  0.00     0.263 S 
HETATM   14  O   UNL     1      43.520 -17.109   8.767  1.00  0.00    -0.200 OA
HETATM   15  O   UNL     1      45.266 -17.484   6.986  1.00  0.00    -0.200 OA
BRANCH  13  16
HETATM   16  N   UNL     1      42.947 -18.375   6.601  1.00  0.00    -0.281 N 
HETATM   17  H   UNL     1      42.304 -18.840   7.239  1.00  0.00     0.179 HD
BRANCH  16  18
HETATM   18  C   UNL     1      43.519 -19.148   5.554  1.00  0.00     0.043 A 
HETATM   19  C   UNL     1      43.460 -18.685   4.239  1.00  0.00     0.037 A 
HETATM   20  C   UNL     1      43.986 -19.461   3.198  1.00  0.00    -0.059 A 
HETATM   21  C   UNL     1      43.940 -18.981   1.777  1.00  0.00     0.048 C 
HETATM   22  C   UNL     1      44.586 -20.692   3.498  1.00  0.00     0.013 A 
HETATM   23  C   UNL     1      44.645 -21.163   4.816  1.00  0.00    -0.059 A 
HETATM   24  C   UNL     1      44.101 -20.383   5.842  1.00  0.00     0.037 A 
HETATM   25  C   UNL     1      45.314 -22.472   5.118  1.00  0.00     0.048 C 
ENDBRANCH  16  18
ENDBRANCH  13  16
ENDBRANCH   1  13
BRANCH   7  26
HETATM   26  C   UNL     1      39.214 -13.013   2.617  1.00  0.00     0.257 C 
HETATM   27  N   UNL     1      39.039 -13.988   1.668  1.00  0.00    -0.357 N 
HETATM   28  H   UNL     1      39.699 -14.768   1.646  1.00  0.00     0.162 HD
HETATM   29  O   UNL     1      38.465 -12.045   2.727  1.00  0.00    -0.267 OA
BRANCH  27  30
HETATM   30  C   UNL     1      37.934 -13.982   0.736  1.00  0.00     0.125 C 
BRANCH  30  31
HETATM   31  C   UNL     1      38.236 -13.173  -0.520  1.00  0.00     0.046 C 
BRANCH  31  32
HETATM   32  C   UNL     1      38.949 -14.028  -1.560  1.00  0.00     0.168 C 
BRANCH  32  33
HETATM   33  O   UNL     1      40.161 -14.523  -0.995  1.00  0.00    -0.396 OA
HETATM   34  C   UNL     1      41.240 -13.618  -1.192  1.00  0.00     0.201 C 
ENDBRANCH  32  33
ENDBRANCH  31  32
ENDBRANCH  30  31
ENDBRANCH  27  30
ENDBRANCH   7  26
TORSDOF 8
ENDMDL
MODEL 9
REMARK VINA RESULT:      -7.9      6.881      9.643
REMARK  8 active torsions:
REMARK  status: ('A' for Active; 'I' for Inactive)
REMARK    1  A    between atoms: C_4  and  N_5 
REMARK    2  A    between atoms: N_5  and  S_6 
REMARK    3  A    between atoms: S_6  and  C_7 
REMARK    4  A    between atoms: C_13  and  C_14 
REMARK       I    between atoms: C_14  and  N_15 
REMARK    5  A    between atoms: N_15  and  C_16 
REMARK    6  A    between atoms: C_16  and  C_17 
REMARK    7  A    between atoms: C_17  and  C_18 
REMARK    8  A    between atoms: C_18  and  O_19 
ROOT
HETATM    1  C   UNL     1      40.427 -10.606   7.287  1.00  0.00     0.081 A 
HETATM    2  C   UNL     1      40.462 -11.970   6.986  1.00  0.00     0.043 A 
HETATM    3  C   UNL     1      40.957 -12.380   5.744  1.00  0.00     0.043 A 
HETATM    4  C   UNL     1      41.432 -11.442   4.810  1.00  0.00     0.046 A 
HETATM    5  N   UNL     1      41.877 -11.875   3.557  1.00  0.00    -0.364 N 
HETATM    6  C   UNL     1      41.924 -13.212   3.250  1.00  0.00     0.109 A 
HETATM    7  C   UNL     1      41.518 -14.210   4.053  1.00  0.00     0.098 A 
HETATM    8  C   UNL     1      40.986 -13.825   5.391  1.00  0.00     0.201 A 
HETATM    9  O   UNL     1      40.577 -14.663   6.191  1.00  0.00    -0.286 OA
HETATM   10  C   UNL     1      41.393 -10.081   5.131  1.00  0.00     0.032 A 
HETATM   11  C   UNL     1      40.903  -9.661   6.372  1.00  0.00     0.027 A 
HETATM   12  H   UNL     1      42.338 -11.220   2.934  1.00  0.00     0.165 HD
ENDROOT
BRANCH   1  13
HETATM   13  S   UNL     1      39.820 -10.079   8.876  1.00  0.00     0.263 S 
HETATM   14  O   UNL     1      38.379 -10.205   8.864  1.00  0.00    -0.200 OA
HETATM   15  O   UNL     1      40.460  -8.817   9.179  1.00  0.00    -0.200 OA
BRANCH  13  16
HETATM   16  N   UNL     1      40.492 -11.216   9.929  1.00  0.00    -0.281 N 
HETATM   17  H   UNL     1      39.785 -11.725  10.456  1.00  0.00     0.179 HD
BRANCH  16  18
HETATM   18  C   UNL     1      41.717 -10.910  10.582  1.00  0.00     0.043 A 
HETATM   19  C   UNL     1      41.702 -10.437  11.896  1.00  0.00     0.037 A 
HETATM   20  C   UNL     1      42.902 -10.096  12.532  1.00  0.00    -0.059 A 
HETATM   21  C   UNL     1      42.911  -9.592  13.945  1.00  0.00     0.048 C 
HETATM   22  C   UNL     1      44.112 -10.255  11.842  1.00  0.00     0.013 A 
HETATM   23  C   UNL     1      44.133 -10.727  10.523  1.00  0.00    -0.059 A 
HETATM   24  C   UNL     1      42.923 -11.048   9.897  1.00  0.00     0.037 A 
HETATM   25  C   UNL     1      45.440 -10.914   9.811  1.00  0.00     0.048 C 
ENDBRANCH  16  18
ENDBRANCH  13  16
ENDBRANCH   1  13
BRANCH   7  26
HETATM   26  C   UNL     1      41.616 -15.611   3.549  1.00  0.00     0.257 C 
HETATM   27  N   UNL     1      42.089 -16.530   4.451  1.00  0.00    -0.357 N 
HETATM   28  H   UNL     1      42.337 -16.206   5.388  1.00  0.00     0.162 HD
HETATM   29  O   UNL     1      41.283 -15.908   2.404  1.00  0.00    -0.267 OA
BRANCH  27  30
HETATM   30  C   UNL     1      42.203 -17.938   4.146  1.00  0.00     0.125 C 
BRANCH  30  31
HETATM   31  C   UNL     1      43.614 -18.332   3.725  1.00  0.00     0.046 C 
BRANCH  31  32
HETATM   32  C   UNL     1      43.585 -19.230   2.495  1.00  0.00     0.168 C 
BRANCH  32  33
HETATM   33  O   UNL     1      44.635 -20.189   2.603  1.00  0.00    -0.396 OA
HETATM   34  C   UNL     1      44.906 -20.521   3.958  1.00  0.00     0.201 C 
ENDBRANCH  32  33
ENDBRANCH  31  32
ENDBRANCH  30  31
ENDBRANCH  27  30
ENDBRANCH   7  26
TORSDOF 8
ENDMDL
MODEL 10
REMARK VINA RESULT:      -7.8      4.744      9.030
REMARK  8 active torsions:
REMARK  status: ('A' for Active; 'I' for Inactive)
REMARK    1  A    between atoms: C_4  and  N_5 
REMARK    2  A    between atoms: N_5  and  S_6 
REMARK    3  A    between atoms: S_6  and  C_7 
REMARK    4  A    between atoms: C_13  and  C_14 
REMARK       I    between atoms: C_14  and  N_15 
REMARK    5  A    between atoms: N_15  and  C_16 
REMARK    6  A    between atoms: C_16  and  C_17 
REMARK    7  A    between atoms: C_17  and  C_18 
REMARK    8  A    between atoms: C_18  and  O_19 
ROOT
HETATM    1  C   UNL     1      41.287 -15.102   2.225  1.00  0.00     0.081 A 
HETATM    2  C   UNL     1      41.949 -14.440   3.262  1.00  0.00     0.043 A 
HETATM    3  C   UNL     1      41.294 -13.404   3.934  1.00  0.00     0.043 A 
HETATM    4  C   UNL     1      39.980 -13.038   3.593  1.00  0.00     0.046 A 
HETATM    5  N   UNL     1      39.365 -11.967   4.250  1.00  0.00    -0.364 N 
HETATM    6  C   UNL     1      40.000 -11.311   5.274  1.00  0.00     0.109 A 
HETATM    7  C   UNL     1      41.244 -11.569   5.711  1.00  0.00     0.098 A 
HETATM    8  C   UNL     1      41.984 -12.668   5.029  1.00  0.00     0.201 A 
HETATM    9  O   UNL     1      43.132 -12.970   5.345  1.00  0.00    -0.286 OA
HETATM   10  C   UNL     1      39.332 -13.716   2.555  1.00  0.00     0.032 A 
HETATM   11  C   UNL     1      39.977 -14.756   1.878  1.00  0.00     0.027 A 
HETATM   12  H   UNL     1      38.378 -11.785   4.097  1.00  0.00     0.165 HD
ENDROOT
BRANCH   1  13
HETATM   13  S   UNL     1      42.108 -16.437   1.380  1.00  0.00     0.263 S 
HETATM   14  O   UNL     1      43.534 -16.204   1.462  1.00  0.00    -0.200 OA
HETATM   15  O   UNL     1      41.447 -16.604   0.103  1.00  0.00    -0.200 OA
BRANCH  13  16
HETATM   16  N   UNL     1      41.687 -17.783   2.309  1.00  0.00    -0.281 N 
HETATM   17  H   UNL     1      40.891 -17.603   2.918  1.00  0.00     0.179 HD
BRANCH  16  18
HETATM   18  C   UNL     1      42.716 -18.635   2.796  1.00  0.00     0.043 A 
HETATM   19  C   UNL     1      43.094 -19.757   2.057  1.00  0.00     0.037 A 
HETATM   20  C   UNL     1      44.078 -20.622   2.550  1.00  0.00    -0.059 A 
HETATM   21  C   UNL     1      44.506 -21.831   1.771  1.00  0.00     0.048 C 
HETATM   22  C   UNL     1      44.689 -20.335   3.779  1.00  0.00     0.013 A 
HETATM   23  C   UNL     1      44.311 -19.212   4.526  1.00  0.00    -0.059 A 
HETATM   24  C   UNL     1      43.315 -18.367   4.026  1.00  0.00     0.037 A 
HETATM   25  C   UNL     1      44.995 -18.908   5.827  1.00  0.00     0.048 C 
ENDBRANCH  16  18
ENDBRANCH  13  16
ENDBRANCH   1  13
BRANCH   7  26
HETATM   26  C   UNL     1      41.793 -10.739   6.823  1.00  0.00     0.257 C 
HETATM   27  N   UNL     1      42.214 -11.437   7.926  1.00  0.00    -0.357 N 
HETATM   28  H   UNL     1      42.130 -12.455   7.917  1.00  0.00     0.162 HD
HETATM   29  O   UNL     1      41.864  -9.515   6.738  1.00  0.00    -0.267 OA
BRANCH  27  30
HETATM   30  C   UNL     1      42.815 -10.796   9.074  1.00  0.00     0.125 C 
BRANCH  30  31
HETATM   31  C   UNL     1      41.865 -10.721  10.264  1.00  0.00     0.046 C 
BRANCH  31  32
HETATM   32  C   UNL     1      41.276  -9.323  10.404  1.00  0.00     0.168 C 
BRANCH  32  33
HETATM   33  O   UNL     1      40.183  -9.193   9.497  1.00  0.00    -0.396 OA
HETATM   34  C   UNL     1      39.203 -10.201   9.709  1.00  0.00     0.201 C 
ENDBRANCH  32  33
ENDBRANCH  31  32
ENDBRANCH  30  31
ENDBRANCH  27  30
ENDBRANCH   7  26
TORSDOF 8
ENDMDL
