MODEL 1
REMARK VINA RESULT:      -9.1      0.000      0.000
REMARK  8 active torsions:
REMARK  status: ('A' for Active; 'I' for Inactive)
REMARK    1  A    between atoms: O_2  and  C_3 
REMARK    2  A    between atoms: C_5  and  N_6 
REMARK       I    between atoms: N_6  and  C_7 
REMARK    3  A    between atoms: C_7  and  C_8 
REMARK    4  A    between atoms: C_8  and  O_9 
REMARK    5  A    between atoms: O_9  and  C_10 
REMARK    6  A    between atoms: C_13  and  C_14 
REMARK       I    between atoms: C_14  and  N_15 
REMARK    7  A    between atoms: N_15  and  C_16 
REMARK    8  A    between atoms: C_19  and  N_20 
ROOT
HETATM    1  C   UNL     1      39.654 -10.722   6.734  1.00  0.00     0.069 A 
HETATM    2  C   UNL     1      39.304 -12.068   6.806  1.00  0.00     0.038 A 
HETATM    3  C   UNL     1      40.147 -13.037   6.248  1.00  0.00     0.020 A 
HETATM    4  C   UNL     1      41.338 -12.669   5.609  1.00  0.00     0.032 A 
HETATM    5  C   UNL     1      41.655 -11.308   5.496  1.00  0.00     0.020 A 
HETATM    6  C   UNL     1      40.804 -10.344   6.040  1.00  0.00     0.038 A 
ENDROOT
BRANCH   4   7
HETATM    7  C   UNL     1      42.298 -13.748   5.207  1.00  0.00     0.256 C 
HETATM    8  N   UNL     1      42.298 -14.876   6.005  1.00  0.00    -0.323 N 
HETATM    9  H   UNL     1      41.914 -14.794   6.936  1.00  0.00     0.169 HD
HETATM   10  O   UNL     1      42.978 -13.579   4.201  1.00  0.00    -0.267 OA
BRANCH   8  11
HETATM   11  C   UNL     1      42.642 -16.184   5.604  1.00  0.00     0.035 A 
HETATM   12  C   UNL     1      43.829 -16.819   5.954  1.00  0.00     0.032 A 
HETATM   13  C   UNL     1      44.182 -18.044   5.367  1.00  0.00     0.031 A 
HETATM   14  C   UNL     1      43.368 -18.671   4.417  1.00  0.00     0.030 A 
HETATM   15  C   UNL     1      42.148 -18.042   4.123  1.00  0.00     0.031 A 
HETATM   16  C   UNL     1      41.784 -16.822   4.707  1.00  0.00     0.032 A 
BRANCH  14  17
HETATM   17  N   UNL     1      43.753 -19.808   3.708  1.00  0.00    -0.381 N 
HETATM   18  C   UNL     1      44.876 -20.587   4.251  1.00  0.00     0.123 C 
HETATM   19  C   UNL     1      44.731 -22.043   3.805  1.00  0.00     0.020 C 
HETATM   20  C   UNL     1      44.626 -22.151   2.285  1.00  0.00     0.003 C 
HETATM   21  C   UNL     1      43.517 -21.249   1.748  1.00  0.00     0.020 C 
HETATM   22  C   UNL     1      43.668 -19.810   2.243  1.00  0.00     0.123 C 
ENDBRANCH  14  17
ENDBRANCH   8  11
ENDBRANCH   4   7
BRANCH   1  23
HETATM   23  O   UNL     1      39.017  -9.692   7.369  1.00  0.00    -0.342 OA
BRANCH  23  24
HETATM   24  C   UNL     1      38.949  -9.733   8.791  1.00  0.00     0.278 C 
BRANCH  24  25
HETATM   25  C   UNL     1      40.071 -10.461   9.562  1.00  0.00     0.246 C 
HETATM   26  N   UNL     1      41.322  -9.898   9.378  1.00  0.00    -0.325 N 
HETATM   27  H   UNL     1      41.352  -9.095   8.762  1.00  0.00     0.169 HD
HETATM   28  O   UNL     1      39.809 -11.440  10.257  1.00  0.00    -0.271 OA
BRANCH  26  29
HETATM   29  C   UNL     1      42.571 -10.392   9.805  1.00  0.00     0.037 A 
HETATM   30  C   UNL     1      43.364 -11.266   9.057  1.00  0.00     0.066 A 
HETATM   31  C   UNL     1      44.605 -11.690   9.544  1.00  0.00     0.070 A 
HETATM   32  C   UNL     1      45.057 -11.222  10.780  1.00  0.00     0.037 A 
HETATM   33  C   UNL     1      44.275 -10.353  11.534  1.00  0.00     0.005 A 
HETATM   34  C   UNL     1      43.031  -9.947  11.051  1.00  0.00     0.029 A 
BRANCH  31  35
HETATM   35  O   UNL     1      45.468 -12.548   8.913  1.00  0.00    -0.356 OA
HETATM   36  C   UNL     1      44.913 -13.395   7.915  1.00  0.00     0.210 C 
ENDBRANCH  31  35
ENDBRANCH  26  29
ENDBRANCH  24  25
ENDBRANCH  23  24
ENDBRANCH   1  23
TORSDOF 8
ENDMDL
MODEL 2
REMARK VINA RESULT:      -8.6      4.849      8.850
REMARK  8 active torsions:
REMARK  status: ('A' for Active; 'I' for Inactive)
REMARK    1  A    between atoms: O_2  and  C_3 
REMARK    2  A    between atoms: C_5  and  N_6 
REMARK       I    between atoms: N_6  and  C_7 
REMARK    3  A    between atoms: C_7  and  C_8 
REMARK    4  A    between atoms: C_8  and  O_9 
REMARK    5  A    between atoms: O_9  and  C_10 
REMARK    6  A    between atoms: C_13  and  C_14 
REMARK       I    between atoms: C_14  and  N_15 
REMARK    7  A    between atoms: N_15  and  C_16 
REMARK    8  A    between atoms: C_19  and  N_20 
ROOT
HETATM    1  C   UNL     1      43.175 -16.684   7.710  1.00  0.00     0.069 A 
HETATM    2  C   UNL     1      41.997 -16.867   6.990  1.00  0.00     0.038 A 
HETATM    3  C   UNL     1      41.772 -16.125   5.824  1.00  0.00     0.020 A 
HETATM    4  C   UNL     1      42.716 -15.192   5.375  1.00  0.00     0.032 A 
HETATM    5  C   UNL     1      43.874 -14.978   6.134  1.00  0.00     0.020 A 
HETATM    6  C   UNL     1      44.088 -15.708   7.306  1.00  0.00     0.038 A 
ENDROOT
BRANCH   4   7
HETATM    7  C   UNL     1      42.522 -14.573   4.024  1.00  0.00     0.256 C 
HETATM    8  N   UNL     1      41.728 -15.287   3.146  1.00  0.00    -0.323 N 
HETATM    9  H   UNL     1      41.592 -16.270   3.329  1.00  0.00     0.169 HD
HETATM   10  O   UNL     1      43.037 -13.483   3.802  1.00  0.00    -0.267 OA
BRANCH   8  11
HETATM   11  C   UNL     1      40.956 -14.753   2.094  1.00  0.00     0.035 A 
HETATM   12  C   UNL     1      39.585 -14.527   2.171  1.00  0.00     0.032 A 
HETATM   13  C   UNL     1      38.857 -14.169   1.026  1.00  0.00     0.031 A 
HETATM   14  C   UNL     1      39.468 -14.026  -0.226  1.00  0.00     0.030 A 
HETATM   15  C   UNL     1      40.859 -14.201  -0.267  1.00  0.00     0.031 A 
HETATM   16  C   UNL     1      41.596 -14.554   0.870  1.00  0.00     0.032 A 
BRANCH  14  17
HETATM   17  N   UNL     1      38.756 -13.816  -1.406  1.00  0.00    -0.381 N 
HETATM   18  C   UNL     1      38.996 -14.758  -2.509  1.00  0.00     0.123 C 
HETATM   19  C   UNL     1      37.748 -14.819  -3.391  1.00  0.00     0.020 C 
HETATM   20  C   UNL     1      37.349 -13.430  -3.885  1.00  0.00     0.003 C 
HETATM   21  C   UNL     1      37.211 -12.452  -2.720  1.00  0.00     0.020 C 
HETATM   22  C   UNL     1      38.459 -12.444  -1.837  1.00  0.00     0.123 C 
ENDBRANCH  14  17
ENDBRANCH   8  11
ENDBRANCH   4   7
BRANCH   1  23
HETATM   23  O   UNL     1      43.599 -17.446   8.764  1.00  0.00    -0.342 OA
BRANCH  23  24
HETATM   24  C   UNL     1      44.408 -18.581   8.476  1.00  0.00     0.278 C 
BRANCH  24  25
HETATM   25  C   UNL     1      44.021 -19.480   7.282  1.00  0.00     0.246 C 
HETATM   26  N   UNL     1      44.654 -19.130   6.102  1.00  0.00    -0.325 N 
HETATM   27  H   UNL     1      45.277 -18.334   6.160  1.00  0.00     0.169 HD
HETATM   28  O   UNL     1      43.223 -20.401   7.435  1.00  0.00    -0.271 OA
BRANCH  26  29
HETATM   29  C   UNL     1      44.421 -19.634   4.806  1.00  0.00     0.037 A 
HETATM   30  C   UNL     1      43.792 -18.912   3.787  1.00  0.00     0.066 A 
HETATM   31  C   UNL     1      43.622 -19.478   2.519  1.00  0.00     0.070 A 
HETATM   32  C   UNL     1      44.097 -20.767   2.270  1.00  0.00     0.037 A 
HETATM   33  C   UNL     1      44.723 -21.496   3.277  1.00  0.00     0.005 A 
HETATM   34  C   UNL     1      44.875 -20.933   4.545  1.00  0.00     0.029 A 
BRANCH  31  35
HETATM   35  O   UNL     1      43.018 -18.880   1.445  1.00  0.00    -0.356 OA
HETATM   36  C   UNL     1      43.580 -17.654   0.994  1.00  0.00     0.210 C 
ENDBRANCH  31  35
ENDBRANCH  26  29
ENDBRANCH  24  25
ENDBRANCH  23  24
ENDBRANCH   1  23
TORSDOF 8
ENDMDL
MODEL 3
REMARK VINA RESULT:      -8.6      1.328      2.122
REMARK  8 active torsions:
REMARK  status: ('A' for Active; 'I' for Inactive)
REMARK    1  A    between atoms: O_2  and  C_3 
REMARK    2  A    between atoms: C_5  and  N_6 
REMARK       I    between atoms: N_6  and  C_7 
REMARK    3  A    between atoms: C_7  and  C_8 
REMARK    4  A    between atoms: C_8  and  O_9 
REMARK    5  A    between atoms: O_9  and  C_10 
REMARK    6  A    between atoms: C_13  and  C_14 
REMARK       I    between atoms: C_14  and  N_15 
REMARK    7  A    between atoms: N_15  and  C_16 
REMARK    8  A    between atoms: C_19  and  N_20 
ROOT
HETATM    1  C   UNL     1      39.525 -10.761   6.141  1.00  0.00     0.069 A 
HETATM    2  C   UNL     1      39.420 -12.110   6.471  1.00  0.00     0.038 A 
HETATM    3  C   UNL     1      40.389 -13.015   6.017  1.00  0.00     0.020 A 
HETATM    4  C   UNL     1      41.461 -12.580   5.227  1.00  0.00     0.032 A 
HETATM    5  C   UNL     1      41.528 -11.230   4.857  1.00  0.00     0.020 A 
HETATM    6  C   UNL     1      40.552 -10.334   5.297  1.00  0.00     0.038 A 
ENDROOT
BRANCH   4   7
HETATM    7  C   UNL     1      42.572 -13.544   4.936  1.00  0.00     0.256 C 
HETATM    8  N   UNL     1      42.379 -14.835   5.390  1.00  0.00    -0.323 N 
HETATM    9  H   UNL     1      41.697 -14.979   6.122  1.00  0.00     0.169 HD
HETATM   10  O   UNL     1      43.539 -13.144   4.299  1.00  0.00    -0.267 OA
BRANCH   8  11
HETATM   11  C   UNL     1      42.927 -16.008   4.833  1.00  0.00     0.035 A 
HETATM   12  C   UNL     1      42.823 -16.354   3.489  1.00  0.00     0.032 A 
HETATM   13  C   UNL     1      43.232 -17.621   3.046  1.00  0.00     0.031 A 
HETATM   14  C   UNL     1      43.755 -18.579   3.923  1.00  0.00     0.030 A 
HETATM   15  C   UNL     1      43.906 -18.187   5.262  1.00  0.00     0.031 A 
HETATM   16  C   UNL     1      43.505 -16.923   5.713  1.00  0.00     0.032 A 
BRANCH  14  17
HETATM   17  N   UNL     1      44.034 -19.892   3.547  1.00  0.00    -0.381 N 
HETATM   18  C   UNL     1      45.075 -20.600   4.307  1.00  0.00     0.123 C 
HETATM   19  C   UNL     1      44.795 -22.102   4.251  1.00  0.00     0.020 C 
HETATM   20  C   UNL     1      44.687 -22.595   2.809  1.00  0.00     0.003 C 
HETATM   21  C   UNL     1      43.673 -21.768   2.022  1.00  0.00     0.020 C 
HETATM   22  C   UNL     1      43.957 -20.269   2.130  1.00  0.00     0.123 C 
ENDBRANCH  14  17
ENDBRANCH   8  11
ENDBRANCH   4   7
BRANCH   1  23
HETATM   23  O   UNL     1      38.752  -9.749   6.641  1.00  0.00    -0.342 OA
BRANCH  23  24
HETATM   24  C   UNL     1      39.343  -8.881   7.602  1.00  0.00     0.278 C 
BRANCH  24  25
HETATM   25  C   UNL     1      39.990  -9.502   8.859  1.00  0.00     0.246 C 
HETATM   26  N   UNL     1      41.353  -9.281   8.944  1.00  0.00    -0.325 N 
HETATM   27  H   UNL     1      41.758  -8.755   8.179  1.00  0.00     0.169 HD
HETATM   28  O   UNL     1      39.301 -10.120   9.668  1.00  0.00    -0.271 OA
BRANCH  26  29
HETATM   29  C   UNL     1      42.269  -9.826   9.866  1.00  0.00     0.037 A 
HETATM   30  C   UNL     1      42.425  -9.367  11.178  1.00  0.00     0.066 A 
HETATM   31  C   UNL     1      43.341  -9.982  12.039  1.00  0.00     0.070 A 
HETATM   32  C   UNL     1      44.091 -11.069  11.585  1.00  0.00     0.037 A 
HETATM   33  C   UNL     1      43.945 -11.533  10.282  1.00  0.00     0.005 A 
HETATM   34  C   UNL     1      43.043 -10.906   9.422  1.00  0.00     0.029 A 
BRANCH  31  35
HETATM   35  O   UNL     1      43.592  -9.623  13.337  1.00  0.00    -0.356 OA
HETATM   36  C   UNL     1      42.585  -9.929  14.293  1.00  0.00     0.210 C 
ENDBRANCH  31  35
ENDBRANCH  26  29
ENDBRANCH  24  25
ENDBRANCH  23  24
ENDBRANCH   1  23
TORSDOF 8
ENDMDL
MODEL 4
REMARK VINA RESULT:      -8.5      1.383      2.216
REMARK  8 active torsions:
REMARK  status: ('A' for Active; 'I' for Inactive)
REMARK    1  A    between atoms: O_2  and  C_3 
REMARK    2  A    between atoms: C_5  and  N_6 
REMARK       I    between atoms: N_6  and  C_7 
REMARK    3  A    between atoms: C_7  and  C_8 
REMARK    4  A    between atoms: C_8  and  O_9 
REMARK    5  A    between atoms: O_9  and  C_10 
REMARK    6  A    between atoms: C_13  and  C_14 
REMARK       I    between atoms: C_14  and  N_15 
REMARK    7  A    between atoms: N_15  and  C_16 
REMARK    8  A    between atoms: C_19  and  N_20 
ROOT
HETATM    1  C   UNL     1      39.167  -9.889   8.968  1.00  0.00     0.069 A 
HETATM    2  C   UNL     1      39.015 -11.273   8.987  1.00  0.00     0.038 A 
HETATM    3  C   UNL     1      39.452 -12.036   7.896  1.00  0.00     0.020 A 
HETATM    4  C   UNL     1      40.034 -11.422   6.779  1.00  0.00     0.032 A 
HETATM    5  C   UNL     1      40.134 -10.024   6.748  1.00  0.00     0.020 A 
HETATM    6  C   UNL     1      39.683  -9.265   7.830  1.00  0.00     0.038 A 
ENDROOT
BRANCH   4   7
HETATM    7  C   UNL     1      40.663 -12.291   5.733  1.00  0.00     0.256 C 
HETATM    8  N   UNL     1      41.513 -13.274   6.202  1.00  0.00    -0.323 N 
HETATM    9  H   UNL     1      41.892 -13.164   7.132  1.00  0.00     0.169 HD
HETATM   10  O   UNL     1      40.364 -12.101   4.559  1.00  0.00    -0.267 OA
BRANCH   8  11
HETATM   11  C   UNL     1      41.793 -14.506   5.576  1.00  0.00     0.035 A 
HETATM   12  C   UNL     1      41.179 -15.709   5.914  1.00  0.00     0.032 A 
HETATM   13  C   UNL     1      41.641 -16.920   5.376  1.00  0.00     0.031 A 
HETATM   14  C   UNL     1      42.723 -16.971   4.489  1.00  0.00     0.030 A 
HETATM   15  C   UNL     1      43.287 -15.742   4.117  1.00  0.00     0.031 A 
HETATM   16  C   UNL     1      42.831 -14.527   4.645  1.00  0.00     0.032 A 
BRANCH  14  17
HETATM   17  N   UNL     1      43.299 -18.163   4.051  1.00  0.00    -0.381 N 
HETATM   18  C   UNL     1      42.766 -18.750   2.813  1.00  0.00     0.123 C 
HETATM   19  C   UNL     1      43.861 -19.583   2.146  1.00  0.00     0.020 C 
HETATM   20  C   UNL     1      44.416 -20.638   3.101  1.00  0.00     0.003 C 
HETATM   21  C   UNL     1      44.864 -20.005   4.416  1.00  0.00     0.020 C 
HETATM   22  C   UNL     1      43.760 -19.148   5.037  1.00  0.00     0.123 C 
ENDBRANCH  14  17
ENDBRANCH   8  11
ENDBRANCH   4   7
BRANCH   1  23
HETATM   23  O   UNL     1      38.938  -9.041  10.017  1.00  0.00    -0.342 OA
BRANCH  23  24
HETATM   24  C   UNL     1      39.967  -8.903  10.991  1.00  0.00     0.278 C 
BRANCH  24  25
HETATM   25  C   UNL     1      41.079  -9.973  11.046  1.00  0.00     0.246 C 
HETATM   26  N   UNL     1      42.131  -9.720  10.182  1.00  0.00    -0.325 N 
HETATM   27  H   UNL     1      42.042  -8.882   9.620  1.00  0.00     0.169 HD
HETATM   28  O   UNL     1      40.978 -10.931  11.808  1.00  0.00    -0.271 OA
BRANCH  26  29
HETATM   29  C   UNL     1      43.223 -10.554   9.871  1.00  0.00     0.037 A 
HETATM   30  C   UNL     1      43.204 -11.525   8.865  1.00  0.00     0.066 A 
HETATM   31  C   UNL     1      44.342 -12.296   8.603  1.00  0.00     0.070 A 
HETATM   32  C   UNL     1      45.505 -12.082   9.345  1.00  0.00     0.037 A 
HETATM   33  C   UNL     1      45.535 -11.120  10.350  1.00  0.00     0.005 A 
HETATM   34  C   UNL     1      44.393 -10.365  10.618  1.00  0.00     0.029 A 
BRANCH  31  35
HETATM   35  O   UNL     1      44.447 -13.280   7.655  1.00  0.00    -0.356 OA
HETATM   36  C   UNL     1      45.700 -13.399   6.993  1.00  0.00     0.210 C 
ENDBRANCH  31  35
ENDBRANCH  26  29
ENDBRANCH  24  25
ENDBRANCH  23  24
ENDBRANCH   1  23
TORSDOF 8
ENDMDL
MODEL 5
REMARK VINA RESULT:      -8.4      2.617     10.096
REMARK  8 active torsions:
REMARK  status: ('A' for Active; 'I' for Inactive)
REMARK    1  A    between atoms: O_2  and  C_3 
REMARK    2  A    between atoms: C_5  and  N_6 
REMARK       I    between atoms: N_6  and  C_7 
REMARK    3  A    between atoms: C_7  and  C_8 
REMARK    4  A    between atoms: C_8  and  O_9 
REMARK    5  A    between atoms: O_9  and  C_10 
REMARK    6  A    between atoms: C_13  and  C_14 
REMARK       I    between atoms: C_14  and  N_15 
REMARK    7  A    between atoms: N_15  and  C_16 
REMARK    8  A    between atoms: C_19  and  N_20 
ROOT
HETATM    1  C   UNL     1      39.933 -14.693   3.159  1.00  0.00     0.069 A 
HETATM    2  C   UNL     1      40.438 -14.874   4.444  1.00  0.00     0.038 A 
HETATM    3  C   UNL     1      40.463 -13.798   5.340  1.00  0.00     0.020 A 
HETATM    4  C   UNL     1      39.992 -12.535   4.957  1.00  0.00     0.032 A 
HETATM    5  C   UNL     1      39.534 -12.351   3.645  1.00  0.00     0.020 A 
HETATM    6  C   UNL     1      39.527 -13.422   2.749  1.00  0.00     0.038 A 
ENDROOT
BRANCH   4   7
HETATM    7  C   UNL     1      39.855 -11.474   6.007  1.00  0.00     0.256 C 
HETATM    8  N   UNL     1      39.884 -11.919   7.315  1.00  0.00    -0.323 N 
HETATM    9  H   UNL     1      39.688 -12.895   7.484  1.00  0.00     0.169 HD
HETATM   10  O   UNL     1      39.763 -10.306   5.647  1.00  0.00    -0.267 OA
BRANCH   8  11
HETATM   11  C   UNL     1      40.313 -11.182   8.439  1.00  0.00     0.035 A 
HETATM   12  C   UNL     1      41.596 -10.666   8.588  1.00  0.00     0.032 A 
HETATM   13  C   UNL     1      42.002 -10.106   9.809  1.00  0.00     0.031 A 
HETATM   14  C   UNL     1      41.145 -10.044  10.915  1.00  0.00     0.030 A 
HETATM   15  C   UNL     1      39.838 -10.517  10.723  1.00  0.00     0.031 A 
HETATM   16  C   UNL     1      39.423 -11.073   9.507  1.00  0.00     0.032 A 
BRANCH  14  17
HETATM   17  N   UNL     1      41.558  -9.631  12.182  1.00  0.00    -0.381 N 
HETATM   18  C   UNL     1      42.721 -10.316  12.764  1.00  0.00     0.123 C 
HETATM   19  C   UNL     1      43.418  -9.367  13.741  1.00  0.00     0.020 C 
HETATM   20  C   UNL     1      42.449  -8.855  14.805  1.00  0.00     0.003 C 
HETATM   21  C   UNL     1      41.205  -8.244  14.163  1.00  0.00     0.020 C 
HETATM   22  C   UNL     1      40.555  -9.202  13.164  1.00  0.00     0.123 C 
ENDBRANCH  14  17
ENDBRANCH   8  11
ENDBRANCH   4   7
BRANCH   1  23
HETATM   23  O   UNL     1      39.699 -15.680   2.242  1.00  0.00    -0.342 OA
BRANCH  23  24
HETATM   24  C   UNL     1      40.697 -15.913   1.254  1.00  0.00     0.278 C 
BRANCH  24  25
HETATM   25  C   UNL     1      42.033 -16.552   1.691  1.00  0.00     0.246 C 
HETATM   26  N   UNL     1      41.899 -17.853   2.145  1.00  0.00    -0.325 N 
HETATM   27  H   UNL     1      40.955 -18.220   2.145  1.00  0.00     0.169 HD
HETATM   28  O   UNL     1      43.079 -15.912   1.614  1.00  0.00    -0.271 OA
BRANCH  26  29
HETATM   29  C   UNL     1      42.875 -18.668   2.752  1.00  0.00     0.037 A 
HETATM   30  C   UNL     1      43.347 -18.484   4.056  1.00  0.00     0.066 A 
HETATM   31  C   UNL     1      44.301 -19.355   4.594  1.00  0.00     0.070 A 
HETATM   32  C   UNL     1      44.772 -20.421   3.824  1.00  0.00     0.037 A 
HETATM   33  C   UNL     1      44.311 -20.612   2.525  1.00  0.00     0.005 A 
HETATM   34  C   UNL     1      43.372 -19.732   1.989  1.00  0.00     0.029 A 
BRANCH  31  35
HETATM   35  O   UNL     1      44.846 -19.277   5.848  1.00  0.00    -0.356 OA
HETATM   36  C   UNL     1      44.965 -17.979   6.416  1.00  0.00     0.210 C 
ENDBRANCH  31  35
ENDBRANCH  26  29
ENDBRANCH  24  25
ENDBRANCH  23  24
ENDBRANCH   1  23
TORSDOF 8
ENDMDL
MODEL 6
REMARK VINA RESULT:      -8.2      4.831      9.170
REMARK  8 active torsions:
REMARK  status: ('A' for Active; 'I' for Inactive)
REMARK    1  A    between atoms: O_2  and  C_3 
REMARK    2  A    between atoms: C_5  and  N_6 
REMARK       I    between atoms: N_6  and  C_7 
REMARK    3  A    between atoms: C_7  and  C_8 
REMARK    4  A    between atoms: C_8  and  O_9 
REMARK    5  A    between atoms: O_9  and  C_10 
REMARK    6  A    between atoms: C_13  and  C_14 
REMARK       I    between atoms: C_14  and  N_15 
REMARK    7  A    between atoms: N_15  and  C_16 
REMARK    8  A    between atoms: C_19  and  N_20 
ROOT
HETATM    1  C   UNL     1      43.061 -16.628   7.430  1.00  0.00     0.069 A 
HETATM    2  C   UNL     1      42.107 -16.795   6.429  1.00  0.00     0.038 A 
HETATM    3  C   UNL     1      42.196 -16.045   5.250  1.00  0.00     0.020 A 
HETATM    4  C   UNL     1      43.232 -15.120   5.066  1.00  0.00     0.032 A 
HETATM    5  C   UNL     1      44.156 -14.921   6.100  1.00  0.00     0.020 A 
HETATM    6  C   UNL     1      44.055 -15.659   7.282  1.00  0.00     0.038 A 
ENDROOT
BRANCH   4   7
HETATM    7  C   UNL     1      43.398 -14.491   3.715  1.00  0.00     0.256 C 
HETATM    8  N   UNL     1      42.534 -14.942   2.735  1.00  0.00    -0.323 N 
HETATM    9  H   UNL     1      42.083 -15.834   2.880  1.00  0.00     0.169 HD
HETATM   10  O   UNL     1      44.243 -13.615   3.579  1.00  0.00    -0.267 OA
BRANCH   8  11
HETATM   11  C   UNL     1      42.092 -14.214   1.611  1.00  0.00     0.035 A 
HETATM   12  C   UNL     1      41.789 -14.790   0.381  1.00  0.00     0.032 A 
HETATM   13  C   UNL     1      41.535 -13.983  -0.739  1.00  0.00     0.031 A 
HETATM   14  C   UNL     1      41.575 -12.585  -0.670  1.00  0.00     0.030 A 
HETATM   15  C   UNL     1      41.824 -12.028   0.593  1.00  0.00     0.031 A 
HETATM   16  C   UNL     1      42.075 -12.824   1.719  1.00  0.00     0.032 A 
BRANCH  14  17
HETATM   17  N   UNL     1      41.473 -11.759  -1.788  1.00  0.00    -0.381 N 
HETATM   18  C   UNL     1      40.854 -10.439  -1.591  1.00  0.00     0.123 C 
HETATM   19  C   UNL     1      41.405  -9.472  -2.640  1.00  0.00     0.020 C 
HETATM   20  C   UNL     1      41.198 -10.009  -4.055  1.00  0.00     0.003 C 
HETATM   21  C   UNL     1      41.761 -11.422  -4.192  1.00  0.00     0.020 C 
HETATM   22  C   UNL     1      41.221 -12.354  -3.106  1.00  0.00     0.123 C 
ENDBRANCH  14  17
ENDBRANCH   8  11
ENDBRANCH   4   7
BRANCH   1  23
HETATM   23  O   UNL     1      43.192 -17.399   8.552  1.00  0.00    -0.342 OA
BRANCH  23  24
HETATM   24  C   UNL     1      44.132 -18.467   8.513  1.00  0.00     0.278 C 
BRANCH  24  25
HETATM   25  C   UNL     1      43.974 -19.551   7.424  1.00  0.00     0.246 C 
HETATM   26  N   UNL     1      44.546 -19.202   6.213  1.00  0.00    -0.325 N 
HETATM   27  H   UNL     1      44.984 -18.290   6.184  1.00  0.00     0.169 HD
HETATM   28  O   UNL     1      43.386 -20.600   7.677  1.00  0.00    -0.271 OA
BRANCH  26  29
HETATM   29  C   UNL     1      44.457 -19.880   4.981  1.00  0.00     0.037 A 
HETATM   30  C   UNL     1      44.115 -19.265   3.773  1.00  0.00     0.066 A 
HETATM   31  C   UNL     1      44.073 -20.007   2.587  1.00  0.00     0.070 A 
HETATM   32  C   UNL     1      44.390 -21.367   2.614  1.00  0.00     0.037 A 
HETATM   33  C   UNL     1      44.730 -21.990   3.810  1.00  0.00     0.005 A 
HETATM   34  C   UNL     1      44.754 -21.249   4.992  1.00  0.00     0.029 A 
BRANCH  31  35
HETATM   35  O   UNL     1      43.746 -19.526   1.347  1.00  0.00    -0.356 OA
HETATM   36  C   UNL     1      43.533 -18.124   1.239  1.00  0.00     0.210 C 
ENDBRANCH  31  35
ENDBRANCH  26  29
ENDBRANCH  24  25
ENDBRANCH  23  24
ENDBRANCH   1  23
TORSDOF 8
ENDMDL
MODEL 7
REMARK VINA RESULT:      -8.1      2.829     10.005
REMARK  8 active torsions:
REMARK  status: ('A' for Active; 'I' for Inactive)
REMARK    1  A    between atoms: O_2  and  C_3 
REMARK    2  A    between atoms: C_5  and  N_6 
REMARK       I    between atoms: N_6  and  C_7 
REMARK    3  A    between atoms: C_7  and  C_8 
REMARK    4  A    between atoms: C_8  and  O_9 
REMARK    5  A    between atoms: O_9  and  C_10 
REMARK    6  A    between atoms: C_13  and  C_14 
REMARK       I    between atoms: C_14  and  N_15 
REMARK    7  A    between atoms: N_15  and  C_16 
REMARK    8  A    between atoms: C_19  and  N_20 
ROOT
HETATM    1  C   UNL     1      41.334 -13.526   2.134  1.00  0.00     0.069 A 
HETATM    2  C   UNL     1      40.058 -13.067   2.449  1.00  0.00     0.038 A 
HETATM    3  C   UNL     1      39.843 -12.374   3.647  1.00  0.00     0.020 A 
HETATM    4  C   UNL     1      40.897 -12.142   4.540  1.00  0.00     0.032 A 
HETATM    5  C   UNL     1      42.167 -12.653   4.238  1.00  0.00     0.020 A 
HETATM    6  C   UNL     1      42.374 -13.359   3.050  1.00  0.00     0.038 A 
ENDROOT
BRANCH   4   7
HETATM    7  C   UNL     1      40.661 -11.228   5.704  1.00  0.00     0.256 C 
HETATM    8  N   UNL     1      40.707 -11.823   6.951  1.00  0.00    -0.323 N 
HETATM    9  H   UNL     1      40.587 -12.825   6.999  1.00  0.00     0.169 HD
HETATM   10  O   UNL     1      40.482 -10.036   5.484  1.00  0.00    -0.267 OA
BRANCH   8  11
HETATM   11  C   UNL     1      41.060 -11.196   8.164  1.00  0.00     0.035 A 
HETATM   12  C   UNL     1      42.365 -10.883   8.528  1.00  0.00     0.032 A 
HETATM   13  C   UNL     1      42.655 -10.430   9.824  1.00  0.00     0.031 A 
HETATM   14  C   UNL     1      41.657 -10.276  10.794  1.00  0.00     0.030 A 
HETATM   15  C   UNL     1      40.341 -10.541  10.387  1.00  0.00     0.031 A 
HETATM   16  C   UNL     1      40.041 -10.989   9.094  1.00  0.00     0.032 A 
BRANCH  14  17
HETATM   17  N   UNL     1      41.925  -9.971  12.128  1.00  0.00    -0.381 N 
HETATM   18  C   UNL     1      43.325 -10.060  12.567  1.00  0.00     0.123 C 
HETATM   19  C   UNL     1      43.539  -9.105  13.742  1.00  0.00     0.020 C 
HETATM   20  C   UNL     1      42.552  -9.385  14.874  1.00  0.00     0.003 C 
HETATM   21  C   UNL     1      41.115  -9.387  14.359  1.00  0.00     0.020 C 
HETATM   22  C   UNL     1      40.943 -10.322  13.161  1.00  0.00     0.123 C 
ENDBRANCH  14  17
ENDBRANCH   8  11
ENDBRANCH   4   7
BRANCH   1  23
HETATM   23  O   UNL     1      41.721 -14.069   0.940  1.00  0.00    -0.342 OA
BRANCH  23  24
HETATM   24  C   UNL     1      41.155 -15.321   0.570  1.00  0.00     0.278 C 
BRANCH  24  25
HETATM   25  C   UNL     1      41.392 -16.539   1.490  1.00  0.00     0.246 C 
HETATM   26  N   UNL     1      42.705 -16.665   1.909  1.00  0.00    -0.325 N 
HETATM   27  H   UNL     1      43.344 -15.961   1.560  1.00  0.00     0.169 HD
HETATM   28  O   UNL     1      40.459 -17.283   1.784  1.00  0.00    -0.271 OA
BRANCH  26  29
HETATM   29  C   UNL     1      43.293 -17.729   2.621  1.00  0.00     0.037 A 
HETATM   30  C   UNL     1      43.748 -18.911   2.028  1.00  0.00     0.066 A 
HETATM   31  C   UNL     1      44.344 -19.911   2.805  1.00  0.00     0.070 A 
HETATM   32  C   UNL     1      44.496 -19.715   4.180  1.00  0.00     0.037 A 
HETATM   33  C   UNL     1      44.046 -18.544   4.781  1.00  0.00     0.005 A 
HETATM   34  C   UNL     1      43.437 -17.559   4.004  1.00  0.00     0.029 A 
BRANCH  31  35
HETATM   35  O   UNL     1      44.820 -21.111   2.347  1.00  0.00    -0.356 OA
HETATM   36  C   UNL     1      43.921 -21.909   1.587  1.00  0.00     0.210 C 
ENDBRANCH  31  35
ENDBRANCH  26  29
ENDBRANCH  24  25
ENDBRANCH  23  24
ENDBRANCH   1  23
TORSDOF 8
ENDMDL
MODEL 8
REMARK VINA RESULT:      -8.1      7.766     11.033
REMARK  8 active torsions:
REMARK  status: ('A' for Active; 'I' for Inactive)
REMARK    1  A    between atoms: O_2  and  C_3 
REMARK    2  A    between atoms: C_5  and  N_6 
REMARK       I    between atoms: N_6  and  C_7 
REMARK    3  A    between atoms: C_7  and  C_8 
REMARK    4  A    between atoms: C_8  and  O_9 
REMARK    5  A    between atoms: O_9  and  C_10 
REMARK    6  A    between atoms: C_13  and  C_14 
REMARK       I    between atoms: C_14  and  N_15 
REMARK    7  A    between atoms: N_15  and  C_16 
REMARK    8  A    between atoms: C_19  and  N_20 
ROOT
HETATM    1  C   UNL     1      42.636 -15.353   2.260  1.00  0.00     0.069 A 
HETATM    2  C   UNL     1      42.386 -16.410   1.389  1.00  0.00     0.038 A 
HETATM    3  C   UNL     1      41.670 -16.184   0.207  1.00  0.00     0.020 A 
HETATM    4  C   UNL     1      41.193 -14.905  -0.109  1.00  0.00     0.032 A 
HETATM    5  C   UNL     1      41.404 -13.859   0.799  1.00  0.00     0.020 A 
HETATM    6  C   UNL     1      42.104 -14.091   1.985  1.00  0.00     0.038 A 
ENDROOT
BRANCH   4   7
HETATM    7  C   UNL     1      40.611 -14.675  -1.470  1.00  0.00     0.256 C 
HETATM    8  N   UNL     1      39.239 -14.820  -1.568  1.00  0.00    -0.323 N 
HETATM    9  H   UNL     1      38.770 -15.349  -0.846  1.00  0.00     0.169 HD
HETATM   10  O   UNL     1      41.364 -14.346  -2.380  1.00  0.00    -0.267 OA
BRANCH   8  11
HETATM   11  C   UNL     1      38.394 -14.175  -2.494  1.00  0.00     0.035 A 
HETATM   12  C   UNL     1      38.075 -12.822  -2.445  1.00  0.00     0.032 A 
HETATM   13  C   UNL     1      37.085 -12.293  -3.287  1.00  0.00     0.031 A 
HETATM   14  C   UNL     1      36.385 -13.092  -4.200  1.00  0.00     0.030 A 
HETATM   15  C   UNL     1      36.765 -14.440  -4.273  1.00  0.00     0.031 A 
HETATM   16  C   UNL     1      37.755 -14.977  -3.440  1.00  0.00     0.032 A 
BRANCH  14  17
HETATM   17  N   UNL     1      35.299 -12.633  -4.945  1.00  0.00    -0.381 N 
HETATM   18  C   UNL     1      35.547 -12.302  -6.356  1.00  0.00     0.123 C 
HETATM   19  C   UNL     1      34.248 -12.479  -7.143  1.00  0.00     0.020 C 
HETATM   20  C   UNL     1      33.115 -11.651  -6.540  1.00  0.00     0.003 C 
HETATM   21  C   UNL     1      32.956 -11.945  -5.050  1.00  0.00     0.020 C 
HETATM   22  C   UNL     1      34.280 -11.798  -4.299  1.00  0.00     0.123 C 
ENDBRANCH  14  17
ENDBRANCH   8  11
ENDBRANCH   4   7
BRANCH   1  23
HETATM   23  O   UNL     1      43.451 -15.391   3.358  1.00  0.00    -0.342 OA
BRANCH  23  24
HETATM   24  C   UNL     1      42.910 -15.920   4.564  1.00  0.00     0.278 C 
BRANCH  24  25
HETATM   25  C   UNL     1      42.742 -17.450   4.688  1.00  0.00     0.246 C 
HETATM   26  N   UNL     1      43.944 -18.133   4.753  1.00  0.00    -0.325 N 
HETATM   27  H   UNL     1      44.776 -17.557   4.701  1.00  0.00     0.169 HD
HETATM   28  O   UNL     1      41.620 -17.947   4.724  1.00  0.00    -0.271 OA
BRANCH  26  29
HETATM   29  C   UNL     1      44.158 -19.525   4.718  1.00  0.00     0.037 A 
HETATM   30  C   UNL     1      44.326 -20.262   3.542  1.00  0.00     0.066 A 
HETATM   31  C   UNL     1      44.558 -21.641   3.597  1.00  0.00     0.070 A 
HETATM   32  C   UNL     1      44.637 -22.278   4.837  1.00  0.00     0.037 A 
HETATM   33  C   UNL     1      44.470 -21.554   6.014  1.00  0.00     0.005 A 
HETATM   34  C   UNL     1      44.222 -20.183   5.953  1.00  0.00     0.029 A 
BRANCH  31  35
HETATM   35  O   UNL     1      44.730 -22.472   2.521  1.00  0.00    -0.356 OA
HETATM   36  C   UNL     1      44.098 -22.087   1.307  1.00  0.00     0.210 C 
ENDBRANCH  31  35
ENDBRANCH  26  29
ENDBRANCH  24  25
ENDBRANCH  23  24
ENDBRANCH   1  23
TORSDOF 8
ENDMDL
MODEL 9
REMARK VINA RESULT:      -8.0      7.705     10.501
REMARK  8 active torsions:
REMARK  status: ('A' for Active; 'I' for Inactive)
REMARK    1  A    between atoms: O_2  and  C_3 
REMARK    2  A    between atoms: C_5  and  N_6 
REMARK       I    between atoms: N_6  and  C_7 
REMARK    3  A    between atoms: C_7  and  C_8 
REMARK    4  A    between atoms: C_8  and  O_9 
REMARK    5  A    between atoms: O_9  and  C_10 
REMARK    6  A    between atoms: C_13  and  C_14 
REMARK       I    between atoms: C_14  and  N_15 
REMARK    7  A    between atoms: N_15  and  C_16 
REMARK    8  A    between atoms: C_19  and  N_20 
ROOT
HETATM    1  C   UNL     1      41.082 -14.320   3.470  1.00  0.00     0.069 A 
HETATM    2  C   UNL     1      42.067 -14.001   2.540  1.00  0.00     0.038 A 
HETATM    3  C   UNL     1      41.774 -14.051   1.171  1.00  0.00     0.020 A 
HETATM    4  C   UNL     1      40.500 -14.425   0.724  1.00  0.00     0.032 A 
HETATM    5  C   UNL     1      39.532 -14.795   1.667  1.00  0.00     0.020 A 
HETATM    6  C   UNL     1      39.832 -14.761   3.030  1.00  0.00     0.038 A 
ENDROOT
BRANCH   4   7
HETATM    7  C   UNL     1      40.179 -14.270  -0.732  1.00  0.00     0.256 C 
HETATM    8  N   UNL     1      38.878 -14.565  -1.092  1.00  0.00    -0.323 N 
HETATM    9  H   UNL     1      38.333 -15.136  -0.462  1.00  0.00     0.169 HD
HETATM   10  O   UNL     1      41.059 -13.869  -1.484  1.00  0.00    -0.267 OA
BRANCH   8  11
HETATM   11  C   UNL     1      38.170 -14.022  -2.185  1.00  0.00     0.035 A 
HETATM   12  C   UNL     1      37.737 -12.702  -2.254  1.00  0.00     0.032 A 
HETATM   13  C   UNL     1      36.881 -12.286  -3.286  1.00  0.00     0.031 A 
HETATM   14  C   UNL     1      36.433 -13.168  -4.277  1.00  0.00     0.030 A 
HETATM   15  C   UNL     1      36.930 -14.479  -4.220  1.00  0.00     0.031 A 
HETATM   16  C   UNL     1      37.788 -14.903  -3.197  1.00  0.00     0.032 A 
BRANCH  14  17
HETATM   17  N   UNL     1      35.472 -12.828  -5.228  1.00  0.00    -0.381 N 
HETATM   18  C   UNL     1      34.231 -12.211  -4.736  1.00  0.00     0.123 C 
HETATM   19  C   UNL     1      33.642 -11.333  -5.840  1.00  0.00     0.020 C 
HETATM   20  C   UNL     1      33.428 -12.127  -7.128  1.00  0.00     0.003 C 
HETATM   21  C   UNL     1      34.712 -12.838  -7.551  1.00  0.00     0.020 C 
HETATM   22  C   UNL     1      35.296 -13.676  -6.413  1.00  0.00     0.123 C 
ENDBRANCH  14  17
ENDBRANCH   8  11
ENDBRANCH   4   7
BRANCH   1  23
HETATM   23  O   UNL     1      41.175 -14.161   4.826  1.00  0.00    -0.342 OA
BRANCH  23  24
HETATM   24  C   UNL     1      42.185 -14.896   5.509  1.00  0.00     0.278 C 
BRANCH  24  25
HETATM   25  C   UNL     1      42.297 -16.414   5.249  1.00  0.00     0.246 C 
HETATM   26  N   UNL     1      43.452 -16.774   4.579  1.00  0.00    -0.325 N 
HETATM   27  H   UNL     1      44.071 -16.011   4.334  1.00  0.00     0.169 HD
HETATM   28  O   UNL     1      41.409 -17.173   5.631  1.00  0.00    -0.271 OA
BRANCH  26  29
HETATM   29  C   UNL     1      43.798 -18.036   4.055  1.00  0.00     0.037 A 
HETATM   30  C   UNL     1      44.324 -19.083   4.818  1.00  0.00     0.066 A 
HETATM   31  C   UNL     1      44.617 -20.315   4.224  1.00  0.00     0.070 A 
HETATM   32  C   UNL     1      44.368 -20.501   2.862  1.00  0.00     0.037 A 
HETATM   33  C   UNL     1      43.846 -19.465   2.093  1.00  0.00     0.005 A 
HETATM   34  C   UNL     1      43.571 -18.234   2.687  1.00  0.00     0.029 A 
BRANCH  31  35
HETATM   35  O   UNL     1      45.142 -21.411   4.858  1.00  0.00    -0.356 OA
HETATM   36  C   UNL     1      44.762 -22.685   4.354  1.00  0.00     0.210 C 
ENDBRANCH  31  35
ENDBRANCH  26  29
ENDBRANCH  24  25
ENDBRANCH  23  24
ENDBRANCH   1  23
TORSDOF 8
ENDMDL
MODEL 10
REMARK VINA RESULT:      -8.0      2.906      8.762
REMARK  8 active torsions:
REMARK  status: ('A' for Active; 'I' for Inactive)
REMARK    1  A    between atoms: O_2  and  C_3 
REMARK    2  A    between atoms: C_5  and  N_6 
REMARK       I    between atoms: N_6  and  C_7 
REMARK    3  A    between atoms: C_7  and  C_8 
REMARK    4  A    between atoms: C_8  and  O_9 
REMARK    5  A    between atoms: O_9  and  C_10 
REMARK    6  A    between atoms: C_13  and  C_14 
REMARK       I    between atoms: C_14  and  N_15 
REMARK    7  A    between atoms: N_15  and  C_16 
REMARK    8  A    between atoms: C_19  and  N_20 
ROOT
HETATM    1  C   UNL     1      40.669 -14.156   1.967  1.00  0.00     0.069 A 
HETATM    2  C   UNL     1      41.853 -13.475   2.239  1.00  0.00     0.038 A 
HETATM    3  C   UNL     1      41.855 -12.427   3.168  1.00  0.00     0.020 A 
HETATM    4  C   UNL     1      40.677 -12.050   3.826  1.00  0.00     0.032 A 
HETATM    5  C   UNL     1      39.481 -12.707   3.507  1.00  0.00     0.020 A 
HETATM    6  C   UNL     1      39.479 -13.740   2.567  1.00  0.00     0.038 A 
ENDROOT
BRANCH   4   7
HETATM    7  C   UNL     1      40.770 -11.063   4.950  1.00  0.00     0.256 C 
HETATM    8  N   UNL     1      40.305 -11.506   6.175  1.00  0.00    -0.323 N 
HETATM    9  H   UNL     1      39.677 -12.297   6.181  1.00  0.00     0.169 HD
HETATM   10  O   UNL     1      41.272  -9.968   4.726  1.00  0.00    -0.267 OA
BRANCH   8  11
HETATM   11  C   UNL     1      40.737 -11.064   7.442  1.00  0.00     0.035 A 
HETATM   12  C   UNL     1      42.069 -10.834   7.775  1.00  0.00     0.032 A 
HETATM   13  C   UNL     1      42.436 -10.575   9.104  1.00  0.00     0.031 A 
HETATM   14  C   UNL     1      41.494 -10.537  10.139  1.00  0.00     0.030 A 
HETATM   15  C   UNL     1      40.151 -10.712   9.771  1.00  0.00     0.031 A 
HETATM   16  C   UNL     1      39.773 -10.966   8.446  1.00  0.00     0.032 A 
BRANCH  14  17
HETATM   17  N   UNL     1      41.838 -10.428  11.486  1.00  0.00    -0.381 N 
HETATM   18  C   UNL     1      43.254 -10.186  11.798  1.00  0.00     0.123 C 
HETATM   19  C   UNL     1      43.350  -9.454  13.136  1.00  0.00     0.020 C 
HETATM   20  C   UNL     1      42.631 -10.222  14.244  1.00  0.00     0.003 C 
HETATM   21  C   UNL     1      41.194 -10.546  13.840  1.00  0.00     0.020 C 
HETATM   22  C   UNL     1      41.130 -11.242  12.481  1.00  0.00     0.123 C 
ENDBRANCH  14  17
ENDBRANCH   8  11
ENDBRANCH   4   7
BRANCH   1  23
HETATM   23  O   UNL     1      40.551 -15.292   1.214  1.00  0.00    -0.342 OA
BRANCH  23  24
HETATM   24  C   UNL     1      40.361 -16.524   1.901  1.00  0.00     0.278 C 
BRANCH  24  25
HETATM   25  C   UNL     1      41.428 -16.970   2.924  1.00  0.00     0.246 C 
HETATM   26  N   UNL     1      41.258 -16.408   4.178  1.00  0.00    -0.325 N 
HETATM   27  H   UNL     1      40.473 -15.774   4.269  1.00  0.00     0.169 HD
HETATM   28  O   UNL     1      42.314 -17.753   2.592  1.00  0.00    -0.271 OA
BRANCH  26  29
HETATM   29  C   UNL     1      42.123 -16.478   5.288  1.00  0.00     0.037 A 
HETATM   30  C   UNL     1      43.124 -15.540   5.560  1.00  0.00     0.066 A 
HETATM   31  C   UNL     1      43.925 -15.669   6.700  1.00  0.00     0.070 A 
HETATM   32  C   UNL     1      43.711 -16.736   7.575  1.00  0.00     0.037 A 
HETATM   33  C   UNL     1      42.720 -17.677   7.313  1.00  0.00     0.005 A 
HETATM   34  C   UNL     1      41.935 -17.552   6.167  1.00  0.00     0.029 A 
BRANCH  31  35
HETATM   35  O   UNL     1      44.939 -14.826   7.072  1.00  0.00    -0.356 OA
HETATM   36  C   UNL     1      44.599 -13.458   7.259  1.00  0.00     0.210 C 
ENDBRANCH  31  35
ENDBRANCH  26  29
ENDBRANCH  24  25
ENDBRANCH  23  24
ENDBRANCH   1  23
TORSDOF 8
ENDMDL
