MODEL 1
REMARK VINA RESULT:      -8.8      0.000      0.000
REMARK  4 active torsions:
REMARK  status: ('A' for Active; 'I' for Inactive)
REMARK    1  A    between atoms: C_5  and  C_6 
REMARK    2  A    between atoms: C_9  and  C_10 
REMARK    3  A    between atoms: C_10  and  N_11 
REMARK       I    between atoms: N_11  and  C_12 
REMARK       I    between atoms: C_12  and  N_13 
REMARK    4  A    between atoms: N_13  and  C_14 
ROOT
HETATM    1  C   UNL     1      43.125 -13.636   6.018  1.00  0.00     0.213 C 
ENDROOT
BRANCH   1   2
HETATM    2  C   UNL     1      43.289 -15.105   5.915  1.00  0.00     0.190 A 
HETATM    3  O   UNL     1      43.400 -15.793   7.086  1.00  0.00    -0.194 OA
HETATM    4  N   UNL     1      43.622 -17.124   6.745  1.00  0.00    -0.106 NA
HETATM    5  C   UNL     1      43.622 -17.118   5.401  1.00  0.00     0.189 A 
HETATM    6  N   UNL     1      43.404 -15.870   4.850  1.00  0.00    -0.202 NA
BRANCH   5   7
HETATM    7  C   UNL     1      43.855 -18.305   4.584  1.00  0.00     0.014 A 
HETATM    8  C   UNL     1      44.637 -19.368   5.059  1.00  0.00     0.016 A 
HETATM    9  C   UNL     1      44.870 -20.497   4.266  1.00  0.00     0.007 A 
HETATM   10  C   UNL     1      44.327 -20.582   2.980  1.00  0.00    -0.062 A 
HETATM   11  C   UNL     1      44.554 -21.796   2.128  1.00  0.00     0.048 C 
HETATM   12  C   UNL     1      43.539 -19.529   2.504  1.00  0.00     0.007 A 
HETATM   13  C   UNL     1      43.309 -18.400   3.297  1.00  0.00     0.016 A 
ENDBRANCH   5   7
ENDBRANCH   1   2
BRANCH   1  14
HETATM   14  N   UNL     1      43.681 -13.149   7.265  1.00  0.00    -0.335 N 
HETATM   15  C   UNL     1      45.018 -13.181   7.501  1.00  0.00     0.321 C 
HETATM   16  N   UNL     1      45.479 -12.568   8.623  1.00  0.00    -0.309 N 
HETATM   17  O   UNL     1      45.821 -13.664   6.707  1.00  0.00    -0.247 OA
HETATM   18  H   UNL     1      46.482 -12.433   8.574  1.00  0.00     0.170 HD
HETATM   19  H   UNL     1      43.150 -12.447   7.757  1.00  0.00     0.164 HD
BRANCH  16  20
HETATM   20  C   UNL     1      44.849 -12.123   9.798  1.00  0.00     0.036 A 
HETATM   21  C   UNL     1      44.430 -12.965  10.832  1.00  0.00     0.029 A 
HETATM   22  C   UNL     1      43.818 -12.432  11.972  1.00  0.00     0.002 A 
HETATM   23  C   UNL     1      43.632 -11.057  12.092  1.00  0.00     0.000 A 
HETATM   24  C   UNL     1      44.075 -10.209  11.082  1.00  0.00     0.002 A 
HETATM   25  C   UNL     1      44.691 -10.739   9.947  1.00  0.00     0.029 A 
ENDBRANCH  16  20
ENDBRANCH   1  14
TORSDOF 4
ENDMDL
MODEL 2
REMARK VINA RESULT:      -8.5      1.594      2.004
REMARK  4 active torsions:
REMARK  status: ('A' for Active; 'I' for Inactive)
REMARK    1  A    between atoms: C_5  and  C_6 
REMARK    2  A    between atoms: C_9  and  C_10 
REMARK    3  A    between atoms: C_10  and  N_11 
REMARK       I    between atoms: N_11  and  C_12 
REMARK       I    between atoms: C_12  and  N_13 
REMARK    4  A    between atoms: N_13  and  C_14 
ROOT
HETATM    1  C   UNL     1      42.105 -13.546   5.240  1.00  0.00     0.213 C 
ENDROOT
BRANCH   1   2
HETATM    2  C   UNL     1      42.681 -14.911   5.235  1.00  0.00     0.190 A 
HETATM    3  O   UNL     1      43.460 -15.251   6.300  1.00  0.00    -0.194 OA
HETATM    4  N   UNL     1      43.949 -16.529   6.043  1.00  0.00    -0.106 NA
HETATM    5  C   UNL     1      43.418 -16.844   4.850  1.00  0.00     0.189 A 
HETATM    6  N   UNL     1      42.609 -15.856   4.322  1.00  0.00    -0.202 NA
BRANCH   5   7
HETATM    7  C   UNL     1      43.682 -18.098   4.149  1.00  0.00     0.014 A 
HETATM    8  C   UNL     1      44.391 -19.137   4.768  1.00  0.00     0.016 A 
HETATM    9  C   UNL     1      44.653 -20.330   4.087  1.00  0.00     0.007 A 
HETATM   10  C   UNL     1      44.214 -20.505   2.771  1.00  0.00    -0.062 A 
HETATM   11  C   UNL     1      44.473 -21.788   2.037  1.00  0.00     0.048 C 
HETATM   12  C   UNL     1      43.499 -19.474   2.151  1.00  0.00     0.007 A 
HETATM   13  C   UNL     1      43.239 -18.282   2.832  1.00  0.00     0.016 A 
ENDBRANCH   5   7
ENDBRANCH   1   2
BRANCH   1  14
HETATM   14  N   UNL     1      42.523 -12.822   6.423  1.00  0.00    -0.335 N 
HETATM   15  C   UNL     1      41.842 -11.731   6.859  1.00  0.00     0.321 C 
HETATM   16  N   UNL     1      42.199 -11.197   8.057  1.00  0.00    -0.309 N 
HETATM   17  O   UNL     1      40.877 -11.266   6.258  1.00  0.00    -0.247 OA
HETATM   18  H   UNL     1      41.484 -10.564   8.397  1.00  0.00     0.170 HD
HETATM   19  H   UNL     1      43.040 -13.341   7.117  1.00  0.00     0.164 HD
BRANCH  16  20
HETATM   20  C   UNL     1      43.338 -11.341   8.868  1.00  0.00     0.036 A 
HETATM   21  C   UNL     1      44.441 -12.133   8.538  1.00  0.00     0.029 A 
HETATM   22  C   UNL     1      45.538 -12.211   9.404  1.00  0.00     0.002 A 
HETATM   23  C   UNL     1      45.546 -11.491  10.595  1.00  0.00     0.000 A 
HETATM   24  C   UNL     1      44.465 -10.674  10.916  1.00  0.00     0.002 A 
HETATM   25  C   UNL     1      43.373 -10.591  10.050  1.00  0.00     0.029 A 
ENDBRANCH  16  20
ENDBRANCH   1  14
TORSDOF 4
ENDMDL
MODEL 3
REMARK VINA RESULT:      -8.4      6.227      9.136
REMARK  4 active torsions:
REMARK  status: ('A' for Active; 'I' for Inactive)
REMARK    1  A    between atoms: C_5  and  C_6 
REMARK    2  A    between atoms: C_9  and  C_10 
REMARK    3  A    between atoms: C_10  and  N_11 
REMARK       I    between atoms: N_11  and  C_12 
REMARK       I    between atoms: C_12  and  N_13 
REMARK    4  A    between atoms: N_13  and  C_14 
ROOT
HETATM    1  C   UNL     1      41.168 -15.070   1.879  1.00  0.00     0.213 C 
ENDROOT
BRANCH   1   2
HETATM    2  C   UNL     1      42.166 -16.160   1.981  1.00  0.00     0.190 A 
HETATM    3  O   UNL     1      43.036 -16.294   0.941  1.00  0.00    -0.194 OA
HETATM    4  N   UNL     1      43.815 -17.414   1.216  1.00  0.00    -0.106 NA
HETATM    5  C   UNL     1      43.346 -17.852   2.396  1.00  0.00     0.189 A 
HETATM    6  N   UNL     1      42.320 -17.082   2.908  1.00  0.00    -0.202 NA
BRANCH   5   7
HETATM    7  C   UNL     1      43.843 -19.046   3.075  1.00  0.00     0.014 A 
HETATM    8  C   UNL     1      43.998 -20.258   2.387  1.00  0.00     0.016 A 
HETATM    9  C   UNL     1      44.462 -21.401   3.046  1.00  0.00     0.007 A 
HETATM   10  C   UNL     1      44.776 -21.355   4.408  1.00  0.00    -0.062 A 
HETATM   11  C   UNL     1      45.291 -22.570   5.121  1.00  0.00     0.048 C 
HETATM   12  C   UNL     1      44.631 -20.146   5.098  1.00  0.00     0.007 A 
HETATM   13  C   UNL     1      44.166 -19.004   4.438  1.00  0.00     0.016 A 
ENDBRANCH   5   7
ENDBRANCH   1   2
BRANCH   1  14
HETATM   14  N   UNL     1      40.786 -14.858   0.497  1.00  0.00    -0.335 N 
HETATM   15  C   UNL     1      41.243 -13.788  -0.204  1.00  0.00     0.321 C 
HETATM   16  N   UNL     1      40.969 -13.737  -1.534  1.00  0.00    -0.309 N 
HETATM   17  O   UNL     1      41.955 -12.921   0.296  1.00  0.00    -0.247 OA
HETATM   18  H   UNL     1      41.554 -13.051  -1.997  1.00  0.00     0.170 HD
HETATM   19  H   UNL     1      40.533 -15.675  -0.037  1.00  0.00     0.164 HD
BRANCH  16  20
HETATM   20  C   UNL     1      40.049 -14.420  -2.348  1.00  0.00     0.036 A 
HETATM   21  C   UNL     1      40.367 -15.534  -3.130  1.00  0.00     0.029 A 
HETATM   22  C   UNL     1      39.383 -16.157  -3.904  1.00  0.00     0.002 A 
HETATM   23  C   UNL     1      38.074 -15.682  -3.894  1.00  0.00     0.000 A 
HETATM   24  C   UNL     1      37.741 -14.593  -3.093  1.00  0.00     0.002 A 
HETATM   25  C   UNL     1      38.721 -13.973  -2.316  1.00  0.00     0.029 A 
ENDBRANCH  16  20
ENDBRANCH   1  14
TORSDOF 4
ENDMDL
MODEL 4
REMARK VINA RESULT:      -8.3      6.356      9.260
REMARK  4 active torsions:
REMARK  status: ('A' for Active; 'I' for Inactive)
REMARK    1  A    between atoms: C_5  and  C_6 
REMARK    2  A    between atoms: C_9  and  C_10 
REMARK    3  A    between atoms: C_10  and  N_11 
REMARK       I    between atoms: N_11  and  C_12 
REMARK       I    between atoms: C_12  and  N_13 
REMARK    4  A    between atoms: N_13  and  C_14 
ROOT
HETATM    1  C   UNL     1      40.747 -15.258   1.865  1.00  0.00     0.213 C 
ENDROOT
BRANCH   1   2
HETATM    2  C   UNL     1      41.769 -16.329   1.923  1.00  0.00     0.190 A 
HETATM    3  O   UNL     1      42.525 -16.516   0.805  1.00  0.00    -0.194 OA
HETATM    4  N   UNL     1      43.348 -17.610   1.060  1.00  0.00    -0.106 NA
HETATM    5  C   UNL     1      43.015 -17.980   2.308  1.00  0.00     0.189 A 
HETATM    6  N   UNL     1      42.037 -17.191   2.881  1.00  0.00    -0.202 NA
BRANCH   5   7
HETATM    7  C   UNL     1      43.602 -19.125   2.999  1.00  0.00     0.014 A 
HETATM    8  C   UNL     1      43.919 -19.061   4.364  1.00  0.00     0.016 A 
HETATM    9  C   UNL     1      44.495 -20.156   5.017  1.00  0.00     0.007 A 
HETATM   10  C   UNL     1      44.767 -21.335   4.317  1.00  0.00    -0.062 A 
HETATM   11  C   UNL     1      45.367 -22.521   5.012  1.00  0.00     0.048 C 
HETATM   12  C   UNL     1      44.445 -21.407   2.957  1.00  0.00     0.007 A 
HETATM   13  C   UNL     1      43.872 -20.312   2.305  1.00  0.00     0.016 A 
ENDBRANCH   5   7
ENDBRANCH   1   2
BRANCH   1  14
HETATM   14  N   UNL     1      40.404 -14.957   0.489  1.00  0.00    -0.335 N 
HETATM   15  C   UNL     1      40.819 -13.809  -0.106  1.00  0.00     0.321 C 
HETATM   16  N   UNL     1      40.591 -13.667  -1.438  1.00  0.00    -0.309 N 
HETATM   17  O   UNL     1      41.457 -12.945   0.490  1.00  0.00    -0.247 OA
HETATM   18  H   UNL     1      41.149 -12.912  -1.821  1.00  0.00     0.170 HD
HETATM   19  H   UNL     1      40.221 -15.742  -0.118  1.00  0.00     0.164 HD
BRANCH  16  20
HETATM   20  C   UNL     1      39.745 -14.333  -2.341  1.00  0.00     0.036 A 
HETATM   21  C   UNL     1      38.429 -13.951  -2.612  1.00  0.00     0.029 A 
HETATM   22  C   UNL     1      37.660 -14.670  -3.534  1.00  0.00     0.002 A 
HETATM   23  C   UNL     1      38.205 -15.764  -4.201  1.00  0.00     0.000 A 
HETATM   24  C   UNL     1      39.526 -16.132  -3.962  1.00  0.00     0.002 A 
HETATM   25  C   UNL     1      40.295 -15.412  -3.046  1.00  0.00     0.029 A 
ENDBRANCH  16  20
ENDBRANCH   1  14
TORSDOF 4
ENDMDL
MODEL 5
REMARK VINA RESULT:      -8.2      5.246      8.360
REMARK  4 active torsions:
REMARK  status: ('A' for Active; 'I' for Inactive)
REMARK    1  A    between atoms: C_5  and  C_6 
REMARK    2  A    between atoms: C_9  and  C_10 
REMARK    3  A    between atoms: C_10  and  N_11 
REMARK       I    between atoms: N_11  and  C_12 
REMARK       I    between atoms: C_12  and  N_13 
REMARK    4  A    between atoms: N_13  and  C_14 
ROOT
HETATM    1  C   UNL     1      40.631 -14.106   2.998  1.00  0.00     0.213 C 
ENDROOT
BRANCH   1   2
HETATM    2  C   UNL     1      41.565 -15.206   3.336  1.00  0.00     0.190 A 
HETATM    3  O   UNL     1      42.575 -14.909   4.199  1.00  0.00    -0.194 OA
HETATM    4  N   UNL     1      43.358 -16.055   4.304  1.00  0.00    -0.106 NA
HETATM    5  C   UNL     1      42.747 -16.939   3.497  1.00  0.00     0.189 A 
HETATM    6  N   UNL     1      41.614 -16.442   2.884  1.00  0.00    -0.202 NA
BRANCH   5   7
HETATM    7  C   UNL     1      43.238 -18.293   3.257  1.00  0.00     0.014 A 
HETATM    8  C   UNL     1      44.044 -18.948   4.199  1.00  0.00     0.016 A 
HETATM    9  C   UNL     1      44.523 -20.240   3.958  1.00  0.00     0.007 A 
HETATM   10  C   UNL     1      44.206 -20.901   2.767  1.00  0.00    -0.062 A 
HETATM   11  C   UNL     1      44.698 -22.294   2.505  1.00  0.00     0.048 C 
HETATM   12  C   UNL     1      43.395 -20.256   1.827  1.00  0.00     0.007 A 
HETATM   13  C   UNL     1      42.918 -18.963   2.069  1.00  0.00     0.016 A 
ENDBRANCH   5   7
ENDBRANCH   1   2
BRANCH   1  14
HETATM   14  N   UNL     1      40.377 -14.076   1.571  1.00  0.00    -0.335 N 
HETATM   15  C   UNL     1      39.227 -14.575   1.050  1.00  0.00     0.321 C 
HETATM   16  N   UNL     1      38.990 -14.373  -0.274  1.00  0.00    -0.309 N 
HETATM   17  O   UNL     1      38.367 -15.121   1.737  1.00  0.00    -0.247 OA
HETATM   18  H   UNL     1      38.019 -14.556  -0.498  1.00  0.00     0.170 HD
HETATM   19  H   UNL     1      40.840 -13.354   1.040  1.00  0.00     0.164 HD
BRANCH  16  20
HETATM   20  C   UNL     1      39.815 -13.993  -1.346  1.00  0.00     0.036 A 
HETATM   21  C   UNL     1      39.994 -12.672  -1.769  1.00  0.00     0.029 A 
HETATM   22  C   UNL     1      40.843 -12.384  -2.842  1.00  0.00     0.002 A 
HETATM   23  C   UNL     1      41.528 -13.408  -3.492  1.00  0.00     0.000 A 
HETATM   24  C   UNL     1      41.381 -14.722  -3.056  1.00  0.00     0.002 A 
HETATM   25  C   UNL     1      40.538 -15.010  -1.982  1.00  0.00     0.029 A 
ENDBRANCH  16  20
ENDBRANCH   1  14
TORSDOF 4
ENDMDL
MODEL 6
REMARK VINA RESULT:      -8.2      5.058      8.395
REMARK  4 active torsions:
REMARK  status: ('A' for Active; 'I' for Inactive)
REMARK    1  A    between atoms: C_5  and  C_6 
REMARK    2  A    between atoms: C_9  and  C_10 
REMARK    3  A    between atoms: C_10  and  N_11 
REMARK       I    between atoms: N_11  and  C_12 
REMARK       I    between atoms: C_12  and  N_13 
REMARK    4  A    between atoms: N_13  and  C_14 
ROOT
HETATM    1  C   UNL     1      41.472 -16.960   5.314  1.00  0.00     0.213 C 
ENDROOT
BRANCH   1   2
HETATM    2  C   UNL     1      41.055 -16.124   4.164  1.00  0.00     0.190 A 
HETATM    3  O   UNL     1      40.296 -15.029   4.445  1.00  0.00    -0.194 OA
HETATM    4  N   UNL     1      39.962 -14.452   3.223  1.00  0.00    -0.106 NA
HETATM    5  C   UNL     1      40.553 -15.249   2.317  1.00  0.00     0.189 A 
HETATM    6  N   UNL     1      41.256 -16.300   2.875  1.00  0.00    -0.202 NA
BRANCH   5   7
HETATM    7  C   UNL     1      40.450 -15.054   0.874  1.00  0.00     0.014 A 
HETATM    8  C   UNL     1      39.521 -14.154   0.330  1.00  0.00     0.016 A 
HETATM    9  C   UNL     1      39.417 -13.982  -1.054  1.00  0.00     0.007 A 
HETATM   10  C   UNL     1      40.238 -14.709  -1.922  1.00  0.00    -0.062 A 
HETATM   11  C   UNL     1      40.148 -14.519  -3.407  1.00  0.00     0.048 C 
HETATM   12  C   UNL     1      41.172 -15.602  -1.384  1.00  0.00     0.007 A 
HETATM   13  C   UNL     1      41.274 -15.774  -0.000  1.00  0.00     0.016 A 
ENDBRANCH   5   7
ENDBRANCH   1   2
BRANCH   1  14
HETATM   14  N   UNL     1      42.450 -17.946   4.898  1.00  0.00    -0.335 N 
HETATM   15  C   UNL     1      43.746 -17.863   5.293  1.00  0.00     0.321 C 
HETATM   16  N   UNL     1      44.569 -18.902   4.993  1.00  0.00    -0.309 N 
HETATM   17  O   UNL     1      44.175 -16.934   5.974  1.00  0.00    -0.247 OA
HETATM   18  H   UNL     1      45.422 -18.856   5.537  1.00  0.00     0.170 HD
HETATM   19  H   UNL     1      42.102 -18.865   4.672  1.00  0.00     0.164 HD
BRANCH  16  20
HETATM   20  C   UNL     1      44.466 -19.974   4.089  1.00  0.00     0.036 A 
HETATM   21  C   UNL     1      44.143 -19.832   2.737  1.00  0.00     0.029 A 
HETATM   22  C   UNL     1      44.071 -20.956   1.907  1.00  0.00     0.002 A 
HETATM   23  C   UNL     1      44.334 -22.225   2.418  1.00  0.00     0.000 A 
HETATM   24  C   UNL     1      44.689 -22.372   3.756  1.00  0.00     0.002 A 
HETATM   25  C   UNL     1      44.766 -21.250   4.583  1.00  0.00     0.029 A 
ENDBRANCH  16  20
ENDBRANCH   1  14
TORSDOF 4
ENDMDL
MODEL 7
REMARK VINA RESULT:      -8.1      6.578      9.078
REMARK  4 active torsions:
REMARK  status: ('A' for Active; 'I' for Inactive)
REMARK    1  A    between atoms: C_5  and  C_6 
REMARK    2  A    between atoms: C_9  and  C_10 
REMARK    3  A    between atoms: C_10  and  N_11 
REMARK       I    between atoms: N_11  and  C_12 
REMARK       I    between atoms: C_12  and  N_13 
REMARK    4  A    between atoms: N_13  and  C_14 
ROOT
HETATM    1  C   UNL     1      40.432 -14.978  -1.137  1.00  0.00     0.213 C 
ENDROOT
BRANCH   1   2
HETATM    2  C   UNL     1      41.200 -15.427   0.048  1.00  0.00     0.190 A 
HETATM    3  O   UNL     1      41.663 -14.455   0.883  1.00  0.00    -0.194 OA
HETATM    4  N   UNL     1      42.411 -15.098   1.865  1.00  0.00    -0.106 NA
HETATM    5  C   UNL     1      42.329 -16.398   1.535  1.00  0.00     0.189 A 
HETATM    6  N   UNL     1      41.568 -16.639   0.407  1.00  0.00    -0.202 NA
BRANCH   5   7
HETATM    7  C   UNL     1      42.998 -17.467   2.271  1.00  0.00     0.014 A 
HETATM    8  C   UNL     1      43.393 -17.289   3.604  1.00  0.00     0.016 A 
HETATM    9  C   UNL     1      44.047 -18.312   4.300  1.00  0.00     0.007 A 
HETATM   10  C   UNL     1      44.321 -19.532   3.673  1.00  0.00    -0.062 A 
HETATM   11  C   UNL     1      45.004 -20.642   4.415  1.00  0.00     0.048 C 
HETATM   12  C   UNL     1      43.921 -19.717   2.345  1.00  0.00     0.007 A 
HETATM   13  C   UNL     1      43.270 -18.694   1.650  1.00  0.00     0.016 A 
ENDBRANCH   5   7
ENDBRANCH   1   2
BRANCH   1  14
HETATM   14  N   UNL     1      41.108 -13.876  -1.792  1.00  0.00    -0.335 N 
HETATM   15  C   UNL     1      41.664 -14.022  -3.023  1.00  0.00     0.321 C 
HETATM   16  N   UNL     1      42.143 -12.909  -3.639  1.00  0.00    -0.309 N 
HETATM   17  O   UNL     1      41.674 -15.093  -3.625  1.00  0.00    -0.247 OA
HETATM   18  H   UNL     1      42.299 -13.081  -4.625  1.00  0.00     0.170 HD
HETATM   19  H   UNL     1      40.820 -12.945  -1.532  1.00  0.00     0.164 HD
BRANCH  16  20
HETATM   20  C   UNL     1      42.466 -11.622  -3.174  1.00  0.00     0.036 A 
HETATM   21  C   UNL     1      42.172 -10.442  -3.863  1.00  0.00     0.029 A 
HETATM   22  C   UNL     1      42.523  -9.201  -3.320  1.00  0.00     0.002 A 
HETATM   23  C   UNL     1      43.157  -9.130  -2.082  1.00  0.00     0.000 A 
HETATM   24  C   UNL     1      43.424 -10.299  -1.373  1.00  0.00     0.002 A 
HETATM   25  C   UNL     1      43.069 -11.537  -1.912  1.00  0.00     0.029 A 
ENDBRANCH  16  20
ENDBRANCH   1  14
TORSDOF 4
ENDMDL
MODEL 8
REMARK VINA RESULT:      -8.0      5.262      8.738
REMARK  4 active torsions:
REMARK  status: ('A' for Active; 'I' for Inactive)
REMARK    1  A    between atoms: C_5  and  C_6 
REMARK    2  A    between atoms: C_9  and  C_10 
REMARK    3  A    between atoms: C_10  and  N_11 
REMARK       I    between atoms: N_11  and  C_12 
REMARK       I    between atoms: C_12  and  N_13 
REMARK    4  A    between atoms: N_13  and  C_14 
ROOT
HETATM    1  C   UNL     1      43.209 -14.311   3.140  1.00  0.00     0.213 C 
ENDROOT
BRANCH   1   2
HETATM    2  C   UNL     1      42.489 -13.912   1.908  1.00  0.00     0.190 A 
HETATM    3  O   UNL     1      42.579 -12.602   1.544  1.00  0.00    -0.194 OA
HETATM    4  N   UNL     1      41.770 -12.446   0.421  1.00  0.00    -0.106 NA
HETATM    5  C   UNL     1      41.270 -13.675   0.210  1.00  0.00     0.189 A 
HETATM    6  N   UNL     1      41.710 -14.619   1.118  1.00  0.00    -0.202 NA
BRANCH   5   7
HETATM    7  C   UNL     1      40.326 -13.996  -0.857  1.00  0.00     0.014 A 
HETATM    8  C   UNL     1      38.998 -13.548  -0.806  1.00  0.00     0.016 A 
HETATM    9  C   UNL     1      38.094 -13.870  -1.825  1.00  0.00     0.007 A 
HETATM   10  C   UNL     1      38.502 -14.649  -2.913  1.00  0.00    -0.062 A 
HETATM   11  C   UNL     1      37.547 -14.984  -4.020  1.00  0.00     0.048 C 
HETATM   12  C   UNL     1      39.828 -15.090  -2.973  1.00  0.00     0.007 A 
HETATM   13  C   UNL     1      40.730 -14.770  -1.953  1.00  0.00     0.016 A 
ENDBRANCH   5   7
ENDBRANCH   1   2
BRANCH   1  14
HETATM   14  N   UNL     1      43.151 -15.749   3.319  1.00  0.00    -0.335 N 
HETATM   15  C   UNL     1      42.296 -16.314   4.209  1.00  0.00     0.321 C 
HETATM   16  N   UNL     1      42.187 -17.669   4.212  1.00  0.00    -0.309 N 
HETATM   17  O   UNL     1      41.566 -15.651   4.943  1.00  0.00    -0.247 OA
HETATM   18  H   UNL     1      41.361 -17.963   4.720  1.00  0.00     0.170 HD
HETATM   19  H   UNL     1      43.431 -16.317   2.534  1.00  0.00     0.164 HD
BRANCH  16  20
HETATM   20  C   UNL     1      42.987 -18.694   3.678  1.00  0.00     0.036 A 
HETATM   21  C   UNL     1      42.883 -19.168   2.367  1.00  0.00     0.029 A 
HETATM   22  C   UNL     1      43.729 -20.188   1.917  1.00  0.00     0.002 A 
HETATM   23  C   UNL     1      44.689 -20.732   2.766  1.00  0.00     0.000 A 
HETATM   24  C   UNL     1      44.821 -20.243   4.063  1.00  0.00     0.002 A 
HETATM   25  C   UNL     1      43.981 -19.221   4.512  1.00  0.00     0.029 A 
ENDBRANCH  16  20
ENDBRANCH   1  14
TORSDOF 4
ENDMDL
MODEL 9
REMARK VINA RESULT:      -8.0      2.393      3.037
REMARK  4 active torsions:
REMARK  status: ('A' for Active; 'I' for Inactive)
REMARK    1  A    between atoms: C_5  and  C_6 
REMARK    2  A    between atoms: C_9  and  C_10 
REMARK    3  A    between atoms: C_10  and  N_11 
REMARK       I    between atoms: N_11  and  C_12 
REMARK       I    between atoms: C_12  and  N_13 
REMARK    4  A    between atoms: N_13  and  C_14 
ROOT
HETATM    1  C   UNL     1      40.803 -12.444   5.958  1.00  0.00     0.213 C 
ENDROOT
BRANCH   1   2
HETATM    2  C   UNL     1      41.684 -13.323   5.153  1.00  0.00     0.190 A 
HETATM    3  O   UNL     1      42.593 -12.707   4.347  1.00  0.00    -0.194 OA
HETATM    4  N   UNL     1      43.243 -13.714   3.639  1.00  0.00    -0.106 NA
HETATM    5  C   UNL     1      42.670 -14.844   4.085  1.00  0.00     0.189 A 
HETATM    6  N   UNL     1      41.697 -14.635   5.043  1.00  0.00    -0.202 NA
BRANCH   5   7
HETATM    7  C   UNL     1      43.011 -16.176   3.594  1.00  0.00     0.014 A 
HETATM    8  C   UNL     1      43.657 -16.349   2.361  1.00  0.00     0.016 A 
HETATM    9  C   UNL     1      43.969 -17.628   1.889  1.00  0.00     0.007 A 
HETATM   10  C   UNL     1      43.637 -18.760   2.640  1.00  0.00    -0.062 A 
HETATM   11  C   UNL     1      43.984 -20.136   2.153  1.00  0.00     0.048 C 
HETATM   12  C   UNL     1      43.000 -18.593   3.875  1.00  0.00     0.007 A 
HETATM   13  C   UNL     1      42.688 -17.314   4.345  1.00  0.00     0.016 A 
ENDBRANCH   5   7
ENDBRANCH   1   2
BRANCH   1  14
HETATM   14  N   UNL     1      41.519 -11.921   7.105  1.00  0.00    -0.335 N 
HETATM   15  C   UNL     1      41.789 -10.595   7.221  1.00  0.00     0.321 C 
HETATM   16  N   UNL     1      42.324 -10.157   8.391  1.00  0.00    -0.309 N 
HETATM   17  O   UNL     1      41.494  -9.778   6.352  1.00  0.00    -0.247 OA
HETATM   18  H   UNL     1      42.252  -9.149   8.466  1.00  0.00     0.170 HD
HETATM   19  H   UNL     1      41.454 -12.447   7.962  1.00  0.00     0.164 HD
BRANCH  16  20
HETATM   20  C   UNL     1      42.951 -10.816   9.463  1.00  0.00     0.036 A 
HETATM   21  C   UNL     1      42.401 -10.934  10.742  1.00  0.00     0.029 A 
HETATM   22  C   UNL     1      43.093 -11.617  11.748  1.00  0.00     0.002 A 
HETATM   23  C   UNL     1      44.331 -12.196  11.480  1.00  0.00     0.000 A 
HETATM   24  C   UNL     1      44.871 -12.112  10.200  1.00  0.00     0.002 A 
HETATM   25  C   UNL     1      44.179 -11.435   9.194  1.00  0.00     0.029 A 
ENDBRANCH  16  20
ENDBRANCH   1  14
TORSDOF 4
ENDMDL
MODEL 10
REMARK VINA RESULT:      -7.9      5.236      8.833
REMARK  4 active torsions:
REMARK  status: ('A' for Active; 'I' for Inactive)
REMARK    1  A    between atoms: C_5  and  C_6 
REMARK    2  A    between atoms: C_9  and  C_10 
REMARK    3  A    between atoms: C_10  and  N_11 
REMARK       I    between atoms: N_11  and  C_12 
REMARK       I    between atoms: C_12  and  N_13 
REMARK    4  A    between atoms: N_13  and  C_14 
ROOT
HETATM    1  C   UNL     1      41.428 -17.115   4.802  1.00  0.00     0.213 C 
ENDROOT
BRANCH   1   2
HETATM    2  C   UNL     1      40.984 -16.680   3.457  1.00  0.00     0.190 A 
HETATM    3  O   UNL     1      41.523 -17.336   2.392  1.00  0.00    -0.194 OA
HETATM    4  N   UNL     1      41.028 -16.713   1.249  1.00  0.00    -0.106 NA
HETATM    5  C   UNL     1      40.233 -15.742   1.730  1.00  0.00     0.189 A 
HETATM    6  N   UNL     1      40.175 -15.702   3.109  1.00  0.00    -0.202 NA
BRANCH   5   7
HETATM    7  C   UNL     1      39.513 -14.791   0.887  1.00  0.00     0.014 A 
HETATM    8  C   UNL     1      40.100 -14.262  -0.271  1.00  0.00     0.016 A 
HETATM    9  C   UNL     1      39.411 -13.341  -1.066  1.00  0.00     0.007 A 
HETATM   10  C   UNL     1      38.121 -12.929  -0.716  1.00  0.00    -0.062 A 
HETATM   11  C   UNL     1      37.365 -11.956  -1.572  1.00  0.00     0.048 C 
HETATM   12  C   UNL     1      37.527 -13.460   0.434  1.00  0.00     0.007 A 
HETATM   13  C   UNL     1      38.218 -14.380   1.229  1.00  0.00     0.016 A 
ENDBRANCH   5   7
ENDBRANCH   1   2
BRANCH   1  14
HETATM   14  N   UNL     1      42.475 -18.112   4.694  1.00  0.00    -0.335 N 
HETATM   15  C   UNL     1      43.734 -17.863   5.136  1.00  0.00     0.321 C 
HETATM   16  N   UNL     1      44.620 -18.894   5.143  1.00  0.00    -0.309 N 
HETATM   17  O   UNL     1      44.073 -16.777   5.600  1.00  0.00    -0.247 OA
HETATM   18  H   UNL     1      45.428 -18.671   5.712  1.00  0.00     0.170 HD
HETATM   19  H   UNL     1      42.184 -19.078   4.673  1.00  0.00     0.164 HD
BRANCH  16  20
HETATM   20  C   UNL     1      44.628 -20.153   4.517  1.00  0.00     0.036 A 
HETATM   21  C   UNL     1      44.684 -21.370   5.202  1.00  0.00     0.029 A 
HETATM   22  C   UNL     1      44.679 -22.578   4.496  1.00  0.00     0.002 A 
HETATM   23  C   UNL     1      44.606 -22.579   3.106  1.00  0.00     0.000 A 
HETATM   24  C   UNL     1      44.517 -21.372   2.417  1.00  0.00     0.002 A 
HETATM   25  C   UNL     1      44.516 -20.167   3.121  1.00  0.00     0.029 A 
ENDBRANCH  16  20
ENDBRANCH   1  14
TORSDOF 4
ENDMDL
