MODEL 1
REMARK VINA RESULT:      -8.1      0.000      0.000
REMARK  7 active torsions:
REMARK  status: ('A' for Active; 'I' for Inactive)
REMARK    1  A    between atoms: C_2  and  C_3 
REMARK    2  A    between atoms: C_3  and  N_4 
REMARK    3  A    between atoms: C_3  and  C_22 
REMARK       I    between atoms: N_4  and  C_5 
REMARK       I    between atoms: C_5  and  N_6 
REMARK    4  A    between atoms: N_6  and  C_7 
REMARK    5  A    between atoms: C_7  and  C_8 
REMARK    6  A    between atoms: C_11  and  N_12 
REMARK       I    between atoms: N_12  and  C_13 
REMARK       I    between atoms: C_13  and  N_14 
REMARK    7  A    between atoms: N_14  and  C_15 
ROOT
HETATM    1  N   UNL     1      42.242 -16.195   4.691  1.00  0.00    -0.331 N 
HETATM    2  C   UNL     1      41.964 -14.903   4.361  1.00  0.00     0.317 C 
HETATM    3  N   UNL     1      40.620 -14.694   4.256  1.00  0.00    -0.339 N 
HETATM    4  O   UNL     1      42.813 -14.039   4.188  1.00  0.00    -0.247 OA
HETATM    5  H   UNL     1      41.500 -16.753   5.095  1.00  0.00     0.165 HD
HETATM    6  H   UNL     1      40.074 -15.497   3.979  1.00  0.00     0.164 HD
ENDROOT
BRANCH   1   7
HETATM    7  C   UNL     1      43.590 -16.652   4.981  1.00  0.00     0.159 C 
BRANCH   7   8
HETATM    8  C   UNL     1      43.880 -16.716   6.505  1.00  0.00     0.008 C 
HETATM    9  C   UNL     1      42.655 -17.184   7.297  1.00  0.00     0.012 C 
HETATM   10  C   UNL     1      44.413 -15.405   7.094  1.00  0.00     0.012 C 
ENDBRANCH   7   8
BRANCH   7  11
HETATM   11  C   UNL     1      43.736 -17.982   4.295  1.00  0.00     0.128 A 
HETATM   12  N   UNL     1      43.299 -18.303   3.090  1.00  0.00    -0.231 NA
HETATM   13  C   UNL     1      43.660 -19.615   2.903  1.00  0.00     0.085 A 
HETATM   14  C   UNL     1      44.348 -20.103   4.008  1.00  0.00     0.062 A 
HETATM   15  C   UNL     1      43.431 -20.461   1.809  1.00  0.00     0.034 A 
HETATM   16  N   UNL     1      44.396 -19.040   4.873  1.00  0.00    -0.341 N 
HETATM   17  C   UNL     1      44.832 -21.409   4.093  1.00  0.00     0.032 A 
HETATM   18  H   UNL     1      44.834 -19.038   5.783  1.00  0.00     0.167 HD
HETATM   19  C   UNL     1      44.594 -22.240   2.992  1.00  0.00     0.002 A 
HETATM   20  C   UNL     1      43.905 -21.778   1.868  1.00  0.00     0.002 A 
ENDBRANCH   7  11
ENDBRANCH   1   7
BRANCH   3  21
HETATM   21  C   UNL     1      40.104 -13.394   3.890  1.00  0.00     0.162 C 
BRANCH  21  22
HETATM   22  C   UNL     1      40.049 -12.482   5.088  1.00  0.00    -0.040 A 
HETATM   23  C   UNL     1      40.679 -11.230   5.059  1.00  0.00     0.011 A 
HETATM   24  C   UNL     1      40.683 -10.403   6.187  1.00  0.00     0.030 A 
HETATM   25  C   UNL     1      40.051 -10.807   7.363  1.00  0.00     0.036 A 
HETATM   26  C   UNL     1      39.375 -12.033   7.378  1.00  0.00     0.030 A 
HETATM   27  C   UNL     1      39.377 -12.866   6.253  1.00  0.00     0.011 A 
BRANCH  25  28
HETATM   28  N   UNL     1      40.060 -10.056   8.555  1.00  0.00    -0.309 N 
HETATM   29  C   UNL     1      40.992 -10.117   9.572  1.00  0.00     0.321 C 
HETATM   30  N   UNL     1      40.637  -9.262  10.598  1.00  0.00    -0.339 N 
HETATM   31  O   UNL     1      41.974 -10.845   9.616  1.00  0.00    -0.247 OA
HETATM   32  H   UNL     1      40.145  -8.431  10.311  1.00  0.00     0.164 HD
HETATM   33  H   UNL     1      39.202  -9.583   8.793  1.00  0.00     0.170 HD
BRANCH  30  34
HETATM   34  C   UNL     1      41.376  -9.166  11.854  1.00  0.00     0.078 C 
HETATM   35  C   UNL     1      42.288  -7.942  11.902  1.00  0.00     0.032 C 
HETATM   36  C   UNL     1      40.461  -9.238  13.073  1.00  0.00     0.032 C 
ENDBRANCH  30  34
ENDBRANCH  25  28
ENDBRANCH  21  22
ENDBRANCH   3  21
TORSDOF 7
ENDMDL
MODEL 2
REMARK VINA RESULT:      -8.0      3.621     10.279
REMARK  7 active torsions:
REMARK  status: ('A' for Active; 'I' for Inactive)
REMARK    1  A    between atoms: C_2  and  C_3 
REMARK    2  A    between atoms: C_3  and  N_4 
REMARK    3  A    between atoms: C_3  and  C_22 
REMARK       I    between atoms: N_4  and  C_5 
REMARK       I    between atoms: C_5  and  N_6 
REMARK    4  A    between atoms: N_6  and  C_7 
REMARK    5  A    between atoms: C_7  and  C_8 
REMARK    6  A    between atoms: C_11  and  N_12 
REMARK       I    between atoms: N_12  and  C_13 
REMARK       I    between atoms: C_13  and  N_14 
REMARK    7  A    between atoms: N_14  and  C_15 
ROOT
HETATM    1  N   UNL     1      41.804 -13.029   6.559  1.00  0.00    -0.331 N 
HETATM    2  C   UNL     1      42.590 -13.899   5.866  1.00  0.00     0.317 C 
HETATM    3  N   UNL     1      42.186 -15.189   6.046  1.00  0.00    -0.339 N 
HETATM    4  O   UNL     1      43.536 -13.563   5.164  1.00  0.00    -0.247 OA
HETATM    5  H   UNL     1      40.894 -13.349   6.864  1.00  0.00     0.165 HD
HETATM    6  H   UNL     1      41.736 -15.386   6.928  1.00  0.00     0.164 HD
ENDROOT
BRANCH   1   7
HETATM    7  C   UNL     1      41.948 -11.588   6.445  1.00  0.00     0.159 C 
BRANCH   7   8
HETATM    8  C   UNL     1      40.702 -10.917   5.807  1.00  0.00     0.008 C 
HETATM    9  C   UNL     1      39.471 -11.828   5.872  1.00  0.00     0.012 C 
HETATM   10  C   UNL     1      40.920 -10.434   4.369  1.00  0.00     0.012 C 
ENDBRANCH   7   8
BRANCH   7  11
HETATM   11  C   UNL     1      42.245 -11.087   7.830  1.00  0.00     0.128 A 
HETATM   12  N   UNL     1      41.578 -10.160   8.496  1.00  0.00    -0.231 NA
HETATM   13  C   UNL     1      42.220 -10.038   9.704  1.00  0.00     0.085 A 
HETATM   14  C   UNL     1      43.291 -10.921   9.788  1.00  0.00     0.062 A 
HETATM   15  C   UNL     1      41.944  -9.189  10.785  1.00  0.00     0.034 A 
HETATM   16  N   UNL     1      43.276 -11.587   8.590  1.00  0.00    -0.341 N 
HETATM   17  C   UNL     1      44.122 -11.012  10.906  1.00  0.00     0.032 A 
HETATM   18  H   UNL     1      43.918 -12.313   8.310  1.00  0.00     0.167 HD
HETATM   19  C   UNL     1      43.833 -10.156  11.975  1.00  0.00     0.002 A 
HETATM   20  C   UNL     1      42.764  -9.258  11.919  1.00  0.00     0.002 A 
ENDBRANCH   7  11
ENDBRANCH   1   7
BRANCH   3  21
HETATM   21  C   UNL     1      42.898 -16.278   5.416  1.00  0.00     0.162 C 
BRANCH  21  22
HETATM   22  C   UNL     1      42.497 -16.416   3.971  1.00  0.00    -0.040 A 
HETATM   23  C   UNL     1      43.469 -16.446   2.962  1.00  0.00     0.011 A 
HETATM   24  C   UNL     1      43.103 -16.514   1.614  1.00  0.00     0.030 A 
HETATM   25  C   UNL     1      41.758 -16.564   1.248  1.00  0.00     0.036 A 
HETATM   26  C   UNL     1      40.786 -16.590   2.255  1.00  0.00     0.030 A 
HETATM   27  C   UNL     1      41.150 -16.512   3.605  1.00  0.00     0.011 A 
BRANCH  25  28
HETATM   28  N   UNL     1      41.309 -16.577  -0.088  1.00  0.00    -0.309 N 
HETATM   29  C   UNL     1      40.838 -15.506  -0.819  1.00  0.00     0.321 C 
HETATM   30  N   UNL     1      40.448 -15.922  -2.078  1.00  0.00    -0.339 N 
HETATM   31  O   UNL     1      40.719 -14.354  -0.428  1.00  0.00    -0.247 OA
HETATM   32  H   UNL     1      40.973 -16.695  -2.455  1.00  0.00     0.164 HD
HETATM   33  H   UNL     1      41.114 -17.483  -0.485  1.00  0.00     0.170 HD
BRANCH  30  34
HETATM   34  C   UNL     1      39.823 -15.037  -3.058  1.00  0.00     0.078 C 
HETATM   35  C   UNL     1      40.821 -14.070  -3.692  1.00  0.00     0.032 C 
HETATM   36  C   UNL     1      39.031 -15.804  -4.113  1.00  0.00     0.032 C 
ENDBRANCH  30  34
ENDBRANCH  25  28
ENDBRANCH  21  22
ENDBRANCH   3  21
TORSDOF 7
ENDMDL
MODEL 3
REMARK VINA RESULT:      -7.9      3.957      6.835
REMARK  7 active torsions:
REMARK  status: ('A' for Active; 'I' for Inactive)
REMARK    1  A    between atoms: C_2  and  C_3 
REMARK    2  A    between atoms: C_3  and  N_4 
REMARK    3  A    between atoms: C_3  and  C_22 
REMARK       I    between atoms: N_4  and  C_5 
REMARK       I    between atoms: C_5  and  N_6 
REMARK    4  A    between atoms: N_6  and  C_7 
REMARK    5  A    between atoms: C_7  and  C_8 
REMARK    6  A    between atoms: C_11  and  N_12 
REMARK       I    between atoms: N_12  and  C_13 
REMARK       I    between atoms: C_13  and  N_14 
REMARK    7  A    between atoms: N_14  and  C_15 
ROOT
HETATM    1  N   UNL     1      42.088 -16.570   5.056  1.00  0.00    -0.331 N 
HETATM    2  C   UNL     1      41.606 -15.303   4.914  1.00  0.00     0.317 C 
HETATM    3  N   UNL     1      40.242 -15.285   4.913  1.00  0.00    -0.339 N 
HETATM    4  O   UNL     1      42.310 -14.307   4.807  1.00  0.00    -0.247 OA
HETATM    5  H   UNL     1      41.465 -17.277   5.425  1.00  0.00     0.165 HD
HETATM    6  H   UNL     1      39.795 -16.121   4.565  1.00  0.00     0.164 HD
ENDROOT
BRANCH   1   7
HETATM    7  C   UNL     1      43.504 -16.852   5.206  1.00  0.00     0.159 C 
BRANCH   7   8
HETATM    8  C   UNL     1      43.963 -16.810   6.689  1.00  0.00     0.008 C 
HETATM    9  C   UNL     1      42.883 -17.348   7.633  1.00  0.00     0.012 C 
HETATM   10  C   UNL     1      44.426 -15.426   7.160  1.00  0.00     0.012 C 
ENDBRANCH   7   8
BRANCH   7  11
HETATM   11  C   UNL     1      43.736 -18.186   4.554  1.00  0.00     0.128 A 
HETATM   12  N   UNL     1      44.332 -19.237   5.091  1.00  0.00    -0.231 NA
HETATM   13  C   UNL     1      44.313 -20.209   4.122  1.00  0.00     0.085 A 
HETATM   14  C   UNL     1      43.675 -19.753   2.974  1.00  0.00     0.062 A 
HETATM   15  C   UNL     1      44.823 -21.514   4.150  1.00  0.00     0.034 A 
HETATM   16  N   UNL     1      43.305 -18.469   3.280  1.00  0.00    -0.341 N 
HETATM   17  C   UNL     1      43.513 -20.532   1.827  1.00  0.00     0.032 A 
HETATM   18  H   UNL     1      42.809 -17.836   2.670  1.00  0.00     0.167 HD
HETATM   19  C   UNL     1      44.031 -21.832   1.872  1.00  0.00     0.002 A 
HETATM   20  C   UNL     1      44.676 -22.318   3.013  1.00  0.00     0.002 A 
ENDBRANCH   7  11
ENDBRANCH   1   7
BRANCH   3  21
HETATM   21  C   UNL     1      39.523 -14.042   4.750  1.00  0.00     0.162 C 
BRANCH  21  22
HETATM   22  C   UNL     1      39.666 -13.520   3.344  1.00  0.00    -0.040 A 
HETATM   23  C   UNL     1      39.550 -14.387   2.248  1.00  0.00     0.011 A 
HETATM   24  C   UNL     1      39.740 -13.922   0.943  1.00  0.00     0.030 A 
HETATM   25  C   UNL     1      40.040 -12.582   0.706  1.00  0.00     0.036 A 
HETATM   26  C   UNL     1      40.102 -11.702   1.793  1.00  0.00     0.030 A 
HETATM   27  C   UNL     1      39.922 -12.167   3.102  1.00  0.00     0.011 A 
BRANCH  25  28
HETATM   28  N   UNL     1      40.300 -12.050  -0.573  1.00  0.00    -0.309 N 
HETATM   29  C   UNL     1      41.533 -11.748  -1.115  1.00  0.00     0.321 C 
HETATM   30  N   UNL     1      41.380 -11.202  -2.376  1.00  0.00    -0.339 N 
HETATM   31  O   UNL     1      42.620 -11.883  -0.572  1.00  0.00    -0.247 OA
HETATM   32  H   UNL     1      40.585 -11.540  -2.895  1.00  0.00     0.164 HD
HETATM   33  H   UNL     1      39.512 -11.656  -1.063  1.00  0.00     0.170 HD
BRANCH  30  34
HETATM   34  C   UNL     1      42.495 -10.698  -3.173  1.00  0.00     0.078 C 
HETATM   35  C   UNL     1      42.309 -10.956  -4.667  1.00  0.00     0.032 C 
HETATM   36  C   UNL     1      42.798  -9.230  -2.886  1.00  0.00     0.032 C 
ENDBRANCH  30  34
ENDBRANCH  25  28
ENDBRANCH  21  22
ENDBRANCH   3  21
TORSDOF 7
ENDMDL
MODEL 4
REMARK VINA RESULT:      -7.9      5.111      8.614
REMARK  7 active torsions:
REMARK  status: ('A' for Active; 'I' for Inactive)
REMARK    1  A    between atoms: C_2  and  C_3 
REMARK    2  A    between atoms: C_3  and  N_4 
REMARK    3  A    between atoms: C_3  and  C_22 
REMARK       I    between atoms: N_4  and  C_5 
REMARK       I    between atoms: C_5  and  N_6 
REMARK    4  A    between atoms: N_6  and  C_7 
REMARK    5  A    between atoms: C_7  and  C_8 
REMARK    6  A    between atoms: C_11  and  N_12 
REMARK       I    between atoms: N_12  and  C_13 
REMARK       I    between atoms: C_13  and  N_14 
REMARK    7  A    between atoms: N_14  and  C_15 
ROOT
HETATM    1  N   UNL     1      42.507 -16.162   3.885  1.00  0.00    -0.331 N 
HETATM    2  C   UNL     1      42.671 -15.049   3.115  1.00  0.00     0.317 C 
HETATM    3  N   UNL     1      41.495 -14.665   2.538  1.00  0.00    -0.339 N 
HETATM    4  O   UNL     1      43.736 -14.465   2.967  1.00  0.00    -0.247 OA
HETATM    5  H   UNL     1      41.570 -16.400   4.184  1.00  0.00     0.165 HD
HETATM    6  H   UNL     1      40.836 -15.408   2.357  1.00  0.00     0.164 HD
ENDROOT
BRANCH   1   7
HETATM    7  C   UNL     1      43.577 -16.707   4.703  1.00  0.00     0.159 C 
BRANCH   7   8
HETATM    8  C   UNL     1      43.249 -16.654   6.219  1.00  0.00     0.008 C 
HETATM    9  C   UNL     1      41.738 -16.593   6.471  1.00  0.00     0.012 C 
HETATM   10  C   UNL     1      43.951 -15.517   6.971  1.00  0.00     0.012 C 
ENDBRANCH   7   8
BRANCH   7  11
HETATM   11  C   UNL     1      43.819 -18.102   4.198  1.00  0.00     0.128 A 
HETATM   12  N   UNL     1      43.616 -18.545   2.970  1.00  0.00    -0.231 NA
HETATM   13  C   UNL     1      43.972 -19.871   2.992  1.00  0.00     0.085 A 
HETATM   14  C   UNL     1      44.418 -20.244   4.254  1.00  0.00     0.062 A 
HETATM   15  C   UNL     1      43.939 -20.826   1.966  1.00  0.00     0.034 A 
HETATM   16  N   UNL     1      44.326 -19.097   4.999  1.00  0.00    -0.341 N 
HETATM   17  C   UNL     1      44.843 -21.538   4.565  1.00  0.00     0.032 A 
HETATM   18  H   UNL     1      44.577 -19.002   5.972  1.00  0.00     0.167 HD
HETATM   19  C   UNL     1      44.801 -22.478   3.529  1.00  0.00     0.002 A 
HETATM   20  C   UNL     1      44.357 -22.132   2.250  1.00  0.00     0.002 A 
ENDBRANCH   7  11
ENDBRANCH   1   7
BRANCH   3  21
HETATM   21  C   UNL     1      41.447 -13.517   1.661  1.00  0.00     0.162 C 
BRANCH  21  22
HETATM   22  C   UNL     1      40.553 -13.784   0.478  1.00  0.00    -0.040 A 
HETATM   23  C   UNL     1      41.103 -14.069  -0.780  1.00  0.00     0.011 A 
HETATM   24  C   UNL     1      40.281 -14.259  -1.895  1.00  0.00     0.030 A 
HETATM   25  C   UNL     1      38.895 -14.178  -1.775  1.00  0.00     0.036 A 
HETATM   26  C   UNL     1      38.340 -13.948  -0.510  1.00  0.00     0.030 A 
HETATM   27  C   UNL     1      39.161 -13.748   0.607  1.00  0.00     0.011 A 
BRANCH  25  28
HETATM   28  N   UNL     1      38.005 -14.301  -2.860  1.00  0.00    -0.309 N 
HETATM   29  C   UNL     1      37.402 -13.279  -3.564  1.00  0.00     0.321 C 
HETATM   30  N   UNL     1      36.558 -13.795  -4.530  1.00  0.00    -0.339 N 
HETATM   31  O   UNL     1      37.531 -12.080  -3.360  1.00  0.00    -0.247 OA
HETATM   32  H   UNL     1      36.847 -14.678  -4.921  1.00  0.00     0.164 HD
HETATM   33  H   UNL     1      37.603 -15.214  -3.007  1.00  0.00     0.170 HD
BRANCH  30  34
HETATM   34  C   UNL     1      35.709 -12.966  -5.381  1.00  0.00     0.078 C 
HETATM   35  C   UNL     1      35.485 -13.583  -6.760  1.00  0.00     0.032 C 
HETATM   36  C   UNL     1      34.392 -12.597  -4.705  1.00  0.00     0.032 C 
ENDBRANCH  30  34
ENDBRANCH  25  28
ENDBRANCH  21  22
ENDBRANCH   3  21
TORSDOF 7
ENDMDL
MODEL 5
REMARK VINA RESULT:      -7.7      5.178      9.880
REMARK  7 active torsions:
REMARK  status: ('A' for Active; 'I' for Inactive)
REMARK    1  A    between atoms: C_2  and  C_3 
REMARK    2  A    between atoms: C_3  and  N_4 
REMARK    3  A    between atoms: C_3  and  C_22 
REMARK       I    between atoms: N_4  and  C_5 
REMARK       I    between atoms: C_5  and  N_6 
REMARK    4  A    between atoms: N_6  and  C_7 
REMARK    5  A    between atoms: C_7  and  C_8 
REMARK    6  A    between atoms: C_11  and  N_12 
REMARK       I    between atoms: N_12  and  C_13 
REMARK       I    between atoms: C_13  and  N_14 
REMARK    7  A    between atoms: N_14  and  C_15 
ROOT
HETATM    1  N   UNL     1      42.296 -11.847  -0.250  1.00  0.00    -0.331 N 
HETATM    2  C   UNL     1      41.545 -12.174   0.839  1.00  0.00     0.317 C 
HETATM    3  N   UNL     1      42.330 -12.500   1.906  1.00  0.00    -0.339 N 
HETATM    4  O   UNL     1      40.321 -12.168   0.859  1.00  0.00    -0.247 OA
HETATM    5  H   UNL     1      43.265 -11.596  -0.102  1.00  0.00     0.165 HD
HETATM    6  H   UNL     1      43.232 -12.894   1.680  1.00  0.00     0.164 HD
ENDROOT
BRANCH   1   7
HETATM    7  C   UNL     1      41.707 -11.347  -1.480  1.00  0.00     0.159 C 
BRANCH   7   8
HETATM    8  C   UNL     1      42.767 -10.747  -2.443  1.00  0.00     0.008 C 
HETATM    9  C   UNL     1      43.568  -9.624  -1.777  1.00  0.00     0.012 C 
HETATM   10  C   UNL     1      42.192 -10.259  -3.778  1.00  0.00     0.012 C 
ENDBRANCH   7   8
BRANCH   7  11
HETATM   11  C   UNL     1      40.949 -12.499  -2.078  1.00  0.00     0.128 A 
HETATM   12  N   UNL     1      41.448 -13.662  -2.459  1.00  0.00    -0.231 NA
HETATM   13  C   UNL     1      40.384 -14.381  -2.943  1.00  0.00     0.085 A 
HETATM   14  C   UNL     1      39.205 -13.652  -2.840  1.00  0.00     0.062 A 
HETATM   15  C   UNL     1      40.347 -15.671  -3.491  1.00  0.00     0.034 A 
HETATM   16  N   UNL     1      39.589 -12.464  -2.274  1.00  0.00    -0.341 N 
HETATM   17  C   UNL     1      37.964 -14.138  -3.260  1.00  0.00     0.032 A 
HETATM   18  H   UNL     1      38.979 -11.693  -2.047  1.00  0.00     0.167 HD
HETATM   19  C   UNL     1      37.947 -15.427  -3.805  1.00  0.00     0.002 A 
HETATM   20  C   UNL     1      39.116 -16.183  -3.921  1.00  0.00     0.002 A 
ENDBRANCH   7  11
ENDBRANCH   1   7
BRANCH   3  21
HETATM   21  C   UNL     1      41.736 -12.902   3.161  1.00  0.00     0.162 C 
BRANCH  21  22
HETATM   22  C   UNL     1      42.031 -14.350   3.454  1.00  0.00    -0.040 A 
HETATM   23  C   UNL     1      42.942 -14.701   4.460  1.00  0.00     0.011 A 
HETATM   24  C   UNL     1      43.266 -16.041   4.699  1.00  0.00     0.030 A 
HETATM   25  C   UNL     1      42.680 -17.055   3.944  1.00  0.00     0.036 A 
HETATM   26  C   UNL     1      41.729 -16.713   2.976  1.00  0.00     0.030 A 
HETATM   27  C   UNL     1      41.410 -15.372   2.728  1.00  0.00     0.011 A 
BRANCH  25  28
HETATM   28  N   UNL     1      42.997 -18.421   4.086  1.00  0.00    -0.309 N 
HETATM   29  C   UNL     1      43.805 -19.179   3.264  1.00  0.00     0.321 C 
HETATM   30  N   UNL     1      43.838 -20.490   3.702  1.00  0.00    -0.339 N 
HETATM   31  O   UNL     1      44.384 -18.796   2.258  1.00  0.00    -0.247 OA
HETATM   32  H   UNL     1      43.749 -20.610   4.699  1.00  0.00     0.164 HD
HETATM   33  H   UNL     1      42.419 -18.951   4.721  1.00  0.00     0.170 HD
BRANCH  30  34
HETATM   34  C   UNL     1      44.537 -21.557   2.991  1.00  0.00     0.078 C 
HETATM   35  C   UNL     1      44.730 -22.804   3.851  1.00  0.00     0.032 C 
HETATM   36  C   UNL     1      43.883 -21.889   1.653  1.00  0.00     0.032 C 
ENDBRANCH  30  34
ENDBRANCH  25  28
ENDBRANCH  21  22
ENDBRANCH   3  21
TORSDOF 7
ENDMDL
MODEL 6
REMARK VINA RESULT:      -7.7      3.135      4.631
REMARK  7 active torsions:
REMARK  status: ('A' for Active; 'I' for Inactive)
REMARK    1  A    between atoms: C_2  and  C_3 
REMARK    2  A    between atoms: C_3  and  N_4 
REMARK    3  A    between atoms: C_3  and  C_22 
REMARK       I    between atoms: N_4  and  C_5 
REMARK       I    between atoms: C_5  and  N_6 
REMARK    4  A    between atoms: N_6  and  C_7 
REMARK    5  A    between atoms: C_7  and  C_8 
REMARK    6  A    between atoms: C_11  and  N_12 
REMARK       I    between atoms: N_12  and  C_13 
REMARK       I    between atoms: C_13  and  N_14 
REMARK    7  A    between atoms: N_14  and  C_15 
ROOT
HETATM    1  N   UNL     1      40.281 -13.345   0.748  1.00  0.00    -0.331 N 
HETATM    2  C   UNL     1      39.264 -13.056   1.608  1.00  0.00     0.317 C 
HETATM    3  N   UNL     1      39.442 -11.839   2.199  1.00  0.00    -0.339 N 
HETATM    4  O   UNL     1      38.309 -13.792   1.817  1.00  0.00    -0.247 OA
HETATM    5  H   UNL     1      40.857 -12.581   0.418  1.00  0.00     0.165 HD
HETATM    6  H   UNL     1      40.402 -11.545   2.310  1.00  0.00     0.164 HD
ENDROOT
BRANCH   1   7
HETATM    7  C   UNL     1      40.274 -14.526  -0.098  1.00  0.00     0.159 C 
BRANCH   7   8
HETATM    8  C   UNL     1      40.815 -14.237  -1.524  1.00  0.00     0.008 C 
HETATM    9  C   UNL     1      41.679 -12.971  -1.557  1.00  0.00     0.012 C 
HETATM   10  C   UNL     1      39.727 -14.155  -2.601  1.00  0.00     0.012 C 
ENDBRANCH   7   8
BRANCH   7  11
HETATM   11  C   UNL     1      41.068 -15.570   0.635  1.00  0.00     0.128 A 
HETATM   12  N   UNL     1      40.777 -16.107   1.808  1.00  0.00    -0.231 NA
HETATM   13  C   UNL     1      41.787 -16.999   2.067  1.00  0.00     0.085 A 
HETATM   14  C   UNL     1      42.707 -17.024   1.025  1.00  0.00     0.062 A 
HETATM   15  C   UNL     1      41.989 -17.828   3.180  1.00  0.00     0.034 A 
HETATM   16  N   UNL     1      42.219 -16.117   0.120  1.00  0.00    -0.341 N 
HETATM   17  C   UNL     1      43.840 -17.840   1.023  1.00  0.00     0.032 A 
HETATM   18  H   UNL     1      42.637 -15.885  -0.768  1.00  0.00     0.167 HD
HETATM   19  C   UNL     1      44.026 -18.660   2.142  1.00  0.00     0.002 A 
HETATM   20  C   UNL     1      43.118 -18.656   3.205  1.00  0.00     0.002 A 
ENDBRANCH   7  11
ENDBRANCH   1   7
BRANCH   3  21
HETATM   21  C   UNL     1      38.489 -11.346   3.167  1.00  0.00     0.162 C 
BRANCH  21  22
HETATM   22  C   UNL     1      39.087 -11.333   4.550  1.00  0.00    -0.040 A 
HETATM   23  C   UNL     1      39.390 -12.534   5.205  1.00  0.00     0.011 A 
HETATM   24  C   UNL     1      39.890 -12.533   6.512  1.00  0.00     0.030 A 
HETATM   25  C   UNL     1      40.105 -11.331   7.185  1.00  0.00     0.036 A 
HETATM   26  C   UNL     1      39.855 -10.128   6.514  1.00  0.00     0.030 A 
HETATM   27  C   UNL     1      39.346 -10.127   5.210  1.00  0.00     0.011 A 
BRANCH  25  28
HETATM   28  N   UNL     1      40.551 -11.249   8.519  1.00  0.00    -0.309 N 
HETATM   29  C   UNL     1      41.806 -10.875   8.956  1.00  0.00     0.321 C 
HETATM   30  N   UNL     1      41.878 -10.962  10.334  1.00  0.00    -0.339 N 
HETATM   31  O   UNL     1      42.756 -10.555   8.255  1.00  0.00    -0.247 OA
HETATM   32  H   UNL     1      41.015 -10.776  10.819  1.00  0.00     0.164 HD
HETATM   33  H   UNL     1      39.978 -11.704   9.212  1.00  0.00     0.170 HD
BRANCH  30  34
HETATM   34  C   UNL     1      43.102 -10.716  11.090  1.00  0.00     0.078 C 
HETATM   35  C   UNL     1      42.834 -10.036  12.432  1.00  0.00     0.032 C 
HETATM   36  C   UNL     1      43.948 -11.976  11.254  1.00  0.00     0.032 C 
ENDBRANCH  30  34
ENDBRANCH  25  28
ENDBRANCH  21  22
ENDBRANCH   3  21
TORSDOF 7
ENDMDL
MODEL 7
REMARK VINA RESULT:      -7.6      7.279     10.474
REMARK  7 active torsions:
REMARK  status: ('A' for Active; 'I' for Inactive)
REMARK    1  A    between atoms: C_2  and  C_3 
REMARK    2  A    between atoms: C_3  and  N_4 
REMARK    3  A    between atoms: C_3  and  C_22 
REMARK       I    between atoms: N_4  and  C_5 
REMARK       I    between atoms: C_5  and  N_6 
REMARK    4  A    between atoms: N_6  and  C_7 
REMARK    5  A    between atoms: C_7  and  C_8 
REMARK    6  A    between atoms: C_11  and  N_12 
REMARK       I    between atoms: N_12  and  C_13 
REMARK       I    between atoms: C_13  and  N_14 
REMARK    7  A    between atoms: N_14  and  C_15 
ROOT
HETATM    1  N   UNL     1      40.907 -16.285   0.320  1.00  0.00    -0.331 N 
HETATM    2  C   UNL     1      41.066 -15.478  -0.767  1.00  0.00     0.317 C 
HETATM    3  N   UNL     1      40.465 -16.007  -1.872  1.00  0.00    -0.339 N 
HETATM    4  O   UNL     1      41.666 -14.412  -0.751  1.00  0.00    -0.247 OA
HETATM    5  H   UNL     1      40.169 -16.977   0.295  1.00  0.00     0.165 HD
HETATM    6  H   UNL     1      40.407 -17.015  -1.897  1.00  0.00     0.164 HD
ENDROOT
BRANCH   1   7
HETATM    7  C   UNL     1      41.349 -15.898   1.648  1.00  0.00     0.159 C 
BRANCH   7   8
HETATM    8  C   UNL     1      40.165 -15.520   2.580  1.00  0.00     0.008 C 
HETATM    9  C   UNL     1      38.917 -15.130   1.781  1.00  0.00     0.012 C 
HETATM   10  C   UNL     1      40.498 -14.424   3.598  1.00  0.00     0.012 C 
ENDBRANCH   7   8
BRANCH   7  11
HETATM   11  C   UNL     1      42.166 -17.046   2.168  1.00  0.00     0.128 A 
HETATM   12  N   UNL     1      42.800 -17.106   3.327  1.00  0.00    -0.231 NA
HETATM   13  C   UNL     1      43.407 -18.338   3.354  1.00  0.00     0.085 A 
HETATM   14  C   UNL     1      43.125 -19.055   2.197  1.00  0.00     0.062 A 
HETATM   15  C   UNL     1      44.219 -18.916   4.338  1.00  0.00     0.034 A 
HETATM   16  N   UNL     1      42.322 -18.218   1.466  1.00  0.00    -0.341 N 
HETATM   17  C   UNL     1      43.614 -20.340   1.954  1.00  0.00     0.032 A 
HETATM   18  H   UNL     1      41.921 -18.423   0.563  1.00  0.00     0.167 HD
HETATM   19  C   UNL     1      44.425 -20.901   2.948  1.00  0.00     0.002 A 
HETATM   20  C   UNL     1      44.725 -20.204   4.121  1.00  0.00     0.002 A 
ENDBRANCH   7  11
ENDBRANCH   1   7
BRANCH   3  21
HETATM   21  C   UNL     1      40.532 -15.323  -3.143  1.00  0.00     0.162 C 
BRANCH  21  22
HETATM   22  C   UNL     1      39.268 -14.544  -3.400  1.00  0.00    -0.040 A 
HETATM   23  C   UNL     1      38.098 -15.200  -3.808  1.00  0.00     0.011 A 
HETATM   24  C   UNL     1      36.938 -14.478  -4.106  1.00  0.00     0.030 A 
HETATM   25  C   UNL     1      36.921 -13.089  -3.993  1.00  0.00     0.036 A 
HETATM   26  C   UNL     1      38.070 -12.435  -3.533  1.00  0.00     0.030 A 
HETATM   27  C   UNL     1      39.236 -13.154  -3.244  1.00  0.00     0.011 A 
BRANCH  25  28
HETATM   28  N   UNL     1      35.810 -12.289  -4.328  1.00  0.00    -0.309 N 
HETATM   29  C   UNL     1      35.314 -12.038  -5.592  1.00  0.00     0.321 C 
HETATM   30  N   UNL     1      34.242 -11.169  -5.521  1.00  0.00    -0.339 N 
HETATM   31  O   UNL     1      35.762 -12.464  -6.647  1.00  0.00    -0.247 OA
HETATM   32  H   UNL     1      33.686 -11.243  -4.684  1.00  0.00     0.164 HD
HETATM   33  H   UNL     1      35.469 -11.672  -3.607  1.00  0.00     0.170 HD
BRANCH  30  34
HETATM   34  C   UNL     1      33.556 -10.643  -6.698  1.00  0.00     0.078 C 
HETATM   35  C   UNL     1      32.203 -11.310  -6.933  1.00  0.00     0.032 C 
HETATM   36  C   UNL     1      33.439  -9.121  -6.671  1.00  0.00     0.032 C 
ENDBRANCH  30  34
ENDBRANCH  25  28
ENDBRANCH  21  22
ENDBRANCH   3  21
TORSDOF 7
ENDMDL
MODEL 8
REMARK VINA RESULT:      -7.6      5.158      6.767
REMARK  7 active torsions:
REMARK  status: ('A' for Active; 'I' for Inactive)
REMARK    1  A    between atoms: C_2  and  C_3 
REMARK    2  A    between atoms: C_3  and  N_4 
REMARK    3  A    between atoms: C_3  and  C_22 
REMARK       I    between atoms: N_4  and  C_5 
REMARK       I    between atoms: C_5  and  N_6 
REMARK    4  A    between atoms: N_6  and  C_7 
REMARK    5  A    between atoms: C_7  and  C_8 
REMARK    6  A    between atoms: C_11  and  N_12 
REMARK       I    between atoms: N_12  and  C_13 
REMARK       I    between atoms: C_13  and  N_14 
REMARK    7  A    between atoms: N_14  and  C_15 
ROOT
HETATM    1  N   UNL     1      41.911 -16.371   1.426  1.00  0.00    -0.331 N 
HETATM    2  C   UNL     1      41.683 -15.186   0.795  1.00  0.00     0.317 C 
HETATM    3  N   UNL     1      40.836 -15.339  -0.264  1.00  0.00    -0.339 N 
HETATM    4  O   UNL     1      42.172 -14.118   1.139  1.00  0.00    -0.247 OA
HETATM    5  H   UNL     1      41.258 -17.128   1.267  1.00  0.00     0.165 HD
HETATM    6  H   UNL     1      40.858 -16.244  -0.712  1.00  0.00     0.164 HD
ENDROOT
BRANCH   1   7
HETATM    7  C   UNL     1      42.682 -16.465   2.653  1.00  0.00     0.159 C 
BRANCH   7   8
HETATM    8  C   UNL     1      41.867 -16.028   3.900  1.00  0.00     0.008 C 
HETATM    9  C   UNL     1      42.713 -15.192   4.867  1.00  0.00     0.012 C 
HETATM   10  C   UNL     1      41.207 -17.189   4.653  1.00  0.00     0.012 C 
ENDBRANCH   7   8
BRANCH   7  11
HETATM   11  C   UNL     1      43.170 -17.884   2.733  1.00  0.00     0.128 A 
HETATM   12  N   UNL     1      42.940 -18.850   1.860  1.00  0.00    -0.231 NA
HETATM   13  C   UNL     1      43.578 -19.959   2.359  1.00  0.00     0.085 A 
HETATM   14  C   UNL     1      44.228 -19.663   3.552  1.00  0.00     0.062 A 
HETATM   15  C   UNL     1      43.647 -21.261   1.846  1.00  0.00     0.034 A 
HETATM   16  N   UNL     1      43.965 -18.334   3.760  1.00  0.00    -0.341 N 
HETATM   17  C   UNL     1      44.956 -20.604   4.282  1.00  0.00     0.032 A 
HETATM   18  H   UNL     1      44.292 -17.782   4.539  1.00  0.00     0.167 HD
HETATM   19  C   UNL     1      45.013 -21.900   3.755  1.00  0.00     0.002 A 
HETATM   20  C   UNL     1      44.370 -22.227   2.558  1.00  0.00     0.002 A 
ENDBRANCH   7  11
ENDBRANCH   1   7
BRANCH   3  21
HETATM   21  C   UNL     1      40.478 -14.207  -1.089  1.00  0.00     0.162 C 
BRANCH  21  22
HETATM   22  C   UNL     1      39.321 -13.452  -0.488  1.00  0.00    -0.040 A 
HETATM   23  C   UNL     1      39.315 -12.050  -0.476  1.00  0.00     0.011 A 
HETATM   24  C   UNL     1      38.274 -11.341   0.132  1.00  0.00     0.030 A 
HETATM   25  C   UNL     1      37.214 -12.019   0.731  1.00  0.00     0.036 A 
HETATM   26  C   UNL     1      37.187 -13.418   0.673  1.00  0.00     0.030 A 
HETATM   27  C   UNL     1      38.233 -14.129   0.073  1.00  0.00     0.011 A 
BRANCH  25  28
HETATM   28  N   UNL     1      36.158 -11.378   1.411  1.00  0.00    -0.309 N 
HETATM   29  C   UNL     1      34.942 -10.990   0.886  1.00  0.00     0.321 C 
HETATM   30  N   UNL     1      34.187 -10.351   1.850  1.00  0.00    -0.339 N 
HETATM   31  O   UNL     1      34.572 -11.129  -0.271  1.00  0.00    -0.247 OA
HETATM   32  H   UNL     1      34.335 -10.674   2.794  1.00  0.00     0.164 HD
HETATM   33  H   UNL     1      36.383 -10.974   2.307  1.00  0.00     0.170 HD
BRANCH  30  34
HETATM   34  C   UNL     1      32.886  -9.745   1.580  1.00  0.00     0.078 C 
HETATM   35  C   UNL     1      31.725 -10.668   1.944  1.00  0.00     0.032 C 
HETATM   36  C   UNL     1      32.739  -8.370   2.226  1.00  0.00     0.032 C 
ENDBRANCH  30  34
ENDBRANCH  25  28
ENDBRANCH  21  22
ENDBRANCH   3  21
TORSDOF 7
ENDMDL
MODEL 9
REMARK VINA RESULT:      -7.5      2.605      9.627
REMARK  7 active torsions:
REMARK  status: ('A' for Active; 'I' for Inactive)
REMARK    1  A    between atoms: C_2  and  C_3 
REMARK    2  A    between atoms: C_3  and  N_4 
REMARK    3  A    between atoms: C_3  and  C_22 
REMARK       I    between atoms: N_4  and  C_5 
REMARK       I    between atoms: C_5  and  N_6 
REMARK    4  A    between atoms: N_6  and  C_7 
REMARK    5  A    between atoms: C_7  and  C_8 
REMARK    6  A    between atoms: C_11  and  N_12 
REMARK       I    between atoms: N_12  and  C_13 
REMARK       I    between atoms: C_13  and  N_14 
REMARK    7  A    between atoms: N_14  and  C_15 
ROOT
HETATM    1  N   UNL     1      40.110 -11.163   6.849  1.00  0.00    -0.331 N 
HETATM    2  C   UNL     1      39.937 -11.182   5.497  1.00  0.00     0.317 C 
HETATM    3  N   UNL     1      39.392 -12.362   5.081  1.00  0.00    -0.339 N 
HETATM    4  O   UNL     1      40.226 -10.255   4.753  1.00  0.00    -0.247 OA
HETATM    5  H   UNL     1      39.587 -11.828   7.405  1.00  0.00     0.165 HD
HETATM    6  H   UNL     1      39.605 -13.166   5.653  1.00  0.00     0.164 HD
ENDROOT
BRANCH   1   7
HETATM    7  C   UNL     1      40.562  -9.980   7.559  1.00  0.00     0.159 C 
BRANCH   7   8
HETATM    8  C   UNL     1      39.455  -9.372   8.462  1.00  0.00     0.008 C 
HETATM    9  C   UNL     1      38.621 -10.459   9.148  1.00  0.00     0.012 C 
HETATM   10  C   UNL     1      38.532  -8.384   7.739  1.00  0.00     0.012 C 
ENDBRANCH   7   8
BRANCH   7  11
HETATM   11  C   UNL     1      41.787 -10.395   8.324  1.00  0.00     0.128 A 
HETATM   12  N   UNL     1      42.214  -9.889   9.469  1.00  0.00    -0.231 NA
HETATM   13  C   UNL     1      43.363 -10.577   9.771  1.00  0.00     0.085 A 
HETATM   14  C   UNL     1      43.637 -11.536   8.803  1.00  0.00     0.062 A 
HETATM   15  C   UNL     1      44.232 -10.436  10.862  1.00  0.00     0.034 A 
HETATM   16  N   UNL     1      42.612 -11.410   7.902  1.00  0.00    -0.341 N 
HETATM   17  C   UNL     1      44.747 -12.382   8.855  1.00  0.00     0.032 A 
HETATM   18  H   UNL     1      42.488 -11.962   7.066  1.00  0.00     0.167 HD
HETATM   19  C   UNL     1      45.604 -12.226   9.950  1.00  0.00     0.002 A 
HETATM   20  C   UNL     1      45.355 -11.270  10.939  1.00  0.00     0.002 A 
ENDBRANCH   7  11
ENDBRANCH   1   7
BRANCH   3  21
HETATM   21  C   UNL     1      39.145 -12.603   3.677  1.00  0.00     0.162 C 
BRANCH  21  22
HETATM   22  C   UNL     1      39.946 -13.781   3.187  1.00  0.00    -0.040 A 
HETATM   23  C   UNL     1      39.381 -14.705   2.296  1.00  0.00     0.011 A 
HETATM   24  C   UNL     1      40.097 -15.833   1.883  1.00  0.00     0.030 A 
HETATM   25  C   UNL     1      41.394 -16.056   2.343  1.00  0.00     0.036 A 
HETATM   26  C   UNL     1      41.982 -15.107   3.189  1.00  0.00     0.030 A 
HETATM   27  C   UNL     1      41.264 -13.982   3.612  1.00  0.00     0.011 A 
BRANCH  25  28
HETATM   28  N   UNL     1      42.157 -17.195   2.017  1.00  0.00    -0.309 N 
HETATM   29  C   UNL     1      42.427 -18.277   2.829  1.00  0.00     0.321 C 
HETATM   30  N   UNL     1      43.248 -19.175   2.172  1.00  0.00    -0.339 N 
HETATM   31  O   UNL     1      42.055 -18.432   3.984  1.00  0.00    -0.247 OA
HETATM   32  H   UNL     1      43.123 -19.216   1.173  1.00  0.00     0.164 HD
HETATM   33  H   UNL     1      42.735 -17.125   1.194  1.00  0.00     0.170 HD
BRANCH  30  34
HETATM   34  C   UNL     1      43.783 -20.380   2.799  1.00  0.00     0.078 C 
HETATM   35  C   UNL     1      44.018 -21.506   1.794  1.00  0.00     0.032 C 
HETATM   36  C   UNL     1      45.029 -20.098   3.633  1.00  0.00     0.032 C 
ENDBRANCH  30  34
ENDBRANCH  25  28
ENDBRANCH  21  22
ENDBRANCH   3  21
TORSDOF 7
ENDMDL
MODEL 10
REMARK VINA RESULT:      -7.3      3.895     10.235
REMARK  7 active torsions:
REMARK  status: ('A' for Active; 'I' for Inactive)
REMARK    1  A    between atoms: C_2  and  C_3 
REMARK    2  A    between atoms: C_3  and  N_4 
REMARK    3  A    between atoms: C_3  and  C_22 
REMARK       I    between atoms: N_4  and  C_5 
REMARK       I    between atoms: C_5  and  N_6 
REMARK    4  A    between atoms: N_6  and  C_7 
REMARK    5  A    between atoms: C_7  and  C_8 
REMARK    6  A    between atoms: C_11  and  N_12 
REMARK       I    between atoms: N_12  and  C_13 
REMARK       I    between atoms: C_13  and  N_14 
REMARK    7  A    between atoms: N_14  and  C_15 
ROOT
HETATM    1  N   UNL     1      43.900 -12.935   7.648  1.00  0.00    -0.331 N 
HETATM    2  C   UNL     1      43.929 -14.235   7.239  1.00  0.00     0.317 C 
HETATM    3  N   UNL     1      43.368 -14.381   6.004  1.00  0.00    -0.339 N 
HETATM    4  O   UNL     1      44.406 -15.152   7.893  1.00  0.00    -0.247 OA
HETATM    5  H   UNL     1      43.764 -12.218   6.947  1.00  0.00     0.165 HD
HETATM    6  H   UNL     1      42.648 -13.712   5.770  1.00  0.00     0.164 HD
ENDROOT
BRANCH   1   7
HETATM    7  C   UNL     1      44.539 -12.491   8.874  1.00  0.00     0.159 C 
BRANCH   7   8
HETATM    8  C   UNL     1      45.794 -11.618   8.605  1.00  0.00     0.008 C 
HETATM    9  C   UNL     1      46.908 -12.420   7.923  1.00  0.00     0.012 C 
HETATM   10  C   UNL     1      46.344 -10.914   9.851  1.00  0.00     0.012 C 
ENDBRANCH   7   8
BRANCH   7  11
HETATM   11  C   UNL     1      43.478 -11.774   9.662  1.00  0.00     0.128 A 
HETATM   12  N   UNL     1      42.739 -10.757   9.251  1.00  0.00    -0.231 NA
HETATM   13  C   UNL     1      41.924 -10.441  10.310  1.00  0.00     0.085 A 
HETATM   14  C   UNL     1      42.154 -11.293  11.385  1.00  0.00     0.062 A 
HETATM   15  C   UNL     1      40.957  -9.434  10.428  1.00  0.00     0.034 A 
HETATM   16  N   UNL     1      43.136 -12.140  10.942  1.00  0.00    -0.341 N 
HETATM   17  C   UNL     1      41.467 -11.200  12.597  1.00  0.00     0.032 A 
HETATM   18  H   UNL     1      43.545 -12.898  11.468  1.00  0.00     0.167 HD
HETATM   19  C   UNL     1      40.505 -10.187  12.697  1.00  0.00     0.002 A 
HETATM   20  C   UNL     1      40.253  -9.317  11.634  1.00  0.00     0.002 A 
ENDBRANCH   7  11
ENDBRANCH   1   7
BRANCH   3  21
HETATM   21  C   UNL     1      43.274 -15.686   5.389  1.00  0.00     0.162 C 
BRANCH  21  22
HETATM   22  C   UNL     1      42.548 -15.606   4.071  1.00  0.00    -0.040 A 
HETATM   23  C   UNL     1      42.416 -14.381   3.403  1.00  0.00     0.011 A 
HETATM   24  C   UNL     1      41.692 -14.288   2.210  1.00  0.00     0.030 A 
HETATM   25  C   UNL     1      41.094 -15.418   1.656  1.00  0.00     0.036 A 
HETATM   26  C   UNL     1      41.270 -16.654   2.290  1.00  0.00     0.030 A 
HETATM   27  C   UNL     1      41.986 -16.748   3.490  1.00  0.00     0.011 A 
BRANCH  25  28
HETATM   28  N   UNL     1      40.304 -15.395   0.489  1.00  0.00    -0.309 N 
HETATM   29  C   UNL     1      40.679 -14.951  -0.763  1.00  0.00     0.321 C 
HETATM   30  N   UNL     1      39.616 -15.042  -1.641  1.00  0.00    -0.339 N 
HETATM   31  O   UNL     1      41.768 -14.490  -1.076  1.00  0.00    -0.247 OA
HETATM   32  H   UNL     1      38.978 -15.801  -1.461  1.00  0.00     0.164 HD
HETATM   33  H   UNL     1      39.312 -15.514   0.619  1.00  0.00     0.170 HD
BRANCH  30  34
HETATM   34  C   UNL     1      39.671 -14.567  -3.020  1.00  0.00     0.078 C 
HETATM   35  C   UNL     1      38.901 -15.471  -3.981  1.00  0.00     0.032 C 
HETATM   36  C   UNL     1      39.243 -13.108  -3.150  1.00  0.00     0.032 C 
ENDBRANCH  30  34
ENDBRANCH  25  28
ENDBRANCH  21  22
ENDBRANCH   3  21
TORSDOF 7
ENDMDL
