MODEL 1
REMARK VINA RESULT:      -9.8      0.000      0.000
REMARK  5 active torsions:
REMARK  status: ('A' for Active; 'I' for Inactive)
REMARK    1  A    between atoms: C_2  and  N_3 
REMARK    2  A    between atoms: C_5  and  C_6 
REMARK    3  A    between atoms: C_6  and  C_7 
REMARK       I    between atoms: C_7  and  N_8 
REMARK    4  A    between atoms: N_8  and  C_9 
REMARK    5  A    between atoms: C_16  and  O_17 
ROOT
HETATM    1  C   UNL     1      40.774 -11.599   7.113  1.00  0.00     0.224 C 
HETATM    2  N   UNL     1      41.451 -12.510   6.336  1.00  0.00    -0.351 N 
HETATM    3  O   UNL     1      39.573 -11.667   7.356  1.00  0.00    -0.273 OA
HETATM    4  H   UNL     1      42.349 -12.234   5.949  1.00  0.00     0.163 HD
ENDROOT
BRANCH   2   5
HETATM    5  C   UNL     1      40.764 -13.619   5.714  1.00  0.00     0.135 C 
HETATM    6  C   UNL     1      41.698 -14.780   5.663  1.00  0.00     0.040 A 
HETATM    7  C   UNL     1      41.842 -15.666   4.615  1.00  0.00    -0.021 A 
HETATM    8  N   UNL     1      42.510 -15.192   6.685  1.00  0.00    -0.357 N 
HETATM    9  C   UNL     1      42.806 -16.637   5.005  1.00  0.00     0.002 A 
HETATM   10  C   UNL     1      41.084 -15.525   3.337  1.00  0.00     0.042 C 
HETATM   11  C   UNL     1      43.217 -16.309   6.299  1.00  0.00     0.043 A 
HETATM   12  C   UNL     1      43.376 -17.767   4.385  1.00  0.00     0.051 A 
HETATM   13  C   UNL     1      44.175 -17.055   6.994  1.00  0.00     0.033 A 
HETATM   14  C   UNL     1      44.729 -18.170   6.351  1.00  0.00     0.039 A 
HETATM   15  C   UNL     1      44.337 -18.530   5.061  1.00  0.00     0.069 A 
HETATM   16  C   UNL     1      39.901 -14.547   3.495  1.00  0.00     0.007 C 
HETATM   17  C   UNL     1      40.292 -13.280   4.282  1.00  0.00     0.032 C 
HETATM   18  H   UNL     1      42.589 -14.739   7.584  1.00  0.00     0.166 HD
BRANCH  15  19
HETATM   19  O   UNL     1      44.809 -19.601   4.350  1.00  0.00    -0.356 OA
HETATM   20  C   UNL     1      44.302 -19.774   3.033  1.00  0.00     0.210 C 
ENDBRANCH  15  19
ENDBRANCH   2   5
BRANCH   1  21
HETATM   21  C   UNL     1      41.640 -10.511   7.689  1.00  0.00     0.164 C 
BRANCH  21  22
HETATM   22  C   UNL     1      42.647 -11.018   8.694  1.00  0.00     0.075 A 
HETATM   23  N   UNL     1      43.748 -11.507   8.212  1.00  0.00    -0.172 NA
HETATM   24  N   UNL     1      44.695 -12.016   9.069  1.00  0.00    -0.230 N 
HETATM   25  C   UNL     1      44.507 -12.131  10.447  1.00  0.00     0.275 A 
HETATM   26  C   UNL     1      43.281 -11.528  10.999  1.00  0.00     0.046 A 
HETATM   27  O   UNL     1      45.295 -12.690  11.207  1.00  0.00    -0.266 OA
HETATM   28  C   UNL     1      42.351 -10.950  10.140  1.00  0.00     0.006 A 
HETATM   29  C   UNL     1      43.056 -11.535  12.383  1.00  0.00     0.018 A 
HETATM   30  C   UNL     1      41.198 -10.355  10.667  1.00  0.00     0.014 A 
HETATM   31  C   UNL     1      40.979 -10.358  12.047  1.00  0.00     0.001 A 
HETATM   32  C   UNL     1      41.903 -10.951  12.904  1.00  0.00     0.001 A 
BRANCH  24  33
HETATM   33  C   UNL     1      45.860 -12.669   8.450  1.00  0.00     0.105 C 
HETATM   34  C   UNL     1      46.961 -11.675   8.076  1.00  0.00     0.034 C 
HETATM   35  C   UNL     1      45.427 -13.483   7.228  1.00  0.00     0.034 C 
ENDBRANCH  24  33
ENDBRANCH  21  22
ENDBRANCH   1  21
TORSDOF 5
ENDMDL
MODEL 2
REMARK VINA RESULT:      -9.2      5.134      9.409
REMARK  5 active torsions:
REMARK  status: ('A' for Active; 'I' for Inactive)
REMARK    1  A    between atoms: C_2  and  N_3 
REMARK    2  A    between atoms: C_5  and  C_6 
REMARK    3  A    between atoms: C_6  and  C_7 
REMARK       I    between atoms: C_7  and  N_8 
REMARK    4  A    between atoms: N_8  and  C_9 
REMARK    5  A    between atoms: C_16  and  O_17 
ROOT
HETATM    1  C   UNL     1      42.095 -16.830   1.273  1.00  0.00     0.224 C 
HETATM    2  N   UNL     1      42.441 -15.530   1.561  1.00  0.00    -0.351 N 
HETATM    3  O   UNL     1      40.961 -17.184   0.966  1.00  0.00    -0.273 OA
HETATM    4  H   UNL     1      43.301 -15.368   2.077  1.00  0.00     0.163 HD
ENDROOT
BRANCH   2   5
HETATM    5  C   UNL     1      41.455 -14.474   1.548  1.00  0.00     0.135 C 
HETATM    6  C   UNL     1      41.700 -13.618   0.353  1.00  0.00     0.040 A 
HETATM    7  C   UNL     1      41.618 -12.241   0.305  1.00  0.00    -0.021 A 
HETATM    8  N   UNL     1      41.974 -14.073  -0.908  1.00  0.00    -0.357 N 
HETATM    9  C   UNL     1      41.886 -11.842  -1.034  1.00  0.00     0.002 A 
HETATM   10  C   UNL     1      41.313 -11.414   1.510  1.00  0.00     0.042 C 
HETATM   11  C   UNL     1      42.117 -13.007  -1.769  1.00  0.00     0.043 A 
HETATM   12  C   UNL     1      41.957 -10.602  -1.699  1.00  0.00     0.051 A 
HETATM   13  C   UNL     1      42.424 -12.986  -3.133  1.00  0.00     0.033 A 
HETATM   14  C   UNL     1      42.494 -11.738  -3.769  1.00  0.00     0.039 A 
HETATM   15  C   UNL     1      42.262 -10.555  -3.067  1.00  0.00     0.069 A 
HETATM   16  C   UNL     1      40.746 -12.282   2.653  1.00  0.00     0.007 C 
HETATM   17  C   UNL     1      41.522 -13.603   2.824  1.00  0.00     0.032 C 
HETATM   18  H   UNL     1      42.067 -15.045  -1.168  1.00  0.00     0.166 HD
BRANCH  15  19
HETATM   19  O   UNL     1      42.298  -9.291  -3.593  1.00  0.00    -0.356 OA
HETATM   20  C   UNL     1      42.525  -8.221  -2.684  1.00  0.00     0.210 C 
ENDBRANCH  15  19
ENDBRANCH   2   5
BRANCH   1  21
HETATM   21  C   UNL     1      43.243 -17.803   1.324  1.00  0.00     0.164 C 
BRANCH  21  22
HETATM   22  C   UNL     1      43.527 -18.323   2.713  1.00  0.00     0.075 A 
HETATM   23  N   UNL     1      43.419 -17.467   3.683  1.00  0.00    -0.172 NA
HETATM   24  N   UNL     1      43.695 -17.864   4.970  1.00  0.00    -0.230 N 
HETATM   25  C   UNL     1      44.187 -19.128   5.299  1.00  0.00     0.275 A 
HETATM   26  C   UNL     1      44.258 -20.114   4.206  1.00  0.00     0.046 A 
HETATM   27  O   UNL     1      44.547 -19.456   6.428  1.00  0.00    -0.266 OA
HETATM   28  C   UNL     1      43.914 -19.734   2.913  1.00  0.00     0.006 A 
HETATM   29  C   UNL     1      44.670 -21.428   4.471  1.00  0.00     0.018 A 
HETATM   30  C   UNL     1      43.958 -20.678   1.879  1.00  0.00     0.014 A 
HETATM   31  C   UNL     1      44.362 -21.989   2.147  1.00  0.00     0.001 A 
HETATM   32  C   UNL     1      44.723 -22.362   3.439  1.00  0.00     0.001 A 
BRANCH  24  33
HETATM   33  C   UNL     1      43.676 -16.813   6.001  1.00  0.00     0.105 C 
HETATM   34  C   UNL     1      42.529 -16.988   6.997  1.00  0.00     0.034 C 
HETATM   35  C   UNL     1      43.623 -15.429   5.350  1.00  0.00     0.034 C 
ENDBRANCH  24  33
ENDBRANCH  21  22
ENDBRANCH   1  21
TORSDOF 5
ENDMDL
MODEL 3
REMARK VINA RESULT:      -9.2      5.100      9.030
REMARK  5 active torsions:
REMARK  status: ('A' for Active; 'I' for Inactive)
REMARK    1  A    between atoms: C_2  and  N_3 
REMARK    2  A    between atoms: C_5  and  C_6 
REMARK    3  A    between atoms: C_6  and  C_7 
REMARK       I    between atoms: C_7  and  N_8 
REMARK    4  A    between atoms: N_8  and  C_9 
REMARK    5  A    between atoms: C_16  and  O_17 
ROOT
HETATM    1  C   UNL     1      42.904 -16.867   1.999  1.00  0.00     0.224 C 
HETATM    2  N   UNL     1      41.603 -17.283   2.158  1.00  0.00    -0.351 N 
HETATM    3  O   UNL     1      43.231 -15.702   1.796  1.00  0.00    -0.273 OA
HETATM    4  H   UNL     1      41.397 -18.269   2.030  1.00  0.00     0.163 HD
ENDROOT
BRANCH   2   5
HETATM    5  C   UNL     1      40.503 -16.349   2.062  1.00  0.00     0.135 C 
HETATM    6  C   UNL     1      40.618 -15.621   0.766  1.00  0.00     0.040 A 
HETATM    7  C   UNL     1      40.380 -14.277   0.561  1.00  0.00    -0.021 A 
HETATM    8  N   UNL     1      40.909 -16.192  -0.443  1.00  0.00    -0.357 N 
HETATM    9  C   UNL     1      40.567 -14.016  -0.825  1.00  0.00     0.002 A 
HETATM   10  C   UNL     1      40.016 -13.350   1.672  1.00  0.00     0.042 C 
HETATM   11  C   UNL     1      40.909 -15.228  -1.427  1.00  0.00     0.043 A 
HETATM   12  C   UNL     1      40.480 -12.865  -1.633  1.00  0.00     0.051 A 
HETATM   13  C   UNL     1      41.175 -15.338  -2.796  1.00  0.00     0.033 A 
HETATM   14  C   UNL     1      41.087 -14.176  -3.575  1.00  0.00     0.039 A 
HETATM   15  C   UNL     1      40.741 -12.949  -3.007  1.00  0.00     0.069 A 
HETATM   16  C   UNL     1      39.581 -14.130   2.930  1.00  0.00     0.007 C 
HETATM   17  C   UNL     1      40.505 -15.329   3.223  1.00  0.00     0.032 C 
HETATM   18  H   UNL     1      41.105 -17.172  -0.592  1.00  0.00     0.166 HD
BRANCH  15  19
HETATM   19  O   UNL     1      40.621 -11.761  -3.678  1.00  0.00    -0.356 OA
HETATM   20  C   UNL     1      41.761 -11.307  -4.395  1.00  0.00     0.210 C 
ENDBRANCH  15  19
ENDBRANCH   2   5
BRANCH   1  21
HETATM   21  C   UNL     1      43.926 -17.965   2.137  1.00  0.00     0.164 C 
BRANCH  21  22
HETATM   22  C   UNL     1      43.923 -18.618   3.498  1.00  0.00     0.075 A 
HETATM   23  N   UNL     1      43.680 -17.843   4.510  1.00  0.00    -0.172 NA
HETATM   24  N   UNL     1      43.694 -18.365   5.782  1.00  0.00    -0.230 N 
HETATM   25  C   UNL     1      44.054 -19.681   6.072  1.00  0.00     0.275 A 
HETATM   26  C   UNL     1      44.278 -20.573   4.921  1.00  0.00     0.046 A 
HETATM   27  O   UNL     1      44.184 -20.127   7.210  1.00  0.00    -0.266 OA
HETATM   28  C   UNL     1      44.197 -20.064   3.629  1.00  0.00     0.006 A 
HETATM   29  C   UNL     1      44.569 -21.929   5.129  1.00  0.00     0.018 A 
HETATM   30  C   UNL     1      44.385 -20.917   2.534  1.00  0.00     0.014 A 
HETATM   31  C   UNL     1      44.669 -22.269   2.744  1.00  0.00     0.001 A 
HETATM   32  C   UNL     1      44.766 -22.774   4.039  1.00  0.00     0.001 A 
BRANCH  24  33
HETATM   33  C   UNL     1      43.536 -17.406   6.888  1.00  0.00     0.105 C 
HETATM   34  C   UNL     1      42.074 -17.039   7.144  1.00  0.00     0.034 C 
HETATM   35  C   UNL     1      44.373 -16.152   6.630  1.00  0.00     0.034 C 
ENDBRANCH  24  33
ENDBRANCH  21  22
ENDBRANCH   1  21
TORSDOF 5
ENDMDL
MODEL 4
REMARK VINA RESULT:      -9.1      4.168      8.676
REMARK  5 active torsions:
REMARK  status: ('A' for Active; 'I' for Inactive)
REMARK    1  A    between atoms: C_2  and  N_3 
REMARK    2  A    between atoms: C_5  and  C_6 
REMARK    3  A    between atoms: C_6  and  C_7 
REMARK       I    between atoms: C_7  and  N_8 
REMARK    4  A    between atoms: N_8  and  C_9 
REMARK    5  A    between atoms: C_16  and  O_17 
ROOT
HETATM    1  C   UNL     1      40.998 -16.192   0.862  1.00  0.00     0.224 C 
HETATM    2  N   UNL     1      39.822 -15.528   1.125  1.00  0.00    -0.351 N 
HETATM    3  O   UNL     1      41.941 -15.697   0.253  1.00  0.00    -0.273 OA
HETATM    4  H   UNL     1      39.004 -16.081   1.366  1.00  0.00     0.163 HD
ENDROOT
BRANCH   2   5
HETATM    5  C   UNL     1      39.606 -14.177   0.659  1.00  0.00     0.135 C 
HETATM    6  C   UNL     1      39.496 -13.283   1.846  1.00  0.00     0.040 A 
HETATM    7  C   UNL     1      38.611 -12.235   1.999  1.00  0.00    -0.021 A 
HETATM    8  N   UNL     1      40.310 -13.318   2.946  1.00  0.00    -0.357 N 
HETATM    9  C   UNL     1      38.878 -11.630   3.259  1.00  0.00     0.002 A 
HETATM   10  C   UNL     1      37.584 -11.897   0.970  1.00  0.00     0.042 C 
HETATM   11  C   UNL     1      39.937 -12.334   3.835  1.00  0.00     0.043 A 
HETATM   12  C   UNL     1      38.323 -10.548   3.971  1.00  0.00     0.051 A 
HETATM   13  C   UNL     1      40.458 -12.012   5.092  1.00  0.00     0.033 A 
HETATM   14  C   UNL     1      39.883 -10.935   5.782  1.00  0.00     0.039 A 
HETATM   15  C   UNL     1      38.828 -10.205   5.233  1.00  0.00     0.069 A 
HETATM   16  C   UNL     1      37.895 -12.586  -0.375  1.00  0.00     0.007 C 
HETATM   17  C   UNL     1      38.322 -14.056  -0.193  1.00  0.00     0.032 C 
HETATM   18  H   UNL     1      41.065 -13.973   3.090  1.00  0.00     0.166 HD
BRANCH  15  19
HETATM   19  O   UNL     1      38.203  -9.136   5.818  1.00  0.00    -0.356 OA
HETATM   20  C   UNL     1      38.989  -8.323   6.680  1.00  0.00     0.210 C 
ENDBRANCH  15  19
ENDBRANCH   2   5
BRANCH   1  21
HETATM   21  C   UNL     1      41.061 -17.586   1.426  1.00  0.00     0.164 C 
BRANCH  21  22
HETATM   22  C   UNL     1      41.936 -17.698   2.652  1.00  0.00     0.075 A 
HETATM   23  N   UNL     1      41.801 -16.765   3.544  1.00  0.00    -0.172 NA
HETATM   24  N   UNL     1      42.590 -16.786   4.670  1.00  0.00    -0.230 N 
HETATM   25  C   UNL     1      43.614 -17.710   4.878  1.00  0.00     0.275 A 
HETATM   26  C   UNL     1      43.732 -18.798   3.891  1.00  0.00     0.046 A 
HETATM   27  O   UNL     1      44.401 -17.669   5.822  1.00  0.00    -0.266 OA
HETATM   28  C   UNL     1      42.889 -18.819   2.785  1.00  0.00     0.006 A 
HETATM   29  C   UNL     1      44.687 -19.809   4.070  1.00  0.00     0.018 A 
HETATM   30  C   UNL     1      42.984 -19.866   1.860  1.00  0.00     0.014 A 
HETATM   31  C   UNL     1      43.933 -20.876   2.044  1.00  0.00     0.001 A 
HETATM   32  C   UNL     1      44.787 -20.845   3.144  1.00  0.00     0.001 A 
BRANCH  24  33
HETATM   33  C   UNL     1      42.474 -15.632   5.576  1.00  0.00     0.105 C 
HETATM   34  C   UNL     1      41.023 -15.317   5.945  1.00  0.00     0.034 C 
HETATM   35  C   UNL     1      43.156 -14.405   4.967  1.00  0.00     0.034 C 
ENDBRANCH  24  33
ENDBRANCH  21  22
ENDBRANCH   1  21
TORSDOF 5
ENDMDL
MODEL 5
REMARK VINA RESULT:      -9.0      4.838      9.663
REMARK  5 active torsions:
REMARK  status: ('A' for Active; 'I' for Inactive)
REMARK    1  A    between atoms: C_2  and  N_3 
REMARK    2  A    between atoms: C_5  and  C_6 
REMARK    3  A    between atoms: C_6  and  C_7 
REMARK       I    between atoms: C_7  and  N_8 
REMARK    4  A    between atoms: N_8  and  C_9 
REMARK    5  A    between atoms: C_16  and  O_17 
ROOT
HETATM    1  C   UNL     1      41.659 -16.535   0.646  1.00  0.00     0.224 C 
HETATM    2  N   UNL     1      40.680 -16.130  -0.231  1.00  0.00    -0.351 N 
HETATM    3  O   UNL     1      42.735 -15.960   0.782  1.00  0.00    -0.273 OA
HETATM    4  H   UNL     1      39.965 -16.803  -0.492  1.00  0.00     0.163 HD
ENDROOT
BRANCH   2   5
HETATM    5  C   UNL     1      40.875 -14.987  -1.094  1.00  0.00     0.135 C 
HETATM    6  C   UNL     1      39.695 -14.087  -0.954  1.00  0.00     0.040 A 
HETATM    7  C   UNL     1      39.063 -13.406  -1.974  1.00  0.00    -0.021 A 
HETATM    8  N   UNL     1      39.098 -13.737   0.227  1.00  0.00    -0.357 N 
HETATM    9  C   UNL     1      38.017 -12.637  -1.392  1.00  0.00     0.002 A 
HETATM   10  C   UNL     1      39.474 -13.541  -3.403  1.00  0.00     0.042 C 
HETATM   11  C   UNL     1      38.054 -12.872  -0.016  1.00  0.00     0.043 A 
HETATM   12  C   UNL     1      37.038 -11.759  -1.898  1.00  0.00     0.051 A 
HETATM   13  C   UNL     1      37.152 -12.277   0.872  1.00  0.00     0.033 A 
HETATM   14  C   UNL     1      36.183 -11.414   0.341  1.00  0.00     0.039 A 
HETATM   15  C   UNL     1      36.122 -11.151  -1.028  1.00  0.00     0.069 A 
HETATM   16  C   UNL     1      40.866 -14.194  -3.523  1.00  0.00     0.007 C 
HETATM   17  C   UNL     1      41.030 -15.400  -2.576  1.00  0.00     0.032 C 
HETATM   18  H   UNL     1      39.374 -14.071   1.139  1.00  0.00     0.166 HD
BRANCH  15  19
HETATM   19  O   UNL     1      35.225 -10.321  -1.645  1.00  0.00    -0.356 OA
HETATM   20  C   UNL     1      34.517 -10.851  -2.759  1.00  0.00     0.210 C 
ENDBRANCH  15  19
ENDBRANCH   2   5
BRANCH   1  21
HETATM   21  C   UNL     1      41.291 -17.736   1.475  1.00  0.00     0.164 C 
BRANCH  21  22
HETATM   22  C   UNL     1      42.022 -17.800   2.795  1.00  0.00     0.075 A 
HETATM   23  N   UNL     1      41.720 -16.888   3.667  1.00  0.00    -0.172 NA
HETATM   24  N   UNL     1      42.371 -16.866   4.877  1.00  0.00    -0.230 N 
HETATM   25  C   UNL     1      43.425 -17.720   5.202  1.00  0.00     0.275 A 
HETATM   26  C   UNL     1      43.732 -18.788   4.234  1.00  0.00     0.046 A 
HETATM   27  O   UNL     1      44.091 -17.635   6.232  1.00  0.00    -0.266 OA
HETATM   28  C   UNL     1      43.028 -18.855   3.036  1.00  0.00     0.006 A 
HETATM   29  C   UNL     1      44.727 -19.733   4.522  1.00  0.00     0.018 A 
HETATM   30  C   UNL     1      43.302 -19.884   2.128  1.00  0.00     0.014 A 
HETATM   31  C   UNL     1      44.290 -20.829   2.420  1.00  0.00     0.001 A 
HETATM   32  C   UNL     1      45.005 -20.751   3.612  1.00  0.00     0.001 A 
BRANCH  24  33
HETATM   33  C   UNL     1      42.071 -15.731   5.766  1.00  0.00     0.105 C 
HETATM   34  C   UNL     1      40.569 -15.484   5.917  1.00  0.00     0.034 C 
HETATM   35  C   UNL     1      42.781 -14.468   5.275  1.00  0.00     0.034 C 
ENDBRANCH  24  33
ENDBRANCH  21  22
ENDBRANCH   1  21
TORSDOF 5
ENDMDL
MODEL 6
REMARK VINA RESULT:      -9.0      2.194      8.754
REMARK  5 active torsions:
REMARK  status: ('A' for Active; 'I' for Inactive)
REMARK    1  A    between atoms: C_2  and  N_3 
REMARK    2  A    between atoms: C_5  and  C_6 
REMARK    3  A    between atoms: C_6  and  C_7 
REMARK       I    between atoms: C_7  and  N_8 
REMARK    4  A    between atoms: N_8  and  C_9 
REMARK    5  A    between atoms: C_16  and  O_17 
ROOT
HETATM    1  C   UNL     1      43.103 -14.076   5.789  1.00  0.00     0.224 C 
HETATM    2  N   UNL     1      41.938 -13.461   6.185  1.00  0.00    -0.351 N 
HETATM    3  O   UNL     1      44.116 -13.470   5.453  1.00  0.00    -0.273 OA
HETATM    4  H   UNL     1      41.079 -14.004   6.163  1.00  0.00     0.163 HD
ENDROOT
BRANCH   2   5
HETATM    5  C   UNL     1      41.821 -12.020   6.200  1.00  0.00     0.135 C 
HETATM    6  C   UNL     1      42.236 -11.530   7.545  1.00  0.00     0.040 A 
HETATM    7  C   UNL     1      41.633 -10.521   8.268  1.00  0.00    -0.021 A 
HETATM    8  N   UNL     1      43.331 -11.960   8.244  1.00  0.00    -0.357 N 
HETATM    9  C   UNL     1      42.374 -10.354   9.470  1.00  0.00     0.002 A 
HETATM   10  C   UNL     1      40.412  -9.810   7.785  1.00  0.00     0.042 C 
HETATM   11  C   UNL     1      43.423 -11.274   9.435  1.00  0.00     0.043 A 
HETATM   12  C   UNL     1      42.258  -9.508  10.592  1.00  0.00     0.051 A 
HETATM   13  C   UNL     1      44.353 -11.393  10.473  1.00  0.00     0.033 A 
HETATM   14  C   UNL     1      44.211 -10.544  11.580  1.00  0.00     0.039 A 
HETATM   15  C   UNL     1      43.178  -9.608  11.644  1.00  0.00     0.069 A 
HETATM   16  C   UNL     1      40.171 -10.071   6.284  1.00  0.00     0.007 C 
HETATM   17  C   UNL     1      40.376 -11.552   5.908  1.00  0.00     0.032 C 
HETATM   18  H   UNL     1      43.971 -12.679   7.938  1.00  0.00     0.166 HD
BRANCH  15  19
HETATM   19  O   UNL     1      42.956  -8.730  12.672  1.00  0.00    -0.356 OA
HETATM   20  C   UNL     1      43.178  -9.212  13.991  1.00  0.00     0.210 C 
ENDBRANCH  15  19
ENDBRANCH   2   5
BRANCH   1  21
HETATM   21  C   UNL     1      43.057 -15.580   5.839  1.00  0.00     0.164 C 
BRANCH  21  22
HETATM   22  C   UNL     1      42.683 -16.212   4.519  1.00  0.00     0.075 A 
HETATM   23  N   UNL     1      41.851 -15.548   3.776  1.00  0.00    -0.172 NA
HETATM   24  N   UNL     1      41.442 -16.080   2.577  1.00  0.00    -0.230 N 
HETATM   25  C   UNL     1      41.794 -17.357   2.138  1.00  0.00     0.275 A 
HETATM   26  C   UNL     1      42.779 -18.087   2.955  1.00  0.00     0.046 A 
HETATM   27  O   UNL     1      41.342 -17.889   1.126  1.00  0.00    -0.266 OA
HETATM   28  C   UNL     1      43.248 -17.522   4.137  1.00  0.00     0.006 A 
HETATM   29  C   UNL     1      43.241 -19.345   2.541  1.00  0.00     0.018 A 
HETATM   30  C   UNL     1      44.202 -18.205   4.901  1.00  0.00     0.014 A 
HETATM   31  C   UNL     1      44.666 -19.455   4.483  1.00  0.00     0.001 A 
HETATM   32  C   UNL     1      44.183 -20.027   3.308  1.00  0.00     0.001 A 
BRANCH  24  33
HETATM   33  C   UNL     1      40.403 -15.335   1.847  1.00  0.00     0.105 C 
HETATM   34  C   UNL     1      40.982 -14.440   0.750  1.00  0.00     0.034 C 
HETATM   35  C   UNL     1      39.551 -14.517   2.820  1.00  0.00     0.034 C 
ENDBRANCH  24  33
ENDBRANCH  21  22
ENDBRANCH   1  21
TORSDOF 5
ENDMDL
MODEL 7
REMARK VINA RESULT:      -8.8      2.193      4.517
REMARK  5 active torsions:
REMARK  status: ('A' for Active; 'I' for Inactive)
REMARK    1  A    between atoms: C_2  and  N_3 
REMARK    2  A    between atoms: C_5  and  C_6 
REMARK    3  A    between atoms: C_6  and  C_7 
REMARK       I    between atoms: C_7  and  N_8 
REMARK    4  A    between atoms: N_8  and  C_9 
REMARK    5  A    between atoms: C_16  and  O_17 
ROOT
HETATM    1  C   UNL     1      45.147 -13.290   7.664  1.00  0.00     0.224 C 
HETATM    2  N   UNL     1      44.190 -14.245   7.917  1.00  0.00    -0.351 N 
HETATM    3  O   UNL     1      45.949 -13.354   6.737  1.00  0.00    -0.273 OA
HETATM    4  H   UNL     1      43.772 -14.270   8.843  1.00  0.00     0.163 HD
ENDROOT
BRANCH   2   5
HETATM    5  C   UNL     1      44.085 -15.433   7.101  1.00  0.00     0.135 C 
HETATM    6  C   UNL     1      43.311 -15.093   5.874  1.00  0.00     0.040 A 
HETATM    7  C   UNL     1      42.358 -15.884   5.264  1.00  0.00    -0.021 A 
HETATM    8  N   UNL     1      43.480 -13.967   5.114  1.00  0.00    -0.357 N 
HETATM    9  C   UNL     1      41.906 -15.193   4.106  1.00  0.00     0.002 A 
HETATM   10  C   UNL     1      41.938 -17.203   5.821  1.00  0.00     0.042 C 
HETATM   11  C   UNL     1      42.615 -13.992   4.042  1.00  0.00     0.043 A 
HETATM   12  C   UNL     1      40.959 -15.469   3.099  1.00  0.00     0.051 A 
HETATM   13  C   UNL     1      42.415 -13.054   3.024  1.00  0.00     0.033 A 
HETATM   14  C   UNL     1      41.463 -13.352   2.039  1.00  0.00     0.039 A 
HETATM   15  C   UNL     1      40.741 -14.545   2.068  1.00  0.00     0.069 A 
HETATM   16  C   UNL     1      42.940 -17.707   6.880  1.00  0.00     0.007 C 
HETATM   17  C   UNL     1      43.379 -16.589   7.847  1.00  0.00     0.032 C 
HETATM   18  H   UNL     1      44.134 -13.223   5.314  1.00  0.00     0.166 HD
BRANCH  15  19
HETATM   19  O   UNL     1      39.798 -14.934   1.154  1.00  0.00    -0.356 OA
HETATM   20  C   UNL     1      38.447 -14.588   1.434  1.00  0.00     0.210 C 
ENDBRANCH  15  19
ENDBRANCH   2   5
BRANCH   1  21
HETATM   21  C   UNL     1      45.113 -12.114   8.603  1.00  0.00     0.164 C 
BRANCH  21  22
HETATM   22  C   UNL     1      43.732 -11.527   8.777  1.00  0.00     0.075 A 
HETATM   23  N   UNL     1      42.924 -11.642   7.768  1.00  0.00    -0.172 NA
HETATM   24  N   UNL     1      41.663 -11.101   7.846  1.00  0.00    -0.230 N 
HETATM   25  C   UNL     1      41.215 -10.338   8.925  1.00  0.00     0.275 A 
HETATM   26  C   UNL     1      42.112 -10.253  10.091  1.00  0.00     0.046 A 
HETATM   27  O   UNL     1      40.135  -9.752   8.956  1.00  0.00    -0.266 OA
HETATM   28  C   UNL     1      43.364 -10.858  10.042  1.00  0.00     0.006 A 
HETATM   29  C   UNL     1      41.703  -9.568  11.244  1.00  0.00     0.018 A 
HETATM   30  C   UNL     1      44.207 -10.799  11.159  1.00  0.00     0.014 A 
HETATM   31  C   UNL     1      43.794 -10.121  12.310  1.00  0.00     0.001 A 
HETATM   32  C   UNL     1      42.547  -9.502  12.351  1.00  0.00     0.001 A 
BRANCH  24  33
HETATM   33  C   UNL     1      40.847 -11.156   6.622  1.00  0.00     0.105 C 
HETATM   34  C   UNL     1      40.344 -12.568   6.313  1.00  0.00     0.034 C 
HETATM   35  C   UNL     1      41.627 -10.587   5.435  1.00  0.00     0.034 C 
ENDBRANCH  24  33
ENDBRANCH  21  22
ENDBRANCH   1  21
TORSDOF 5
ENDMDL
MODEL 8
REMARK VINA RESULT:      -8.7      1.575      3.276
REMARK  5 active torsions:
REMARK  status: ('A' for Active; 'I' for Inactive)
REMARK    1  A    between atoms: C_2  and  N_3 
REMARK    2  A    between atoms: C_5  and  C_6 
REMARK    3  A    between atoms: C_6  and  C_7 
REMARK       I    between atoms: C_7  and  N_8 
REMARK    4  A    between atoms: N_8  and  C_9 
REMARK    5  A    between atoms: C_16  and  O_17 
ROOT
HETATM    1  C   UNL     1      40.846 -11.566   6.824  1.00  0.00     0.224 C 
HETATM    2  N   UNL     1      41.531 -12.569   6.177  1.00  0.00    -0.351 N 
HETATM    3  O   UNL     1      39.637 -11.590   7.035  1.00  0.00    -0.273 OA
HETATM    4  H   UNL     1      42.445 -12.351   5.790  1.00  0.00     0.163 HD
ENDROOT
BRANCH   2   5
HETATM    5  C   UNL     1      40.844 -13.733   5.664  1.00  0.00     0.135 C 
HETATM    6  C   UNL     1      41.806 -14.871   5.639  1.00  0.00     0.040 A 
HETATM    7  C   UNL     1      41.921 -15.820   4.643  1.00  0.00    -0.021 A 
HETATM    8  N   UNL     1      42.680 -15.196   6.641  1.00  0.00    -0.357 N 
HETATM    9  C   UNL     1      42.930 -16.740   5.043  1.00  0.00     0.002 A 
HETATM   10  C   UNL     1      41.096 -15.781   3.400  1.00  0.00     0.042 C 
HETATM   11  C   UNL     1      43.396 -16.319   6.290  1.00  0.00     0.043 A 
HETATM   12  C   UNL     1      43.498 -17.894   4.467  1.00  0.00     0.051 A 
HETATM   13  C   UNL     1      44.408 -16.994   6.981  1.00  0.00     0.033 A 
HETATM   14  C   UNL     1      44.960 -18.136   6.382  1.00  0.00     0.039 A 
HETATM   15  C   UNL     1      44.513 -18.588   5.140  1.00  0.00     0.069 A 
HETATM   16  C   UNL     1      39.896 -14.824   3.557  1.00  0.00     0.007 C 
HETATM   17  C   UNL     1      40.291 -13.499   4.240  1.00  0.00     0.032 C 
HETATM   18  H   UNL     1      42.791 -14.684   7.504  1.00  0.00     0.166 HD
BRANCH  15  19
HETATM   19  O   UNL     1      44.978 -19.691   4.475  1.00  0.00    -0.356 OA
HETATM   20  C   UNL     1      44.421 -19.953   3.193  1.00  0.00     0.210 C 
ENDBRANCH  15  19
ENDBRANCH   2   5
BRANCH   1  21
HETATM   21  C   UNL     1      41.713 -10.432   7.300  1.00  0.00     0.164 C 
BRANCH  21  22
HETATM   22  C   UNL     1      41.866 -10.385   8.802  1.00  0.00     0.075 A 
HETATM   23  N   UNL     1      40.904  -9.820   9.464  1.00  0.00    -0.172 NA
HETATM   24  N   UNL     1      40.993  -9.714  10.831  1.00  0.00    -0.230 N 
HETATM   25  C   UNL     1      42.118 -10.096  11.563  1.00  0.00     0.275 A 
HETATM   26  C   UNL     1      43.187 -10.785  10.819  1.00  0.00     0.046 A 
HETATM   27  O   UNL     1      42.258  -9.899  12.769  1.00  0.00    -0.266 OA
HETATM   28  C   UNL     1      43.068 -10.956   9.443  1.00  0.00     0.006 A 
HETATM   29  C   UNL     1      44.316 -11.268  11.496  1.00  0.00     0.018 A 
HETATM   30  C   UNL     1      44.072 -11.633   8.740  1.00  0.00     0.014 A 
HETATM   31  C   UNL     1      45.194 -12.119   9.418  1.00  0.00     0.001 A 
HETATM   32  C   UNL     1      45.319 -11.933  10.793  1.00  0.00     0.001 A 
BRANCH  24  33
HETATM   33  C   UNL     1      39.929  -8.950  11.503  1.00  0.00     0.105 C 
HETATM   34  C   UNL     1      38.543  -9.237  10.923  1.00  0.00     0.034 C 
HETATM   35  C   UNL     1      40.237  -7.452  11.455  1.00  0.00     0.034 C 
ENDBRANCH  24  33
ENDBRANCH  21  22
ENDBRANCH   1  21
TORSDOF 5
ENDMDL
MODEL 9
REMARK VINA RESULT:      -8.7      2.454      8.124
REMARK  5 active torsions:
REMARK  status: ('A' for Active; 'I' for Inactive)
REMARK    1  A    between atoms: C_2  and  N_3 
REMARK    2  A    between atoms: C_5  and  C_6 
REMARK    3  A    between atoms: C_6  and  C_7 
REMARK       I    between atoms: C_7  and  N_8 
REMARK    4  A    between atoms: N_8  and  C_9 
REMARK    5  A    between atoms: C_16  and  O_17 
ROOT
HETATM    1  C   UNL     1      42.361 -16.370   2.146  1.00  0.00     0.224 C 
HETATM    2  N   UNL     1      41.320 -15.871   2.894  1.00  0.00    -0.351 N 
HETATM    3  O   UNL     1      43.252 -15.677   1.665  1.00  0.00    -0.273 OA
HETATM    4  H   UNL     1      40.490 -16.447   3.003  1.00  0.00     0.163 HD
ENDROOT
BRANCH   2   5
HETATM    5  C   UNL     1      41.189 -14.453   3.141  1.00  0.00     0.135 C 
HETATM    6  C   UNL     1      42.043 -14.101   4.311  1.00  0.00     0.040 A 
HETATM    7  C   UNL     1      41.715 -13.224   5.326  1.00  0.00    -0.021 A 
HETATM    8  N   UNL     1      43.322 -14.539   4.523  1.00  0.00    -0.357 N 
HETATM    9  C   UNL     1      42.829 -13.154   6.207  1.00  0.00     0.002 A 
HETATM   10  C   UNL     1      40.390 -12.541   5.397  1.00  0.00     0.042 C 
HETATM   11  C   UNL     1      43.815 -13.995   5.689  1.00  0.00     0.043 A 
HETATM   12  C   UNL     1      43.100 -12.457   7.402  1.00  0.00     0.051 A 
HETATM   13  C   UNL     1      45.053 -14.176   6.313  1.00  0.00     0.033 A 
HETATM   14  C   UNL     1      45.294 -13.475   7.503  1.00  0.00     0.039 A 
HETATM   15  C   UNL     1      44.334 -12.621   8.046  1.00  0.00     0.069 A 
HETATM   16  C   UNL     1      39.640 -12.637   4.052  1.00  0.00     0.007 C 
HETATM   17  C   UNL     1      39.727 -14.047   3.434  1.00  0.00     0.032 C 
HETATM   18  H   UNL     1      43.826 -15.175   3.921  1.00  0.00     0.166 HD
BRANCH  15  19
HETATM   19  O   UNL     1      44.472 -11.887   9.194  1.00  0.00    -0.356 OA
HETATM   20  C   UNL     1      43.437 -10.959   9.495  1.00  0.00     0.210 C 
ENDBRANCH  15  19
ENDBRANCH   2   5
BRANCH   1  21
HETATM   21  C   UNL     1      42.350 -17.868   1.992  1.00  0.00     0.164 C 
BRANCH  21  22
HETATM   22  C   UNL     1      42.826 -18.600   3.225  1.00  0.00     0.075 A 
HETATM   23  N   UNL     1      42.601 -18.020   4.363  1.00  0.00    -0.172 NA
HETATM   24  N   UNL     1      43.037 -18.615   5.524  1.00  0.00    -0.230 N 
HETATM   25  C   UNL     1      43.805 -19.779   5.553  1.00  0.00     0.275 A 
HETATM   26  C   UNL     1      44.014 -20.465   4.265  1.00  0.00     0.046 A 
HETATM   27  O   UNL     1      44.298 -20.256   6.573  1.00  0.00    -0.266 OA
HETATM   28  C   UNL     1      43.515 -19.900   3.096  1.00  0.00     0.006 A 
HETATM   29  C   UNL     1      44.710 -21.681   4.222  1.00  0.00     0.018 A 
HETATM   30  C   UNL     1      43.692 -20.564   1.876  1.00  0.00     0.014 A 
HETATM   31  C   UNL     1      44.381 -21.780   1.836  1.00  0.00     0.001 A 
HETATM   32  C   UNL     1      44.894 -22.335   3.005  1.00  0.00     0.001 A 
BRANCH  24  33
HETATM   33  C   UNL     1      42.862 -17.843   6.765  1.00  0.00     0.105 C 
HETATM   34  C   UNL     1      41.708 -16.842   6.677  1.00  0.00     0.034 C 
HETATM   35  C   UNL     1      44.166 -17.135   7.141  1.00  0.00     0.034 C 
ENDBRANCH  24  33
ENDBRANCH  21  22
ENDBRANCH   1  21
TORSDOF 5
ENDMDL
MODEL 10
REMARK VINA RESULT:      -8.6      3.941      6.722
REMARK  5 active torsions:
REMARK  status: ('A' for Active; 'I' for Inactive)
REMARK    1  A    between atoms: C_2  and  N_3 
REMARK    2  A    between atoms: C_5  and  C_6 
REMARK    3  A    between atoms: C_6  and  C_7 
REMARK       I    between atoms: C_7  and  N_8 
REMARK    4  A    between atoms: N_8  and  C_9 
REMARK    5  A    between atoms: C_16  and  O_17 
ROOT
HETATM    1  C   UNL     1      42.687 -13.895   5.711  1.00  0.00     0.224 C 
HETATM    2  N   UNL     1      42.413 -15.057   6.395  1.00  0.00    -0.351 N 
HETATM    3  O   UNL     1      43.802 -13.590   5.300  1.00  0.00    -0.273 OA
HETATM    4  H   UNL     1      41.558 -15.099   6.942  1.00  0.00     0.163 HD
ENDROOT
BRANCH   2   5
HETATM    5  C   UNL     1      43.460 -16.003   6.709  1.00  0.00     0.135 C 
HETATM    6  C   UNL     1      43.597 -16.947   5.564  1.00  0.00     0.040 A 
HETATM    7  C   UNL     1      43.809 -18.309   5.649  1.00  0.00    -0.021 A 
HETATM    8  N   UNL     1      43.609 -16.596   4.242  1.00  0.00    -0.357 N 
HETATM    9  C   UNL     1      43.920 -18.809   4.322  1.00  0.00     0.002 A 
HETATM   10  C   UNL     1      43.872 -19.028   6.955  1.00  0.00     0.042 C 
HETATM   11  C   UNL     1      43.779 -17.718   3.461  1.00  0.00     0.043 A 
HETATM   12  C   UNL     1      44.126 -20.085   3.763  1.00  0.00     0.051 A 
HETATM   13  C   UNL     1      43.827 -17.849   2.069  1.00  0.00     0.033 A 
HETATM   14  C   UNL     1      44.028 -19.132   1.539  1.00  0.00     0.039 A 
HETATM   15  C   UNL     1      44.179 -20.242   2.371  1.00  0.00     0.069 A 
HETATM   16  C   UNL     1      44.057 -18.043   8.127  1.00  0.00     0.007 C 
HETATM   17  C   UNL     1      43.152 -16.802   7.996  1.00  0.00     0.032 C 
HETATM   18  H   UNL     1      43.499 -15.656   3.888  1.00  0.00     0.166 HD
BRANCH  15  19
HETATM   19  O   UNL     1      44.386 -21.531   1.956  1.00  0.00    -0.356 OA
HETATM   20  C   UNL     1      44.525 -22.519   2.969  1.00  0.00     0.210 C 
ENDBRANCH  15  19
ENDBRANCH   2   5
BRANCH   1  21
HETATM   21  C   UNL     1      41.484 -13.026   5.460  1.00  0.00     0.164 C 
BRANCH  21  22
HETATM   22  C   UNL     1      40.764 -13.356   4.175  1.00  0.00     0.075 A 
HETATM   23  N   UNL     1      41.138 -14.439   3.565  1.00  0.00    -0.172 NA
HETATM   24  N   UNL     1      40.548 -14.782   2.372  1.00  0.00    -0.230 N 
HETATM   25  C   UNL     1      39.619 -13.978   1.710  1.00  0.00     0.275 A 
HETATM   26  C   UNL     1      39.156 -12.777   2.428  1.00  0.00     0.046 A 
HETATM   27  O   UNL     1      39.172 -14.217   0.590  1.00  0.00    -0.266 OA
HETATM   28  C   UNL     1      39.702 -12.463   3.668  1.00  0.00     0.006 A 
HETATM   29  C   UNL     1      38.167 -11.959   1.863  1.00  0.00     0.018 A 
HETATM   30  C   UNL     1      39.244 -11.335   4.361  1.00  0.00     0.014 A 
HETATM   31  C   UNL     1      38.254 -10.524   3.799  1.00  0.00     0.001 A 
HETATM   32  C   UNL     1      37.720 -10.832   2.549  1.00  0.00     0.001 A 
BRANCH  24  33
HETATM   33  C   UNL     1      41.108 -15.951   1.673  1.00  0.00     0.105 C 
HETATM   34  C   UNL     1      41.377 -15.677   0.192  1.00  0.00     0.034 C 
HETATM   35  C   UNL     1      40.189 -17.163   1.841  1.00  0.00     0.034 C 
ENDBRANCH  24  33
ENDBRANCH  21  22
ENDBRANCH   1  21
TORSDOF 5
ENDMDL
