MODEL 1
REMARK VINA RESULT:      -9.2      0.000      0.000
REMARK  3 active torsions:
REMARK  status: ('A' for Active; 'I' for Inactive)
REMARK    1  A    between atoms: C_9  and  C_10 
REMARK       I    between atoms: C_10  and  N_11 
REMARK    2  A    between atoms: N_11  and  C_12 
REMARK    3  A    between atoms: C_19  and  C_20 
REMARK       I    between atoms: C_20  and  N_21 
ROOT
HETATM    1  C   UNL     1      39.243 -14.661   0.689  1.00  0.00     0.035 A 
HETATM    2  C   UNL     1      39.943 -14.410  -0.498  1.00  0.00     0.046 A 
HETATM    3  C   UNL     1      39.472 -13.431  -1.396  1.00  0.00     0.030 A 
HETATM    4  C   UNL     1      38.335 -12.709  -1.062  1.00  0.00     0.063 A 
HETATM    5  N   UNL     1      38.135 -11.853  -2.109  1.00  0.00    -0.277 N 
HETATM    6  H   UNL     1      37.395 -11.168  -2.209  1.00  0.00     0.189 HD
HETATM    7  N   UNL     1      39.025 -11.976  -3.110  1.00  0.00    -0.168 NA
HETATM    8  C   UNL     1      39.857 -12.953  -2.683  1.00  0.00     0.156 A 
HETATM    9  C   UNL     1      37.625 -12.915   0.124  1.00  0.00     0.034 A 
HETATM   10  C   UNL     1      38.094 -13.917   0.986  1.00  0.00     0.032 A 
ENDROOT
BRANCH   1  11
HETATM   11  N   UNL     1      39.593 -15.709   1.564  1.00  0.00    -0.325 N 
HETATM   12  C   UNL     1      40.588 -15.669   2.528  1.00  0.00     0.252 C 
HETATM   13  O   UNL     1      41.069 -14.651   3.019  1.00  0.00    -0.270 OA
HETATM   14  H   UNL     1      39.082 -16.583   1.487  1.00  0.00     0.169 HD
BRANCH  12  15
HETATM   15  C   UNL     1      41.151 -17.056   2.834  1.00  0.00     0.225 C 
HETATM   16  C   UNL     1      41.626 -17.774   1.569  1.00  0.00     0.083 C 
HETATM   17  C   UNL     1      42.567 -18.712   2.220  1.00  0.00    -0.021 A 
HETATM   18  C   UNL     1      42.895 -18.225   3.474  1.00  0.00     0.076 A 
HETATM   19  C   UNL     1      43.116 -19.885   1.740  1.00  0.00     0.017 A 
HETATM   20  C   UNL     1      43.790 -18.878   4.293  1.00  0.00     0.044 A 
HETATM   21  O   UNL     1      42.231 -17.063   3.796  1.00  0.00    -0.336 OA
HETATM   22  C   UNL     1      44.346 -20.092   3.846  1.00  0.00    -0.053 A 
HETATM   23  C   UNL     1      44.011 -20.594   2.557  1.00  0.00    -0.055 A 
HETATM   24  C   UNL     1      45.307 -20.827   4.739  1.00  0.00     0.049 C 
HETATM   25  C   UNL     1      44.569 -21.899   2.056  1.00  0.00     0.049 C 
ENDBRANCH  12  15
ENDBRANCH   1  11
BRANCH   8  26
HETATM   26  C   UNL     1      40.976 -13.429  -3.511  1.00  0.00     0.270 C 
HETATM   27  N   UNL     1      41.863 -12.450  -3.871  1.00  0.00    -0.365 N 
HETATM   28  H   UNL     1      41.684 -11.498  -3.573  1.00  0.00     0.159 HD
HETATM   29  H   UNL     1      42.641 -12.681  -4.469  1.00  0.00     0.159 HD
HETATM   30  O   UNL     1      41.126 -14.586  -3.885  1.00  0.00    -0.266 OA
ENDBRANCH   8  26
TORSDOF 3
ENDMDL
MODEL 2
REMARK VINA RESULT:      -9.1      2.346      2.982
REMARK  3 active torsions:
REMARK  status: ('A' for Active; 'I' for Inactive)
REMARK    1  A    between atoms: C_9  and  C_10 
REMARK       I    between atoms: C_10  and  N_11 
REMARK    2  A    between atoms: N_11  and  C_12 
REMARK    3  A    between atoms: C_19  and  C_20 
REMARK       I    between atoms: C_20  and  N_21 
ROOT
HETATM    1  C   UNL     1      41.203 -15.226  -1.090  1.00  0.00     0.035 A 
HETATM    2  C   UNL     1      41.722 -13.940  -0.886  1.00  0.00     0.046 A 
HETATM    3  C   UNL     1      41.914 -13.080  -1.986  1.00  0.00     0.030 A 
HETATM    4  C   UNL     1      41.549 -13.520  -3.250  1.00  0.00     0.063 A 
HETATM    5  N   UNL     1      41.849 -12.483  -4.089  1.00  0.00    -0.277 N 
HETATM    6  H   UNL     1      41.712 -12.446  -5.093  1.00  0.00     0.189 HD
HETATM    7  N   UNL     1      42.407 -11.418  -3.485  1.00  0.00    -0.168 NA
HETATM    8  C   UNL     1      42.457 -11.776  -2.182  1.00  0.00     0.156 A 
HETATM    9  C   UNL     1      41.007 -14.786  -3.488  1.00  0.00     0.034 A 
HETATM   10  C   UNL     1      40.856 -15.636  -2.382  1.00  0.00     0.032 A 
ENDROOT
BRANCH   1  11
HETATM   11  N   UNL     1      41.106 -16.173  -0.049  1.00  0.00    -0.325 N 
HETATM   12  C   UNL     1      40.570 -15.949   1.209  1.00  0.00     0.252 C 
HETATM   13  O   UNL     1      39.792 -15.045   1.506  1.00  0.00    -0.270 OA
HETATM   14  H   UNL     1      41.463 -17.107  -0.222  1.00  0.00     0.169 HD
BRANCH  12  15
HETATM   15  C   UNL     1      41.167 -16.880   2.264  1.00  0.00     0.225 C 
HETATM   16  C   UNL     1      42.021 -17.984   1.637  1.00  0.00     0.083 C 
HETATM   17  C   UNL     1      42.848 -18.288   2.825  1.00  0.00    -0.021 A 
HETATM   18  C   UNL     1      42.790 -17.217   3.702  1.00  0.00     0.076 A 
HETATM   19  C   UNL     1      43.614 -19.402   3.104  1.00  0.00     0.017 A 
HETATM   20  C   UNL     1      43.501 -17.208   4.882  1.00  0.00     0.044 A 
HETATM   21  O   UNL     1      41.955 -16.209   3.274  1.00  0.00    -0.336 OA
HETATM   22  C   UNL     1      44.269 -18.341   5.210  1.00  0.00    -0.053 A 
HETATM   23  C   UNL     1      44.332 -19.442   4.310  1.00  0.00    -0.055 A 
HETATM   24  C   UNL     1      45.034 -18.354   6.506  1.00  0.00     0.049 C 
HETATM   25  C   UNL     1      45.124 -20.679   4.639  1.00  0.00     0.049 C 
ENDBRANCH  12  15
ENDBRANCH   1  11
BRANCH   8  26
HETATM   26  C   UNL     1      43.039 -10.891  -1.162  1.00  0.00     0.270 C 
HETATM   27  N   UNL     1      43.784  -9.862  -1.671  1.00  0.00    -0.365 N 
HETATM   28  H   UNL     1      43.899  -9.796  -2.676  1.00  0.00     0.159 HD
HETATM   29  H   UNL     1      44.250  -9.228  -1.041  1.00  0.00     0.159 HD
HETATM   30  O   UNL     1      42.909 -11.038   0.048  1.00  0.00    -0.266 OA
ENDBRANCH   8  26
TORSDOF 3
ENDMDL
MODEL 3
REMARK VINA RESULT:      -8.8      1.766      2.321
REMARK  3 active torsions:
REMARK  status: ('A' for Active; 'I' for Inactive)
REMARK    1  A    between atoms: C_9  and  C_10 
REMARK       I    between atoms: C_10  and  N_11 
REMARK    2  A    between atoms: N_11  and  C_12 
REMARK    3  A    between atoms: C_19  and  C_20 
REMARK       I    between atoms: C_20  and  N_21 
ROOT
HETATM    1  C   UNL     1      40.245 -14.180   1.451  1.00  0.00     0.035 A 
HETATM    2  C   UNL     1      39.913 -14.375   0.103  1.00  0.00     0.046 A 
HETATM    3  C   UNL     1      38.904 -13.590  -0.489  1.00  0.00     0.030 A 
HETATM    4  C   UNL     1      38.283 -12.611   0.274  1.00  0.00     0.063 A 
HETATM    5  N   UNL     1      37.371 -12.031  -0.563  1.00  0.00    -0.277 N 
HETATM    6  H   UNL     1      36.736 -11.270  -0.347  1.00  0.00     0.189 HD
HETATM    7  N   UNL     1      37.322 -12.567  -1.796  1.00  0.00    -0.168 NA
HETATM    8  C   UNL     1      38.265 -13.537  -1.763  1.00  0.00     0.156 A 
HETATM    9  C   UNL     1      38.605 -12.373   1.613  1.00  0.00     0.034 A 
HETATM   10  C   UNL     1      39.589 -13.189   2.190  1.00  0.00     0.032 A 
ENDROOT
BRANCH   1  11
HETATM   11  N   UNL     1      41.155 -15.016   2.131  1.00  0.00    -0.325 N 
HETATM   12  C   UNL     1      42.490 -14.736   2.379  1.00  0.00     0.252 C 
HETATM   13  O   UNL     1      42.999 -13.618   2.379  1.00  0.00    -0.270 OA
HETATM   14  H   UNL     1      40.817 -15.911   2.469  1.00  0.00     0.169 HD
BRANCH  12  15
HETATM   15  C   UNL     1      43.329 -16.005   2.521  1.00  0.00     0.225 C 
HETATM   16  C   UNL     1      43.334 -16.530   3.959  1.00  0.00     0.083 C 
HETATM   17  C   UNL     1      43.681 -17.935   3.650  1.00  0.00    -0.021 A 
HETATM   18  C   UNL     1      43.395 -18.189   2.319  1.00  0.00     0.076 A 
HETATM   19  C   UNL     1      44.180 -18.923   4.477  1.00  0.00     0.017 A 
HETATM   20  C   UNL     1      43.582 -19.435   1.763  1.00  0.00     0.044 A 
HETATM   21  O   UNL     1      42.934 -17.082   1.642  1.00  0.00    -0.336 OA
HETATM   22  C   UNL     1      44.117 -20.457   2.571  1.00  0.00    -0.053 A 
HETATM   23  C   UNL     1      44.410 -20.199   3.940  1.00  0.00    -0.055 A 
HETATM   24  C   UNL     1      44.348 -21.817   1.971  1.00  0.00     0.049 C 
HETATM   25  C   UNL     1      45.004 -21.260   4.827  1.00  0.00     0.049 C 
ENDBRANCH  12  15
ENDBRANCH   1  11
BRANCH   8  26
HETATM   26  C   UNL     1      38.518 -14.404  -2.923  1.00  0.00     0.270 C 
HETATM   27  N   UNL     1      37.585 -15.390  -3.101  1.00  0.00    -0.365 N 
HETATM   28  H   UNL     1      36.825 -15.465  -2.434  1.00  0.00     0.159 HD
HETATM   29  H   UNL     1      37.699 -16.053  -3.851  1.00  0.00     0.159 HD
HETATM   30  O   UNL     1      39.479 -14.301  -3.677  1.00  0.00    -0.266 OA
ENDBRANCH   8  26
TORSDOF 3
ENDMDL
MODEL 4
REMARK VINA RESULT:      -8.6      4.548      6.157
REMARK  3 active torsions:
REMARK  status: ('A' for Active; 'I' for Inactive)
REMARK    1  A    between atoms: C_9  and  C_10 
REMARK       I    between atoms: C_10  and  N_11 
REMARK    2  A    between atoms: N_11  and  C_12 
REMARK    3  A    between atoms: C_19  and  C_20 
REMARK       I    between atoms: C_20  and  N_21 
ROOT
HETATM    1  C   UNL     1      40.326 -14.155   5.169  1.00  0.00     0.035 A 
HETATM    2  C   UNL     1      40.066 -13.293   6.243  1.00  0.00     0.046 A 
HETATM    3  C   UNL     1      39.593 -11.989   5.996  1.00  0.00     0.030 A 
HETATM    4  C   UNL     1      39.361 -11.599   4.684  1.00  0.00     0.063 A 
HETATM    5  N   UNL     1      38.915 -10.309   4.768  1.00  0.00    -0.277 N 
HETATM    6  H   UNL     1      38.642  -9.703   4.004  1.00  0.00     0.189 HD
HETATM    7  N   UNL     1      38.866  -9.815   6.019  1.00  0.00    -0.168 NA
HETATM    8  C   UNL     1      39.287 -10.844   6.789  1.00  0.00     0.156 A 
HETATM    9  C   UNL     1      39.586 -12.439   3.590  1.00  0.00     0.034 A 
HETATM   10  C   UNL     1      40.088 -13.721   3.860  1.00  0.00     0.032 A 
ENDROOT
BRANCH   1  11
HETATM   11  N   UNL     1      40.916 -15.423   5.346  1.00  0.00    -0.325 N 
HETATM   12  C   UNL     1      42.237 -15.751   5.083  1.00  0.00     0.252 C 
HETATM   13  O   UNL     1      43.170 -14.957   5.006  1.00  0.00    -0.270 OA
HETATM   14  H   UNL     1      40.330 -16.177   5.690  1.00  0.00     0.169 HD
BRANCH  12  15
HETATM   15  C   UNL     1      42.408 -17.233   4.749  1.00  0.00     0.225 C 
HETATM   16  C   UNL     1      42.869 -17.445   3.305  1.00  0.00     0.083 C 
HETATM   17  C   UNL     1      43.462 -18.788   3.487  1.00  0.00    -0.021 A 
HETATM   18  C   UNL     1      43.720 -18.990   4.833  1.00  0.00     0.076 A 
HETATM   19  C   UNL     1      43.779 -19.747   2.544  1.00  0.00     0.017 A 
HETATM   20  C   UNL     1      44.312 -20.146   5.291  1.00  0.00     0.044 A 
HETATM   21  O   UNL     1      43.312 -17.942   5.627  1.00  0.00    -0.336 OA
HETATM   22  C   UNL     1      44.621 -21.156   4.360  1.00  0.00    -0.053 A 
HETATM   23  C   UNL     1      44.359 -20.950   2.976  1.00  0.00    -0.055 A 
HETATM   24  C   UNL     1      45.248 -22.433   4.849  1.00  0.00     0.049 C 
HETATM   25  C   UNL     1      44.656 -22.016   1.956  1.00  0.00     0.049 C 
ENDBRANCH  12  15
ENDBRANCH   1  11
BRANCH   8  26
HETATM   26  C   UNL     1      39.416 -10.712   8.248  1.00  0.00     0.270 C 
HETATM   27  N   UNL     1      40.669 -10.982   8.728  1.00  0.00    -0.365 N 
HETATM   28  H   UNL     1      41.389 -11.266   8.073  1.00  0.00     0.159 HD
HETATM   29  H   UNL     1      40.838 -10.951   9.721  1.00  0.00     0.159 HD
HETATM   30  O   UNL     1      38.501 -10.408   9.006  1.00  0.00    -0.266 OA
ENDBRANCH   8  26
TORSDOF 3
ENDMDL
MODEL 5
REMARK VINA RESULT:      -8.5      3.619      9.251
REMARK  3 active torsions:
REMARK  status: ('A' for Active; 'I' for Inactive)
REMARK    1  A    between atoms: C_9  and  C_10 
REMARK       I    between atoms: C_10  and  N_11 
REMARK    2  A    between atoms: N_11  and  C_12 
REMARK    3  A    between atoms: C_19  and  C_20 
REMARK       I    between atoms: C_20  and  N_21 
ROOT
HETATM    1  C   UNL     1      43.175 -17.490   2.754  1.00  0.00     0.035 A 
HETATM    2  C   UNL     1      43.432 -17.787   4.100  1.00  0.00     0.046 A 
HETATM    3  C   UNL     1      43.942 -19.052   4.452  1.00  0.00     0.030 A 
HETATM    4  C   UNL     1      44.212 -19.969   3.446  1.00  0.00     0.063 A 
HETATM    5  N   UNL     1      44.687 -21.077   4.090  1.00  0.00    -0.277 N 
HETATM    6  H   UNL     1      44.991 -21.948   3.670  1.00  0.00     0.189 HD
HETATM    7  N   UNL     1      44.721 -20.973   5.431  1.00  0.00    -0.168 NA
HETATM    8  C   UNL     1      44.258 -19.725   5.669  1.00  0.00     0.156 A 
HETATM    9  C   UNL     1      43.991 -19.699   2.092  1.00  0.00     0.034 A 
HETATM   10  C   UNL     1      43.452 -18.444   1.769  1.00  0.00     0.032 A 
ENDROOT
BRANCH   1  11
HETATM   11  N   UNL     1      42.551 -16.291   2.353  1.00  0.00    -0.325 N 
HETATM   12  C   UNL     1      41.267 -16.171   1.843  1.00  0.00     0.252 C 
HETATM   13  O   UNL     1      40.361 -16.988   1.986  1.00  0.00    -0.270 OA
HETATM   14  H   UNL     1      43.080 -15.429   2.433  1.00  0.00     0.169 HD
BRANCH  12  15
HETATM   15  C   UNL     1      41.119 -14.950   0.936  1.00  0.00     0.225 C 
HETATM   16  C   UNL     1      42.028 -13.799   1.371  1.00  0.00     0.083 C 
HETATM   17  C   UNL     1      42.084 -13.095   0.071  1.00  0.00    -0.021 A 
HETATM   18  C   UNL     1      41.721 -13.975  -0.935  1.00  0.00     0.076 A 
HETATM   19  C   UNL     1      42.454 -11.795  -0.212  1.00  0.00     0.017 A 
HETATM   20  C   UNL     1      41.722 -13.600  -2.261  1.00  0.00     0.044 A 
HETATM   21  O   UNL     1      41.356 -15.216  -0.465  1.00  0.00    -0.336 OA
HETATM   22  C   UNL     1      42.066 -12.272  -2.581  1.00  0.00    -0.053 A 
HETATM   23  C   UNL     1      42.442 -11.367  -1.549  1.00  0.00    -0.055 A 
HETATM   24  C   UNL     1      42.051 -11.842  -4.023  1.00  0.00     0.049 C 
HETATM   25  C   UNL     1      42.793  -9.935  -1.853  1.00  0.00     0.049 C 
ENDBRANCH  12  15
ENDBRANCH   1  11
BRANCH   8  26
HETATM   26  C   UNL     1      44.101 -19.210   7.038  1.00  0.00     0.270 C 
HETATM   27  N   UNL     1      43.596 -20.122   7.925  1.00  0.00    -0.365 N 
HETATM   28  H   UNL     1      43.353 -21.046   7.588  1.00  0.00     0.159 HD
HETATM   29  H   UNL     1      43.421 -19.843   8.878  1.00  0.00     0.159 HD
HETATM   30  O   UNL     1      44.367 -18.066   7.390  1.00  0.00    -0.266 OA
ENDBRANCH   8  26
TORSDOF 3
ENDMDL
MODEL 6
REMARK VINA RESULT:      -8.2      3.809      5.716
REMARK  3 active torsions:
REMARK  status: ('A' for Active; 'I' for Inactive)
REMARK    1  A    between atoms: C_9  and  C_10 
REMARK       I    between atoms: C_10  and  N_11 
REMARK    2  A    between atoms: N_11  and  C_12 
REMARK    3  A    between atoms: C_19  and  C_20 
REMARK       I    between atoms: C_20  and  N_21 
ROOT
HETATM    1  C   UNL     1      40.609 -12.882   3.023  1.00  0.00     0.035 A 
HETATM    2  C   UNL     1      40.421 -12.694   4.399  1.00  0.00     0.046 A 
HETATM    3  C   UNL     1      39.753 -11.544   4.864  1.00  0.00     0.030 A 
HETATM    4  C   UNL     1      39.261 -10.635   3.938  1.00  0.00     0.063 A 
HETATM    5  N   UNL     1      38.675  -9.649   4.681  1.00  0.00    -0.277 N 
HETATM    6  H   UNL     1      38.205  -8.819   4.338  1.00  0.00     0.189 HD
HETATM    7  N   UNL     1      38.768  -9.821   6.012  1.00  0.00    -0.168 NA
HETATM    8  C   UNL     1      39.437 -10.990   6.140  1.00  0.00     0.156 A 
HETATM    9  C   UNL     1      39.408 -10.801   2.558  1.00  0.00     0.034 A 
HETATM   10  C   UNL     1      40.106 -11.937   2.120  1.00  0.00     0.032 A 
ENDROOT
BRANCH   1  11
HETATM   11  N   UNL     1      41.377 -13.945   2.505  1.00  0.00    -0.325 N 
HETATM   12  C   UNL     1      40.926 -15.233   2.263  1.00  0.00     0.252 C 
HETATM   13  O   UNL     1      39.753 -15.566   2.116  1.00  0.00    -0.270 OA
HETATM   14  H   UNL     1      42.353 -13.767   2.291  1.00  0.00     0.169 HD
BRANCH  12  15
HETATM   15  C   UNL     1      42.054 -16.262   2.339  1.00  0.00     0.225 C 
HETATM   16  C   UNL     1      42.391 -16.637   3.783  1.00  0.00     0.083 C 
HETATM   17  C   UNL     1      43.013 -17.950   3.502  1.00  0.00    -0.021 A 
HETATM   18  C   UNL     1      42.606 -18.384   2.251  1.00  0.00     0.076 A 
HETATM   19  C   UNL     1      43.846 -18.718   4.292  1.00  0.00     0.017 A 
HETATM   20  C   UNL     1      43.001 -19.602   1.743  1.00  0.00     0.044 A 
HETATM   21  O   UNL     1      41.803 -17.478   1.597  1.00  0.00    -0.336 OA
HETATM   22  C   UNL     1      43.874 -20.397   2.510  1.00  0.00    -0.053 A 
HETATM   23  C   UNL     1      44.293 -19.954   3.797  1.00  0.00    -0.055 A 
HETATM   24  C   UNL     1      44.332 -21.720   1.959  1.00  0.00     0.049 C 
HETATM   25  C   UNL     1      45.244 -20.767   4.634  1.00  0.00     0.049 C 
ENDBRANCH  12  15
ENDBRANCH   1  11
BRANCH   8  26
HETATM   26  C   UNL     1      39.785 -11.538   7.459  1.00  0.00     0.270 C 
HETATM   27  N   UNL     1      39.222 -12.756   7.727  1.00  0.00    -0.365 N 
HETATM   28  H   UNL     1      38.609 -13.171   7.034  1.00  0.00     0.159 HD
HETATM   29  H   UNL     1      39.378 -13.189   8.623  1.00  0.00     0.159 HD
HETATM   30  O   UNL     1      40.497 -10.976   8.284  1.00  0.00    -0.266 OA
ENDBRANCH   8  26
TORSDOF 3
ENDMDL
MODEL 7
REMARK VINA RESULT:      -8.2      1.763      2.197
REMARK  3 active torsions:
REMARK  status: ('A' for Active; 'I' for Inactive)
REMARK    1  A    between atoms: C_9  and  C_10 
REMARK       I    between atoms: C_10  and  N_11 
REMARK    2  A    between atoms: N_11  and  C_12 
REMARK    3  A    between atoms: C_19  and  C_20 
REMARK       I    between atoms: C_20  and  N_21 
ROOT
HETATM    1  C   UNL     1      40.395 -14.209  -0.366  1.00  0.00     0.035 A 
HETATM    2  C   UNL     1      39.419 -13.868  -1.312  1.00  0.00     0.046 A 
HETATM    3  C   UNL     1      39.432 -12.588  -1.901  1.00  0.00     0.030 A 
HETATM    4  C   UNL     1      40.441 -11.702  -1.553  1.00  0.00     0.063 A 
HETATM    5  N   UNL     1      40.189 -10.570  -2.278  1.00  0.00    -0.277 N 
HETATM    6  H   UNL     1      40.726  -9.711  -2.281  1.00  0.00     0.189 HD
HETATM    7  N   UNL     1      39.085 -10.631  -3.044  1.00  0.00    -0.168 NA
HETATM    8  C   UNL     1      38.604 -11.875  -2.818  1.00  0.00     0.156 A 
HETATM    9  C   UNL     1      41.445 -12.016  -0.633  1.00  0.00     0.034 A 
HETATM   10  C   UNL     1      41.392 -13.284  -0.035  1.00  0.00     0.032 A 
ENDROOT
BRANCH   1  11
HETATM   11  N   UNL     1      40.361 -15.425   0.348  1.00  0.00    -0.325 N 
HETATM   12  C   UNL     1      40.133 -15.565   1.708  1.00  0.00     0.252 C 
HETATM   13  O   UNL     1      39.584 -14.738   2.431  1.00  0.00    -0.270 OA
HETATM   14  H   UNL     1      40.524 -16.284  -0.168  1.00  0.00     0.169 HD
BRANCH  12  15
HETATM   15  C   UNL     1      40.776 -16.832   2.272  1.00  0.00     0.225 C 
HETATM   16  C   UNL     1      41.385 -17.704   1.173  1.00  0.00     0.083 C 
HETATM   17  C   UNL     1      42.348 -18.440   2.021  1.00  0.00    -0.021 A 
HETATM   18  C   UNL     1      42.555 -17.729   3.192  1.00  0.00     0.076 A 
HETATM   19  C   UNL     1      43.014 -19.625   1.775  1.00  0.00     0.017 A 
HETATM   20  C   UNL     1      43.438 -18.162   4.156  1.00  0.00     0.044 A 
HETATM   21  O   UNL     1      41.786 -16.590   3.278  1.00  0.00    -0.336 OA
HETATM   22  C   UNL     1      44.112 -19.381   3.949  1.00  0.00    -0.053 A 
HETATM   23  C   UNL     1      43.902 -20.113   2.746  1.00  0.00    -0.055 A 
HETATM   24  C   UNL     1      45.063 -19.878   5.004  1.00  0.00     0.049 C 
HETATM   25  C   UNL     1      44.587 -21.431   2.502  1.00  0.00     0.049 C 
ENDBRANCH  12  15
ENDBRANCH   1  11
BRANCH   8  26
HETATM   26  C   UNL     1      37.362 -12.348  -3.449  1.00  0.00     0.270 C 
HETATM   27  N   UNL     1      37.539 -13.380  -4.329  1.00  0.00    -0.365 N 
HETATM   28  H   UNL     1      38.479 -13.721  -4.497  1.00  0.00     0.159 HD
HETATM   29  H   UNL     1      36.746 -13.743  -4.835  1.00  0.00     0.159 HD
HETATM   30  O   UNL     1      36.250 -11.872  -3.247  1.00  0.00    -0.266 OA
ENDBRANCH   8  26
TORSDOF 3
ENDMDL
MODEL 8
REMARK VINA RESULT:      -8.1      3.171      9.353
REMARK  3 active torsions:
REMARK  status: ('A' for Active; 'I' for Inactive)
REMARK    1  A    between atoms: C_9  and  C_10 
REMARK       I    between atoms: C_10  and  N_11 
REMARK    2  A    between atoms: N_11  and  C_12 
REMARK    3  A    between atoms: C_19  and  C_20 
REMARK       I    between atoms: C_20  and  N_21 
ROOT
HETATM    1  C   UNL     1      42.586 -17.860   2.554  1.00  0.00     0.035 A 
HETATM    2  C   UNL     1      42.567 -17.623   3.935  1.00  0.00     0.046 A 
HETATM    3  C   UNL     1      43.307 -18.456   4.798  1.00  0.00     0.030 A 
HETATM    4  C   UNL     1      44.070 -19.477   4.251  1.00  0.00     0.063 A 
HETATM    5  N   UNL     1      44.660 -20.094   5.319  1.00  0.00    -0.277 N 
HETATM    6  H   UNL     1      45.294 -20.885   5.298  1.00  0.00     0.189 HD
HETATM    7  N   UNL     1      44.323 -19.582   6.517  1.00  0.00    -0.168 NA
HETATM    8  C   UNL     1      43.481 -18.569   6.209  1.00  0.00     0.156 A 
HETATM    9  C   UNL     1      44.133 -19.727   2.878  1.00  0.00     0.034 A 
HETATM   10  C   UNL     1      43.362 -18.906   2.041  1.00  0.00     0.032 A 
ENDROOT
BRANCH   1  11
HETATM   11  N   UNL     1      41.772 -17.142   1.654  1.00  0.00    -0.325 N 
HETATM   12  C   UNL     1      41.764 -15.766   1.482  1.00  0.00     0.252 C 
HETATM   13  O   UNL     1      42.671 -15.000   1.794  1.00  0.00    -0.270 OA
HETATM   14  H   UNL     1      41.121 -17.667   1.079  1.00  0.00     0.169 HD
BRANCH  12  15
HETATM   15  C   UNL     1      40.415 -15.257   0.975  1.00  0.00     0.225 C 
HETATM   16  C   UNL     1      39.757 -14.294   1.967  1.00  0.00     0.083 C 
HETATM   17  C   UNL     1      38.877 -13.596   1.004  1.00  0.00    -0.021 A 
HETATM   18  C   UNL     1      39.363 -13.795  -0.278  1.00  0.00     0.076 A 
HETATM   19  C   UNL     1      37.756 -12.822   1.234  1.00  0.00     0.017 A 
HETATM   20  C   UNL     1      38.760 -13.223  -1.377  1.00  0.00     0.044 A 
HETATM   21  O   UNL     1      40.467 -14.614  -0.319  1.00  0.00    -0.336 OA
HETATM   22  C   UNL     1      37.598 -12.452  -1.180  1.00  0.00    -0.053 A 
HETATM   23  C   UNL     1      37.099 -12.245   0.137  1.00  0.00    -0.055 A 
HETATM   24  C   UNL     1      36.917 -11.840  -2.374  1.00  0.00     0.049 C 
HETATM   25  C   UNL     1      35.847 -11.447   0.383  1.00  0.00     0.049 C 
ENDBRANCH  12  15
ENDBRANCH   1  11
BRANCH   8  26
HETATM   26  C   UNL     1      42.844 -17.753   7.253  1.00  0.00     0.270 C 
HETATM   27  N   UNL     1      43.479 -17.797   8.465  1.00  0.00    -0.365 N 
HETATM   28  H   UNL     1      44.300 -18.383   8.563  1.00  0.00     0.159 HD
HETATM   29  H   UNL     1      43.090 -17.296   9.248  1.00  0.00     0.159 HD
HETATM   30  O   UNL     1      41.822 -17.094   7.099  1.00  0.00    -0.266 OA
ENDBRANCH   8  26
TORSDOF 3
ENDMDL
MODEL 9
REMARK VINA RESULT:      -8.1      3.406      8.738
REMARK  3 active torsions:
REMARK  status: ('A' for Active; 'I' for Inactive)
REMARK    1  A    between atoms: C_9  and  C_10 
REMARK       I    between atoms: C_10  and  N_11 
REMARK    2  A    between atoms: N_11  and  C_12 
REMARK    3  A    between atoms: C_19  and  C_20 
REMARK       I    between atoms: C_20  and  N_21 
ROOT
HETATM    1  C   UNL     1      43.440 -17.541   3.888  1.00  0.00     0.035 A 
HETATM    2  C   UNL     1      43.498 -18.762   3.202  1.00  0.00     0.046 A 
HETATM    3  C   UNL     1      44.059 -19.892   3.830  1.00  0.00     0.030 A 
HETATM    4  C   UNL     1      44.511 -19.775   5.136  1.00  0.00     0.063 A 
HETATM    5  N   UNL     1      44.988 -21.015   5.461  1.00  0.00    -0.277 N 
HETATM    6  H   UNL     1      45.394 -21.305   6.344  1.00  0.00     0.189 HD
HETATM    7  N   UNL     1      44.914 -21.920   4.469  1.00  0.00    -0.168 NA
HETATM    8  C   UNL     1      44.344 -21.237   3.451  1.00  0.00     0.156 A 
HETATM    9  C   UNL     1      44.447 -18.582   5.860  1.00  0.00     0.034 A 
HETATM   10  C   UNL     1      43.915 -17.462   5.203  1.00  0.00     0.032 A 
ENDROOT
BRANCH   1  11
HETATM   11  N   UNL     1      43.006 -16.350   3.272  1.00  0.00    -0.325 N 
HETATM   12  C   UNL     1      41.739 -15.796   3.367  1.00  0.00     0.252 C 
HETATM   13  O   UNL     1      40.920 -16.031   4.253  1.00  0.00    -0.270 OA
HETATM   14  H   UNL     1      43.671 -15.843   2.695  1.00  0.00     0.169 HD
BRANCH  12  15
HETATM   15  C   UNL     1      41.388 -14.943   2.149  1.00  0.00     0.225 C 
HETATM   16  C   UNL     1      41.953 -15.532   0.855  1.00  0.00     0.083 C 
HETATM   17  C   UNL     1      41.015 -14.877  -0.082  1.00  0.00    -0.021 A 
HETATM   18  C   UNL     1      39.892 -14.465   0.617  1.00  0.00     0.076 A 
HETATM   19  C   UNL     1      41.122 -14.682  -1.446  1.00  0.00     0.017 A 
HETATM   20  C   UNL     1      38.829 -13.856  -0.014  1.00  0.00     0.044 A 
HETATM   21  O   UNL     1      39.972 -14.715   1.968  1.00  0.00    -0.336 OA
HETATM   22  C   UNL     1      38.919 -13.616  -1.398  1.00  0.00    -0.053 A 
HETATM   23  C   UNL     1      40.072 -14.039  -2.119  1.00  0.00    -0.055 A 
HETATM   24  C   UNL     1      37.776 -12.931  -2.097  1.00  0.00     0.049 C 
HETATM   25  C   UNL     1      40.212 -13.779  -3.595  1.00  0.00     0.049 C 
ENDBRANCH  12  15
ENDBRANCH   1  11
BRANCH   8  26
HETATM   26  C   UNL     1      44.108 -21.861   2.140  1.00  0.00     0.270 C 
HETATM   27  N   UNL     1      42.861 -21.630   1.625  1.00  0.00    -0.365 N 
HETATM   28  H   UNL     1      42.203 -21.085   2.170  1.00  0.00     0.159 HD
HETATM   29  H   UNL     1      42.601 -22.050   0.747  1.00  0.00     0.159 HD
HETATM   30  O   UNL     1      44.922 -22.552   1.538  1.00  0.00    -0.266 OA
ENDBRANCH   8  26
TORSDOF 3
ENDMDL
MODEL 10
REMARK VINA RESULT:      -8.0      5.005      9.342
REMARK  3 active torsions:
REMARK  status: ('A' for Active; 'I' for Inactive)
REMARK    1  A    between atoms: C_9  and  C_10 
REMARK       I    between atoms: C_10  and  N_11 
REMARK    2  A    between atoms: N_11  and  C_12 
REMARK    3  A    between atoms: C_19  and  C_20 
REMARK       I    between atoms: C_20  and  N_21 
ROOT
HETATM    1  C   UNL     1      43.546 -17.873   3.390  1.00  0.00     0.035 A 
HETATM    2  C   UNL     1      43.989 -18.996   4.103  1.00  0.00     0.046 A 
HETATM    3  C   UNL     1      44.145 -20.229   3.440  1.00  0.00     0.030 A 
HETATM    4  C   UNL     1      43.886 -20.294   2.078  1.00  0.00     0.063 A 
HETATM    5  N   UNL     1      44.124 -21.595   1.731  1.00  0.00    -0.277 N 
HETATM    6  H   UNL     1      44.042 -22.010   0.810  1.00  0.00     0.189 HD
HETATM    7  N   UNL     1      44.485 -22.390   2.755  1.00  0.00    -0.168 NA
HETATM    8  C   UNL     1      44.498 -21.558   3.821  1.00  0.00     0.156 A 
HETATM    9  C   UNL     1      43.467 -19.191   1.330  1.00  0.00     0.034 A 
HETATM   10  C   UNL     1      43.287 -17.982   2.019  1.00  0.00     0.032 A 
ENDROOT
BRANCH   1  11
HETATM   11  N   UNL     1      43.252 -16.647   4.021  1.00  0.00    -0.325 N 
HETATM   12  C   UNL     1      42.022 -16.268   4.534  1.00  0.00     0.252 C 
HETATM   13  O   UNL     1      41.111 -17.031   4.847  1.00  0.00    -0.270 OA
HETATM   14  H   UNL     1      44.000 -15.966   4.109  1.00  0.00     0.169 HD
BRANCH  12  15
HETATM   15  C   UNL     1      41.844 -14.750   4.545  1.00  0.00     0.225 C 
HETATM   16  C   UNL     1      40.390 -14.342   4.298  1.00  0.00     0.083 C 
HETATM   17  C   UNL     1      40.457 -13.001   4.919  1.00  0.00    -0.021 A 
HETATM   18  C   UNL     1      41.553 -12.950   5.765  1.00  0.00     0.076 A 
HETATM   19  C   UNL     1      39.608 -11.921   4.778  1.00  0.00     0.017 A 
HETATM   20  C   UNL     1      41.840 -11.827   6.511  1.00  0.00     0.044 A 
HETATM   21  O   UNL     1      42.300 -14.105   5.756  1.00  0.00    -0.336 OA
HETATM   22  C   UNL     1      41.011 -10.698   6.368  1.00  0.00    -0.053 A 
HETATM   23  C   UNL     1      39.883 -10.749   5.501  1.00  0.00    -0.055 A 
HETATM   24  C   UNL     1      41.325  -9.457   7.160  1.00  0.00     0.049 C 
HETATM   25  C   UNL     1      38.989  -9.554   5.307  1.00  0.00     0.049 C 
ENDBRANCH  12  15
ENDBRANCH   1  11
BRANCH   8  26
HETATM   26  C   UNL     1      44.815 -22.042   5.172  1.00  0.00     0.270 C 
HETATM   27  N   UNL     1      45.753 -23.038   5.205  1.00  0.00    -0.365 N 
HETATM   28  H   UNL     1      46.134 -23.377   4.329  1.00  0.00     0.159 HD
HETATM   29  H   UNL     1      46.005 -23.454   6.088  1.00  0.00     0.159 HD
HETATM   30  O   UNL     1      44.294 -21.631   6.203  1.00  0.00    -0.266 OA
ENDBRANCH   8  26
TORSDOF 3
ENDMDL
