MODEL 1
REMARK VINA RESULT:      -7.7      0.000      0.000
REMARK  3 active torsions:
REMARK  status: ('A' for Active; 'I' for Inactive)
REMARK    1  A    between atoms: N_6  and  C_7 
REMARK    2  A    between atoms: C_7  and  C_8 
REMARK    3  A    between atoms: N_10  and  C_11 
ROOT
HETATM    1  C   UNL     1      44.164 -19.841   4.080  1.00  0.00     0.073 A 
HETATM    2  C   UNL     1      44.363 -21.209   4.379  1.00  0.00     0.062 A 
HETATM    3 CL   UNL     1      44.346 -21.834   5.995  1.00  0.00    -0.082 Cl
HETATM    4  C   UNL     1      44.511 -22.168   3.365  1.00  0.00     0.026 A 
HETATM    5  C   UNL     1      44.451 -21.800   2.025  1.00  0.00     0.003 A 
HETATM    6  C   UNL     1      44.226 -20.470   1.692  1.00  0.00     0.025 A 
HETATM    7  C   UNL     1      44.078 -19.501   2.699  1.00  0.00     0.072 A 
HETATM    8  C   UNL     1      43.830 -18.145   2.276  1.00  0.00     0.102 C 
HETATM    9  N   UNL     1      43.561 -17.066   1.935  1.00  0.00    -0.191 NA
ENDROOT
BRANCH   1  10
HETATM   10  N   UNL     1      44.061 -18.824   5.035  1.00  0.00    -0.378 N 
HETATM   11  C   UNL     1      42.719 -18.354   5.386  1.00  0.00     0.129 C 
HETATM   12  C   UNL     1      42.831 -16.831   5.579  1.00  0.00     0.032 C 
HETATM   13  C   UNL     1      43.805 -16.539   6.734  1.00  0.00     0.009 C 
HETATM   14  C   UNL     1      45.171 -17.182   6.458  1.00  0.00     0.020 C 
HETATM   15  C   UNL     1      45.055 -18.671   6.105  1.00  0.00     0.123 C 
BRANCH  12  16
HETATM   16  C   UNL     1      41.443 -16.196   5.754  1.00  0.00     0.278 C 
BRANCH  16  17
HETATM   17  N   UNL     1      41.023 -15.277   4.672  1.00  0.00     0.092 N 
HETATM   18  C   UNL     1      42.136 -14.388   4.270  1.00  0.00     0.300 C 
HETATM   19  C   UNL     1      42.454 -13.242   5.261  1.00  0.00     0.264 C 
HETATM   20  N   UNL     1      41.195 -12.457   5.594  1.00  0.00    -0.072 N 
HETATM   21  C   UNL     1      41.454 -11.355   6.575  1.00  0.00     0.269 C 
HETATM   22  H   UNL     1      40.875 -12.023   4.719  1.00  0.00     0.279 HD
HETATM   23  C   UNL     1      40.068 -13.373   6.057  1.00  0.00     0.264 C 
HETATM   24  C   UNL     1      39.831 -14.461   4.992  1.00  0.00     0.300 C 
ENDBRANCH  16  17
ENDBRANCH  12  16
ENDBRANCH   1  10
TORSDOF 3
ENDMDL
MODEL 2
REMARK VINA RESULT:      -7.7      1.493      2.413
REMARK  3 active torsions:
REMARK  status: ('A' for Active; 'I' for Inactive)
REMARK    1  A    between atoms: N_6  and  C_7 
REMARK    2  A    between atoms: C_7  and  C_8 
REMARK    3  A    between atoms: N_10  and  C_11 
ROOT
HETATM    1  C   UNL     1      44.167 -19.959   4.614  1.00  0.00     0.073 A 
HETATM    2  C   UNL     1      44.243 -21.218   5.255  1.00  0.00     0.062 A 
HETATM    3 CL   UNL     1      43.888 -21.445   6.935  1.00  0.00    -0.082 Cl
HETATM    4  C   UNL     1      44.538 -22.389   4.538  1.00  0.00     0.026 A 
HETATM    5  C   UNL     1      44.753 -22.346   3.165  1.00  0.00     0.003 A 
HETATM    6  C   UNL     1      44.657 -21.132   2.496  1.00  0.00     0.025 A 
HETATM    7  C   UNL     1      44.364 -19.953   3.203  1.00  0.00     0.072 A 
HETATM    8  C   UNL     1      44.264 -18.735   2.439  1.00  0.00     0.102 C 
HETATM    9  N   UNL     1      44.114 -17.766   1.811  1.00  0.00    -0.191 NA
ENDROOT
BRANCH   1  10
HETATM   10  N   UNL     1      43.931 -18.746   5.270  1.00  0.00    -0.378 N 
HETATM   11  C   UNL     1      42.564 -18.219   5.251  1.00  0.00     0.129 C 
HETATM   12  C   UNL     1      42.692 -16.693   5.100  1.00  0.00     0.032 C 
HETATM   13  C   UNL     1      43.453 -16.126   6.311  1.00  0.00     0.009 C 
HETATM   14  C   UNL     1      44.824 -16.803   6.445  1.00  0.00     0.020 C 
HETATM   15  C   UNL     1      44.723 -18.335   6.436  1.00  0.00     0.123 C 
BRANCH  12  16
HETATM   16  C   UNL     1      41.317 -16.047   4.866  1.00  0.00     0.278 C 
BRANCH  16  17
HETATM   17  N   UNL     1      41.340 -14.608   4.520  1.00  0.00     0.092 N 
HETATM   18  C   UNL     1      39.998 -14.139   4.111  1.00  0.00     0.300 C 
HETATM   19  C   UNL     1      39.550 -14.577   2.695  1.00  0.00     0.264 C 
HETATM   20  N   UNL     1      40.611 -14.225   1.664  1.00  0.00    -0.072 N 
HETATM   21  C   UNL     1      40.229 -14.661   0.283  1.00  0.00     0.269 C 
HETATM   22  H   UNL     1      40.688 -13.200   1.655  1.00  0.00     0.279 HD
HETATM   23  C   UNL     1      41.982 -14.756   2.066  1.00  0.00     0.264 C 
HETATM   24  C   UNL     1      42.328 -14.247   3.478  1.00  0.00     0.300 C 
ENDBRANCH  16  17
ENDBRANCH  12  16
ENDBRANCH   1  10
TORSDOF 3
ENDMDL
MODEL 3
REMARK VINA RESULT:      -7.5      2.950      4.047
REMARK  3 active torsions:
REMARK  status: ('A' for Active; 'I' for Inactive)
REMARK    1  A    between atoms: N_6  and  C_7 
REMARK    2  A    between atoms: C_7  and  C_8 
REMARK    3  A    between atoms: N_10  and  C_11 
ROOT
HETATM    1  C   UNL     1      43.544 -17.604   5.048  1.00  0.00     0.073 A 
HETATM    2  C   UNL     1      43.474 -18.362   6.241  1.00  0.00     0.062 A 
HETATM    3 CL   UNL     1      42.812 -17.741   7.717  1.00  0.00    -0.082 Cl
HETATM    4  C   UNL     1      43.870 -19.708   6.278  1.00  0.00     0.026 A 
HETATM    5  C   UNL     1      44.335 -20.345   5.132  1.00  0.00     0.003 A 
HETATM    6  C   UNL     1      44.389 -19.641   3.935  1.00  0.00     0.025 A 
HETATM    7  C   UNL     1      43.996 -18.292   3.886  1.00  0.00     0.072 A 
HETATM    8  C   UNL     1      44.064 -17.634   2.605  1.00  0.00     0.102 C 
HETATM    9  N   UNL     1      44.052 -17.125   1.558  1.00  0.00    -0.191 NA
ENDROOT
BRANCH   1  10
HETATM   10  N   UNL     1      43.217 -16.248   4.947  1.00  0.00    -0.378 N 
HETATM   11  C   UNL     1      41.843 -15.906   4.570  1.00  0.00     0.129 C 
HETATM   12  C   UNL     1      41.941 -14.682   3.642  1.00  0.00     0.032 C 
HETATM   13  C   UNL     1      42.576 -13.512   4.414  1.00  0.00     0.009 C 
HETATM   14  C   UNL     1      43.948 -13.920   4.969  1.00  0.00     0.020 C 
HETATM   15  C   UNL     1      43.890 -15.231   5.765  1.00  0.00     0.123 C 
BRANCH  12  16
HETATM   16  C   UNL     1      40.575 -14.354   3.020  1.00  0.00     0.278 C 
BRANCH  16  17
HETATM   17  N   UNL     1      39.973 -15.432   2.202  1.00  0.00     0.092 N 
HETATM   18  C   UNL     1      40.831 -15.759   1.041  1.00  0.00     0.300 C 
HETATM   19  C   UNL     1      40.800 -14.727  -0.111  1.00  0.00     0.264 C 
HETATM   20  N   UNL     1      39.368 -14.434  -0.531  1.00  0.00    -0.072 N 
HETATM   21  C   UNL     1      39.293 -13.414  -1.626  1.00  0.00     0.269 C 
HETATM   22  H   UNL     1      38.980 -15.312  -0.898  1.00  0.00     0.279 HD
HETATM   23  C   UNL     1      38.502 -14.046   0.662  1.00  0.00     0.264 C 
HETATM   24  C   UNL     1      38.598 -15.148   1.735  1.00  0.00     0.300 C 
ENDBRANCH  16  17
ENDBRANCH  12  16
ENDBRANCH   1  10
TORSDOF 3
ENDMDL
MODEL 4
REMARK VINA RESULT:      -7.0      3.065      4.437
REMARK  3 active torsions:
REMARK  status: ('A' for Active; 'I' for Inactive)
REMARK    1  A    between atoms: N_6  and  C_7 
REMARK    2  A    between atoms: C_7  and  C_8 
REMARK    3  A    between atoms: N_10  and  C_11 
ROOT
HETATM    1  C   UNL     1      43.651 -17.633   4.821  1.00  0.00     0.073 A 
HETATM    2  C   UNL     1      44.016 -18.345   3.654  1.00  0.00     0.062 A 
HETATM    3 CL   UNL     1      44.147 -17.598   2.096  1.00  0.00    -0.082 Cl
HETATM    4  C   UNL     1      44.374 -19.701   3.704  1.00  0.00     0.026 A 
HETATM    5  C   UNL     1      44.394 -20.387   4.914  1.00  0.00     0.003 A 
HETATM    6  C   UNL     1      44.072 -19.714   6.085  1.00  0.00     0.025 A 
HETATM    7  C   UNL     1      43.710 -18.355   6.047  1.00  0.00     0.072 A 
HETATM    8  C   UNL     1      43.406 -17.721   7.306  1.00  0.00     0.102 C 
HETATM    9  N   UNL     1      43.230 -17.192   8.327  1.00  0.00    -0.191 NA
ENDROOT
BRANCH   1  10
HETATM   10  N   UNL     1      43.234 -16.299   4.841  1.00  0.00    -0.378 N 
HETATM   11  C   UNL     1      41.821 -16.024   4.567  1.00  0.00     0.129 C 
HETATM   12  C   UNL     1      41.786 -14.733   3.730  1.00  0.00     0.032 C 
HETATM   13  C   UNL     1      42.391 -13.581   4.551  1.00  0.00     0.009 C 
HETATM   14  C   UNL     1      43.817 -13.934   4.997  1.00  0.00     0.020 C 
HETATM   15  C   UNL     1      43.890 -15.300   5.694  1.00  0.00     0.123 C 
BRANCH  12  16
HETATM   16  C   UNL     1      40.367 -14.454   3.209  1.00  0.00     0.278 C 
BRANCH  16  17
HETATM   17  N   UNL     1      39.806 -15.485   2.307  1.00  0.00     0.092 N 
HETATM   18  C   UNL     1      40.785 -15.868   1.266  1.00  0.00     0.300 C 
HETATM   19  C   UNL     1      40.978 -14.833   0.131  1.00  0.00     0.264 C 
HETATM   20  N   UNL     1      39.638 -14.440  -0.470  1.00  0.00    -0.072 N 
HETATM   21  C   UNL     1      39.778 -13.416  -1.553  1.00  0.00     0.269 C 
HETATM   22  H   UNL     1      39.243 -15.288  -0.895  1.00  0.00     0.279 HD
HETATM   23  C   UNL     1      38.650 -13.997   0.603  1.00  0.00     0.264 C 
HETATM   24  C   UNL     1      38.528 -15.105   1.667  1.00  0.00     0.300 C 
ENDBRANCH  16  17
ENDBRANCH  12  16
ENDBRANCH   1  10
TORSDOF 3
ENDMDL
MODEL 5
REMARK VINA RESULT:      -6.9      2.468      4.338
REMARK  3 active torsions:
REMARK  status: ('A' for Active; 'I' for Inactive)
REMARK    1  A    between atoms: N_6  and  C_7 
REMARK    2  A    between atoms: C_7  and  C_8 
REMARK    3  A    between atoms: N_10  and  C_11 
ROOT
HETATM    1  C   UNL     1      42.414 -17.391   3.407  1.00  0.00     0.073 A 
HETATM    2  C   UNL     1      43.441 -18.004   2.652  1.00  0.00     0.062 A 
HETATM    3 CL   UNL     1      43.883 -17.482   1.060  1.00  0.00    -0.082 Cl
HETATM    4  C   UNL     1      44.227 -19.037   3.186  1.00  0.00     0.026 A 
HETATM    5  C   UNL     1      44.026 -19.483   4.489  1.00  0.00     0.003 A 
HETATM    6  C   UNL     1      43.047 -18.884   5.271  1.00  0.00     0.025 A 
HETATM    7  C   UNL     1      42.253 -17.849   4.746  1.00  0.00     0.072 A 
HETATM    8  C   UNL     1      41.269 -17.265   5.624  1.00  0.00     0.102 C 
HETATM    9  N   UNL     1      40.525 -16.748   6.354  1.00  0.00    -0.191 NA
ENDROOT
BRANCH   1  10
HETATM   10  N   UNL     1      41.559 -16.395   2.925  1.00  0.00    -0.378 N 
HETATM   11  C   UNL     1      42.023 -15.007   2.996  1.00  0.00     0.129 C 
HETATM   12  C   UNL     1      40.793 -14.158   3.362  1.00  0.00     0.032 C 
HETATM   13  C   UNL     1      39.734 -14.297   2.254  1.00  0.00     0.009 C 
HETATM   14  C   UNL     1      39.368 -15.774   2.047  1.00  0.00     0.020 C 
HETATM   15  C   UNL     1      40.605 -16.659   1.840  1.00  0.00     0.123 C 
BRANCH  12  16
HETATM   16  C   UNL     1      41.197 -12.706   3.663  1.00  0.00     0.278 C 
BRANCH  16  17
HETATM   17  N   UNL     1      40.079 -11.782   3.958  1.00  0.00     0.092 N 
HETATM   18  C   UNL     1      40.519 -10.372   3.873  1.00  0.00     0.300 C 
HETATM   19  C   UNL     1      41.377  -9.877   5.062  1.00  0.00     0.264 C 
HETATM   20  N   UNL     1      40.685 -10.174   6.383  1.00  0.00    -0.072 N 
HETATM   21  C   UNL     1      41.498  -9.738   7.563  1.00  0.00     0.269 C 
HETATM   22  H   UNL     1      39.812  -9.632   6.390  1.00  0.00     0.279 HD
HETATM   23  C   UNL     1      40.280 -11.641   6.487  1.00  0.00     0.264 C 
HETATM   24  C   UNL     1      39.422 -12.016   5.263  1.00  0.00     0.300 C 
ENDBRANCH  16  17
ENDBRANCH  12  16
ENDBRANCH   1  10
TORSDOF 3
ENDMDL
MODEL 6
REMARK VINA RESULT:      -6.9      3.321      4.925
REMARK  3 active torsions:
REMARK  status: ('A' for Active; 'I' for Inactive)
REMARK    1  A    between atoms: N_6  and  C_7 
REMARK    2  A    between atoms: C_7  and  C_8 
REMARK    3  A    between atoms: N_10  and  C_11 
ROOT
HETATM    1  C   UNL     1      43.254 -17.504   4.580  1.00  0.00     0.073 A 
HETATM    2  C   UNL     1      43.387 -18.635   3.741  1.00  0.00     0.062 A 
HETATM    3 CL   UNL     1      42.524 -18.811   2.249  1.00  0.00    -0.082 Cl
HETATM    4  C   UNL     1      44.298 -19.662   4.034  1.00  0.00     0.026 A 
HETATM    5  C   UNL     1      45.113 -19.590   5.159  1.00  0.00     0.003 A 
HETATM    6  C   UNL     1      45.032 -18.479   5.989  1.00  0.00     0.025 A 
HETATM    7  C   UNL     1      44.122 -17.445   5.707  1.00  0.00     0.072 A 
HETATM    8  C   UNL     1      44.109 -16.318   6.605  1.00  0.00     0.102 C 
HETATM    9  N   UNL     1      44.148 -15.378   7.290  1.00  0.00    -0.191 NA
ENDROOT
BRANCH   1  10
HETATM   10  N   UNL     1      42.333 -16.470   4.380  1.00  0.00    -0.378 N 
HETATM   11  C   UNL     1      42.438 -15.696   3.141  1.00  0.00     0.129 C 
HETATM   12  C   UNL     1      42.127 -14.236   3.515  1.00  0.00     0.032 C 
HETATM   13  C   UNL     1      40.692 -14.149   4.064  1.00  0.00     0.009 C 
HETATM   14  C   UNL     1      40.519 -15.095   5.261  1.00  0.00     0.020 C 
HETATM   15  C   UNL     1      40.979 -16.526   4.946  1.00  0.00     0.123 C 
BRANCH  12  16
HETATM   16  C   UNL     1      42.403 -13.295   2.332  1.00  0.00     0.278 C 
BRANCH  16  17
HETATM   17  N   UNL     1      41.210 -12.866   1.568  1.00  0.00     0.092 N 
HETATM   18  C   UNL     1      40.811 -13.898   0.585  1.00  0.00     0.300 C 
HETATM   19  C   UNL     1      41.709 -13.991  -0.672  1.00  0.00     0.264 C 
HETATM   20  N   UNL     1      41.870 -12.625  -1.320  1.00  0.00    -0.072 N 
HETATM   21  C   UNL     1      42.759 -12.667  -2.525  1.00  0.00     0.269 C 
HETATM   22  H   UNL     1      40.936 -12.334  -1.634  1.00  0.00     0.279 HD
HETATM   23  C   UNL     1      42.331 -11.577  -0.313  1.00  0.00     0.264 C 
HETATM   24  C   UNL     1      41.359 -11.563   0.883  1.00  0.00     0.300 C 
ENDBRANCH  16  17
ENDBRANCH  12  16
ENDBRANCH   1  10
TORSDOF 3
ENDMDL
MODEL 7
REMARK VINA RESULT:      -6.8      2.734      3.541
REMARK  3 active torsions:
REMARK  status: ('A' for Active; 'I' for Inactive)
REMARK    1  A    between atoms: N_6  and  C_7 
REMARK    2  A    between atoms: C_7  and  C_8 
REMARK    3  A    between atoms: N_10  and  C_11 
ROOT
HETATM    1  C   UNL     1      43.146 -18.512   3.769  1.00  0.00     0.073 A 
HETATM    2  C   UNL     1      42.892 -19.085   2.501  1.00  0.00     0.062 A 
HETATM    3 CL   UNL     1      41.704 -18.463   1.404  1.00  0.00    -0.082 Cl
HETATM    4  C   UNL     1      43.653 -20.161   2.017  1.00  0.00     0.026 A 
HETATM    5  C   UNL     1      44.696 -20.690   2.769  1.00  0.00     0.003 A 
HETATM    6  C   UNL     1      44.995 -20.133   4.007  1.00  0.00     0.025 A 
HETATM    7  C   UNL     1      44.239 -19.057   4.503  1.00  0.00     0.072 A 
HETATM    8  C   UNL     1      44.619 -18.522   5.786  1.00  0.00     0.102 C 
HETATM    9  N   UNL     1      44.972 -18.046   6.788  1.00  0.00    -0.191 NA
ENDROOT
BRANCH   1  10
HETATM   10  N   UNL     1      42.398 -17.477   4.338  1.00  0.00    -0.378 N 
HETATM   11  C   UNL     1      42.098 -16.314   3.498  1.00  0.00     0.129 C 
HETATM   12  C   UNL     1      42.201 -15.081   4.414  1.00  0.00     0.032 C 
HETATM   13  C   UNL     1      41.154 -15.197   5.536  1.00  0.00     0.009 C 
HETATM   14  C   UNL     1      41.349 -16.506   6.315  1.00  0.00     0.020 C 
HETATM   15  C   UNL     1      41.409 -17.731   5.393  1.00  0.00     0.123 C 
BRANCH  12  16
HETATM   16  C   UNL     1      42.104 -13.782   3.599  1.00  0.00     0.278 C 
BRANCH  16  17
HETATM   17  N   UNL     1      41.009 -13.735   2.603  1.00  0.00     0.092 N 
HETATM   18  C   UNL     1      41.531 -13.414   1.256  1.00  0.00     0.300 C 
HETATM   19  C   UNL     1      41.929 -11.934   1.040  1.00  0.00     0.264 C 
HETATM   20  N   UNL     1      40.792 -11.009   1.441  1.00  0.00    -0.072 N 
HETATM   21  C   UNL     1      41.148  -9.563   1.276  1.00  0.00     0.269 C 
HETATM   22  H   UNL     1      40.008 -11.209   0.807  1.00  0.00     0.279 HD
HETATM   23  C   UNL     1      40.293 -11.310   2.850  1.00  0.00     0.264 C 
HETATM   24  C   UNL     1      39.914 -12.801   2.944  1.00  0.00     0.300 C 
ENDBRANCH  16  17
ENDBRANCH  12  16
ENDBRANCH   1  10
TORSDOF 3
ENDMDL
MODEL 8
REMARK VINA RESULT:      -6.8      2.316      3.457
REMARK  3 active torsions:
REMARK  status: ('A' for Active; 'I' for Inactive)
REMARK    1  A    between atoms: N_6  and  C_7 
REMARK    2  A    between atoms: C_7  and  C_8 
REMARK    3  A    between atoms: N_10  and  C_11 
ROOT
HETATM    1  C   UNL     1      43.695 -19.228   4.355  1.00  0.00     0.073 A 
HETATM    2  C   UNL     1      44.055 -19.330   2.990  1.00  0.00     0.062 A 
HETATM    3 CL   UNL     1      43.768 -18.066   1.841  1.00  0.00    -0.082 Cl
HETATM    4  C   UNL     1      44.747 -20.447   2.497  1.00  0.00     0.026 A 
HETATM    5  C   UNL     1      45.114 -21.488   3.343  1.00  0.00     0.003 A 
HETATM    6  C   UNL     1      44.804 -21.409   4.695  1.00  0.00     0.025 A 
HETATM    7  C   UNL     1      44.110 -20.296   5.201  1.00  0.00     0.072 A 
HETATM    8  C   UNL     1      43.841 -20.277   6.617  1.00  0.00     0.102 C 
HETATM    9  N   UNL     1      43.686 -20.231   7.770  1.00  0.00    -0.191 NA
ENDROOT
BRANCH   1  10
HETATM   10  N   UNL     1      42.962 -18.173   4.907  1.00  0.00    -0.378 N 
HETATM   11  C   UNL     1      43.709 -17.036   5.451  1.00  0.00     0.129 C 
HETATM   12  C   UNL     1      42.958 -16.590   6.717  1.00  0.00     0.032 C 
HETATM   13  C   UNL     1      41.537 -16.143   6.331  1.00  0.00     0.009 C 
HETATM   14  C   UNL     1      40.801 -17.274   5.599  1.00  0.00     0.020 C 
HETATM   15  C   UNL     1      41.615 -17.837   4.426  1.00  0.00     0.123 C 
BRANCH  12  16
HETATM   16  C   UNL     1      43.761 -15.530   7.488  1.00  0.00     0.278 C 
BRANCH  16  17
HETATM   17  N   UNL     1      44.289 -14.414   6.671  1.00  0.00     0.092 N 
HETATM   18  C   UNL     1      45.248 -13.597   7.447  1.00  0.00     0.300 C 
HETATM   19  C   UNL     1      44.611 -12.659   8.501  1.00  0.00     0.264 C 
HETATM   20  N   UNL     1      43.521 -11.807   7.872  1.00  0.00    -0.072 N 
HETATM   21  C   UNL     1      42.857 -10.906   8.868  1.00  0.00     0.269 C 
HETATM   22  H   UNL     1      43.977 -11.211   7.171  1.00  0.00     0.279 HD
HETATM   23  C   UNL     1      42.506 -12.660   7.118  1.00  0.00     0.264 C 
HETATM   24  C   UNL     1      43.248 -13.537   6.091  1.00  0.00     0.300 C 
ENDBRANCH  16  17
ENDBRANCH  12  16
ENDBRANCH   1  10
TORSDOF 3
ENDMDL
MODEL 9
REMARK VINA RESULT:      -6.8      2.096      3.443
REMARK  3 active torsions:
REMARK  status: ('A' for Active; 'I' for Inactive)
REMARK    1  A    between atoms: N_6  and  C_7 
REMARK    2  A    between atoms: C_7  and  C_8 
REMARK    3  A    between atoms: N_10  and  C_11 
ROOT
HETATM    1  C   UNL     1      44.064 -19.782   4.496  1.00  0.00     0.073 A 
HETATM    2  C   UNL     1      44.345 -19.858   3.111  1.00  0.00     0.062 A 
HETATM    3 CL   UNL     1      44.494 -18.459   2.100  1.00  0.00    -0.082 Cl
HETATM    4  C   UNL     1      44.599 -21.086   2.481  1.00  0.00     0.026 A 
HETATM    5  C   UNL     1      44.597 -22.273   3.207  1.00  0.00     0.003 A 
HETATM    6  C   UNL     1      44.356 -22.234   4.575  1.00  0.00     0.025 A 
HETATM    7  C   UNL     1      44.098 -21.010   5.217  1.00  0.00     0.072 A 
HETATM    8  C   UNL     1      43.873 -21.049   6.640  1.00  0.00     0.102 C 
HETATM    9  N   UNL     1      43.763 -21.073   7.799  1.00  0.00    -0.191 NA
ENDROOT
BRANCH   1  10
HETATM   10  N   UNL     1      43.750 -18.604   5.180  1.00  0.00    -0.378 N 
HETATM   11  C   UNL     1      42.363 -18.135   5.125  1.00  0.00     0.129 C 
HETATM   12  C   UNL     1      42.429 -16.601   5.027  1.00  0.00     0.032 C 
HETATM   13  C   UNL     1      43.118 -16.043   6.284  1.00  0.00     0.009 C 
HETATM   14  C   UNL     1      44.512 -16.665   6.450  1.00  0.00     0.020 C 
HETATM   15  C   UNL     1      44.478 -18.198   6.389  1.00  0.00     0.123 C 
BRANCH  12  16
HETATM   16  C   UNL     1      41.036 -16.007   4.760  1.00  0.00     0.278 C 
BRANCH  16  17
HETATM   17  N   UNL     1      41.021 -14.594   4.318  1.00  0.00     0.092 N 
HETATM   18  C   UNL     1      39.756 -14.270   3.622  1.00  0.00     0.300 C 
HETATM   19  C   UNL     1      39.633 -14.829   2.184  1.00  0.00     0.264 C 
HETATM   20  N   UNL     1      40.848 -14.447   1.355  1.00  0.00    -0.072 N 
HETATM   21  C   UNL     1      40.783 -14.996  -0.038  1.00  0.00     0.269 C 
HETATM   22  H   UNL     1      40.850 -13.422   1.284  1.00  0.00     0.279 HD
HETATM   23  C   UNL     1      42.148 -14.831   2.053  1.00  0.00     0.264 C 
HETATM   24  C   UNL     1      42.167 -14.210   3.463  1.00  0.00     0.300 C 
ENDBRANCH  16  17
ENDBRANCH  12  16
ENDBRANCH   1  10
TORSDOF 3
ENDMDL
MODEL 10
REMARK VINA RESULT:      -6.8      5.308      8.083
REMARK  3 active torsions:
REMARK  status: ('A' for Active; 'I' for Inactive)
REMARK    1  A    between atoms: N_6  and  C_7 
REMARK    2  A    between atoms: C_7  and  C_8 
REMARK    3  A    between atoms: N_10  and  C_11 
ROOT
HETATM    1  C   UNL     1      41.324 -13.012  -1.168  1.00  0.00     0.073 A 
HETATM    2  C   UNL     1      41.952 -11.750  -1.040  1.00  0.00     0.062 A 
HETATM    3 CL   UNL     1      42.155 -10.947   0.481  1.00  0.00    -0.082 Cl
HETATM    4  C   UNL     1      42.525 -11.101  -2.145  1.00  0.00     0.026 A 
HETATM    5  C   UNL     1      42.506 -11.690  -3.405  1.00  0.00     0.003 A 
HETATM    6  C   UNL     1      41.925 -12.942  -3.563  1.00  0.00     0.025 A 
HETATM    7  C   UNL     1      41.346 -13.601  -2.465  1.00  0.00     0.072 A 
HETATM    8  C   UNL     1      40.779 -14.905  -2.704  1.00  0.00     0.102 C 
HETATM    9  N   UNL     1      40.385 -15.985  -2.884  1.00  0.00    -0.191 NA
ENDROOT
BRANCH   1  10
HETATM   10  N   UNL     1      40.687 -13.692  -0.126  1.00  0.00    -0.378 N 
HETATM   11  C   UNL     1      41.517 -14.520   0.753  1.00  0.00     0.129 C 
HETATM   12  C   UNL     1      40.686 -15.774   1.077  1.00  0.00     0.032 C 
HETATM   13  C   UNL     1      39.403 -15.354   1.816  1.00  0.00     0.009 C 
HETATM   14  C   UNL     1      38.609 -14.344   0.975  1.00  0.00     0.020 C 
HETATM   15  C   UNL     1      39.473 -13.164   0.509  1.00  0.00     0.123 C 
BRANCH  12  16
HETATM   16  C   UNL     1      41.531 -16.813   1.831  1.00  0.00     0.278 C 
BRANCH  16  17
HETATM   17  N   UNL     1      42.910 -16.390   2.166  1.00  0.00     0.092 N 
HETATM   18  C   UNL     1      43.906 -17.316   1.583  1.00  0.00     0.300 C 
HETATM   19  C   UNL     1      44.039 -18.679   2.304  1.00  0.00     0.264 C 
HETATM   20  N   UNL     1      44.260 -18.478   3.794  1.00  0.00    -0.072 N 
HETATM   21  C   UNL     1      44.363 -19.776   4.535  1.00  0.00     0.269 C 
HETATM   22  H   UNL     1      45.158 -17.989   3.899  1.00  0.00     0.279 HD
HETATM   23  C   UNL     1      43.200 -17.565   4.401  1.00  0.00     0.264 C 
HETATM   24  C   UNL     1      43.166 -16.239   3.616  1.00  0.00     0.300 C 
ENDBRANCH  16  17
ENDBRANCH  12  16
ENDBRANCH   1  10
TORSDOF 3
ENDMDL
