MODEL 1
REMARK VINA RESULT:      -9.2      0.000      0.000
REMARK  6 active torsions:
REMARK  status: ('A' for Active; 'I' for Inactive)
REMARK    1  A    between atoms: O_2  and  C_3 
REMARK    2  A    between atoms: C_6  and  C_7 
REMARK    3  A    between atoms: C_13  and  C_14 
REMARK       I    between atoms: C_14  and  N_15 
REMARK    4  A    between atoms: N_15  and  C_16 
REMARK    5  A    between atoms: C_18  and  O_19 
REMARK    6  A    between atoms: C_24  and  C_25 
ROOT
HETATM    1  C   UNL     1      43.719 -16.700   2.805  1.00  0.00     0.118 C 
HETATM    2  N   UNL     1      42.722 -16.474   1.745  1.00  0.00    -0.365 N 
HETATM    3  C   UNL     1      42.189 -15.224   1.615  1.00  0.00     0.138 C 
HETATM    4  N   UNL     1      42.365 -14.273   2.599  1.00  0.00    -0.240 N 
HETATM    5  N   UNL     1      41.952 -13.049   2.241  1.00  0.00    -0.181 NA
HETATM    6  C   UNL     1      41.350 -13.259   1.070  1.00  0.00     0.160 C 
HETATM    7  C   UNL     1      41.433 -14.604   0.633  1.00  0.00     0.096 C 
HETATM    8  C   UNL     1      43.114 -14.481   3.825  1.00  0.00     0.221 C 
HETATM    9  C   UNL     1      43.287 -15.983   4.088  1.00  0.00     0.066 C 
HETATM   10  H   UNL     1      42.990 -16.969   0.891  1.00  0.00     0.161 HD
ENDROOT
BRANCH   7  11
HETATM   11  C   UNL     1      40.850 -15.122  -0.595  1.00  0.00     0.261 C 
HETATM   12  N   UNL     1      39.810 -14.361  -1.093  1.00  0.00    -0.323 N 
HETATM   13  H   UNL     1      39.594 -13.519  -0.574  1.00  0.00     0.169 HD
HETATM   14  O   UNL     1      41.303 -16.139  -1.108  1.00  0.00    -0.267 OA
BRANCH  12  15
HETATM   15  C   UNL     1      39.057 -14.594  -2.264  1.00  0.00     0.037 A 
HETATM   16  C   UNL     1      39.393 -15.549  -3.230  1.00  0.00     0.066 A 
HETATM   17  C   UNL     1      38.594 -15.704  -4.362  1.00  0.00     0.067 A 
HETATM   18  C   UNL     1      37.456 -14.932  -4.548  1.00  0.00     0.036 A 
HETATM   19  C   UNL     1      37.112 -13.981  -3.591  1.00  0.00     0.005 A 
HETATM   20  C   UNL     1      37.914 -13.808  -2.458  1.00  0.00     0.029 A 
BRANCH  17  21
HETATM   21  O   UNL     1      38.909 -16.614  -5.330  1.00  0.00    -0.361 OA
HETATM   22  H   UNL     1      38.154 -17.216  -5.442  1.00  0.00     0.217 HD
ENDBRANCH  17  21
ENDBRANCH  12  15
ENDBRANCH   7  11
BRANCH   1  23
HETATM   23  C   UNL     1      43.885 -18.185   3.063  1.00  0.00    -0.035 A 
HETATM   24  C   UNL     1      43.688 -19.106   2.024  1.00  0.00     0.012 A 
HETATM   25  C   UNL     1      43.930 -20.472   2.217  1.00  0.00     0.037 A 
HETATM   26  C   UNL     1      44.378 -20.937   3.452  1.00  0.00     0.068 A 
HETATM   27  C   UNL     1      44.551 -20.032   4.499  1.00  0.00     0.037 A 
HETATM   28  C   UNL     1      44.312 -18.668   4.310  1.00  0.00     0.012 A 
BRANCH  26  29
HETATM   29  O   UNL     1      44.675 -22.236   3.760  1.00  0.00    -0.356 OA
HETATM   30  C   UNL     1      45.104 -22.495   5.091  1.00  0.00     0.210 C 
ENDBRANCH  26  29
ENDBRANCH   1  23
BRANCH   8  31
HETATM   31  C   UNL     1      42.443 -13.833   5.018  1.00  0.00     0.409 C 
HETATM   32  F   UNL     1      41.125 -14.126   5.092  1.00  0.00    -0.169 F 
HETATM   33  F   UNL     1      43.009 -14.304   6.164  1.00  0.00    -0.169 F 
HETATM   34  F   UNL     1      42.586 -12.493   5.057  1.00  0.00    -0.169 F 
ENDBRANCH   8  31
TORSDOF 6
ENDMDL
MODEL 2
REMARK VINA RESULT:      -8.9      4.152      7.249
REMARK  6 active torsions:
REMARK  status: ('A' for Active; 'I' for Inactive)
REMARK    1  A    between atoms: O_2  and  C_3 
REMARK    2  A    between atoms: C_6  and  C_7 
REMARK    3  A    between atoms: C_13  and  C_14 
REMARK       I    between atoms: C_14  and  N_15 
REMARK    4  A    between atoms: N_15  and  C_16 
REMARK    5  A    between atoms: C_18  and  O_19 
REMARK    6  A    between atoms: C_24  and  C_25 
ROOT
HETATM    1  C   UNL     1      41.476 -17.375   2.671  1.00  0.00     0.118 C 
HETATM    2  N   UNL     1      41.377 -16.270   3.638  1.00  0.00    -0.365 N 
HETATM    3  C   UNL     1      40.688 -15.150   3.272  1.00  0.00     0.138 C 
HETATM    4  N   UNL     1      40.327 -14.939   1.956  1.00  0.00    -0.240 N 
HETATM    5  N   UNL     1      39.495 -13.901   1.790  1.00  0.00    -0.181 NA
HETATM    6  C   UNL     1      39.459 -13.339   2.998  1.00  0.00     0.160 C 
HETATM    7  C   UNL     1      40.209 -14.051   3.967  1.00  0.00     0.096 C 
HETATM    8  C   UNL     1      40.616 -15.850   0.864  1.00  0.00     0.221 C 
HETATM    9  C   UNL     1      41.736 -16.819   1.267  1.00  0.00     0.066 C 
HETATM   10  H   UNL     1      41.228 -16.633   4.582  1.00  0.00     0.161 HD
ENDROOT
BRANCH   7  11
HETATM   11  C   UNL     1      40.362 -13.659   5.359  1.00  0.00     0.261 C 
HETATM   12  N   UNL     1      40.335 -12.294   5.570  1.00  0.00    -0.323 N 
HETATM   13  H   UNL     1      40.179 -11.726   4.746  1.00  0.00     0.169 HD
HETATM   14  O   UNL     1      40.479 -14.516   6.229  1.00  0.00    -0.267 OA
BRANCH  12  15
HETATM   15  C   UNL     1      40.446 -11.610   6.800  1.00  0.00     0.037 A 
HETATM   16  C   UNL     1      39.395 -11.472   7.713  1.00  0.00     0.066 A 
HETATM   17  C   UNL     1      39.594 -10.770   8.901  1.00  0.00     0.067 A 
HETATM   18  C   UNL     1      40.827 -10.212   9.207  1.00  0.00     0.036 A 
HETATM   19  C   UNL     1      41.880 -10.347   8.306  1.00  0.00     0.005 A 
HETATM   20  C   UNL     1      41.688 -11.037   7.104  1.00  0.00     0.029 A 
BRANCH  17  21
HETATM   21  O   UNL     1      38.581 -10.602   9.801  1.00  0.00    -0.361 OA
HETATM   22  H   UNL     1      38.090 -11.438   9.870  1.00  0.00     0.217 HD
ENDBRANCH  17  21
ENDBRANCH  12  15
ENDBRANCH   7  11
BRANCH   1  23
HETATM   23  C   UNL     1      42.585 -18.328   3.071  1.00  0.00    -0.035 A 
HETATM   24  C   UNL     1      43.079 -18.321   4.385  1.00  0.00     0.012 A 
HETATM   25  C   UNL     1      44.034 -19.256   4.800  1.00  0.00     0.037 A 
HETATM   26  C   UNL     1      44.507 -20.218   3.909  1.00  0.00     0.068 A 
HETATM   27  C   UNL     1      44.042 -20.216   2.593  1.00  0.00     0.037 A 
HETATM   28  C   UNL     1      43.088 -19.285   2.176  1.00  0.00     0.012 A 
BRANCH  26  29
HETATM   29  O   UNL     1      45.416 -21.199   4.196  1.00  0.00    -0.356 OA
HETATM   30  C   UNL     1      45.003 -22.202   5.117  1.00  0.00     0.210 C 
ENDBRANCH  26  29
ENDBRANCH   1  23
BRANCH   8  31
HETATM   31  C   UNL     1      41.012 -15.115  -0.399  1.00  0.00     0.409 C 
HETATM   32  F   UNL     1      41.998 -14.215  -0.185  1.00  0.00    -0.169 F 
HETATM   33  F   UNL     1      41.494 -16.008  -1.307  1.00  0.00    -0.169 F 
HETATM   34  F   UNL     1      39.985 -14.488  -1.006  1.00  0.00    -0.169 F 
ENDBRANCH   8  31
TORSDOF 6
ENDMDL
MODEL 3
REMARK VINA RESULT:      -8.7      2.283      7.697
REMARK  6 active torsions:
REMARK  status: ('A' for Active; 'I' for Inactive)
REMARK    1  A    between atoms: O_2  and  C_3 
REMARK    2  A    between atoms: C_6  and  C_7 
REMARK    3  A    between atoms: C_13  and  C_14 
REMARK       I    between atoms: C_14  and  N_15 
REMARK    4  A    between atoms: N_15  and  C_16 
REMARK    5  A    between atoms: C_18  and  O_19 
REMARK    6  A    between atoms: C_24  and  C_25 
ROOT
HETATM    1  C   UNL     1      39.374 -14.050   1.697  1.00  0.00     0.118 C 
HETATM    2  N   UNL     1      40.147 -15.115   2.356  1.00  0.00    -0.365 N 
HETATM    3  C   UNL     1      40.471 -14.958   3.672  1.00  0.00     0.138 C 
HETATM    4  N   UNL     1      40.321 -13.737   4.298  1.00  0.00    -0.240 N 
HETATM    5  N   UNL     1      40.495 -13.791   5.626  1.00  0.00    -0.181 NA
HETATM    6  C   UNL     1      40.928 -15.036   5.829  1.00  0.00     0.160 C 
HETATM    7  C   UNL     1      40.967 -15.813   4.644  1.00  0.00     0.096 C 
HETATM    8  C   UNL     1      39.814 -12.537   3.659  1.00  0.00     0.221 C 
HETATM    9  C   UNL     1      39.898 -12.677   2.132  1.00  0.00     0.066 C 
HETATM   10  H   UNL     1      39.820 -16.035   2.052  1.00  0.00     0.161 HD
ENDROOT
BRANCH   7  11
HETATM   11  C   UNL     1      41.415 -17.194   4.564  1.00  0.00     0.261 C 
HETATM   12  N   UNL     1      42.481 -17.396   3.708  1.00  0.00    -0.323 N 
HETATM   13  H   UNL     1      42.849 -16.565   3.263  1.00  0.00     0.169 HD
HETATM   14  O   UNL     1      40.866 -18.058   5.241  1.00  0.00    -0.267 OA
BRANCH  12  15
HETATM   15  C   UNL     1      43.141 -18.612   3.428  1.00  0.00     0.037 A 
HETATM   16  C   UNL     1      43.984 -19.268   4.331  1.00  0.00     0.066 A 
HETATM   17  C   UNL     1      44.602 -20.462   3.963  1.00  0.00     0.067 A 
HETATM   18  C   UNL     1      44.387 -21.026   2.714  1.00  0.00     0.036 A 
HETATM   19  C   UNL     1      43.548 -20.382   1.809  1.00  0.00     0.005 A 
HETATM   20  C   UNL     1      42.934 -19.176   2.162  1.00  0.00     0.029 A 
BRANCH  17  21
HETATM   21  O   UNL     1      45.446 -21.113   4.817  1.00  0.00    -0.361 OA
HETATM   22  H   UNL     1      45.419 -22.062   4.610  1.00  0.00     0.217 HD
ENDBRANCH  17  21
ENDBRANCH  12  15
ENDBRANCH   7  11
BRANCH   1  23
HETATM   23  C   UNL     1      39.462 -14.190   0.190  1.00  0.00    -0.035 A 
HETATM   24  C   UNL     1      40.627 -14.702  -0.402  1.00  0.00     0.012 A 
HETATM   25  C   UNL     1      40.693 -14.929  -1.783  1.00  0.00     0.037 A 
HETATM   26  C   UNL     1      39.592 -14.654  -2.592  1.00  0.00     0.068 A 
HETATM   27  C   UNL     1      38.439 -14.120  -2.016  1.00  0.00     0.037 A 
HETATM   28  C   UNL     1      38.369 -13.893  -0.639  1.00  0.00     0.012 A 
BRANCH  26  29
HETATM   29  O   UNL     1      39.520 -14.856  -3.943  1.00  0.00    -0.356 OA
HETATM   30  C   UNL     1      38.841 -16.028  -4.378  1.00  0.00     0.210 C 
ENDBRANCH  26  29
ENDBRANCH   1  23
BRANCH   8  31
HETATM   31  C   UNL     1      40.567 -11.298   4.095  1.00  0.00     0.409 C 
HETATM   32  F   UNL     1      40.473 -10.293   3.195  1.00  0.00    -0.169 F 
HETATM   33  F   UNL     1      40.030 -10.829   5.255  1.00  0.00    -0.169 F 
HETATM   34  F   UNL     1      41.871 -11.521   4.353  1.00  0.00    -0.169 F 
ENDBRANCH   8  31
TORSDOF 6
ENDMDL
MODEL 4
REMARK VINA RESULT:      -8.5      1.203      1.567
REMARK  6 active torsions:
REMARK  status: ('A' for Active; 'I' for Inactive)
REMARK    1  A    between atoms: O_2  and  C_3 
REMARK    2  A    between atoms: C_6  and  C_7 
REMARK    3  A    between atoms: C_13  and  C_14 
REMARK       I    between atoms: C_14  and  N_15 
REMARK    4  A    between atoms: N_15  and  C_16 
REMARK    5  A    between atoms: C_18  and  O_19 
REMARK    6  A    between atoms: C_24  and  C_25 
ROOT
HETATM    1  C   UNL     1      43.094 -15.889   2.963  1.00  0.00     0.118 C 
HETATM    2  N   UNL     1      42.270 -15.561   1.788  1.00  0.00    -0.365 N 
HETATM    3  C   UNL     1      41.527 -14.416   1.820  1.00  0.00     0.138 C 
HETATM    4  N   UNL     1      41.336 -13.728   3.001  1.00  0.00    -0.240 N 
HETATM    5  N   UNL     1      40.754 -12.532   2.836  1.00  0.00    -0.181 NA
HETATM    6  C   UNL     1      40.416 -12.530   1.546  1.00  0.00     0.160 C 
HETATM    7  C   UNL     1      40.842 -13.693   0.857  1.00  0.00     0.096 C 
HETATM    8  C   UNL     1      41.889 -14.120   4.285  1.00  0.00     0.221 C 
HETATM    9  C   UNL     1      42.313 -15.595   4.248  1.00  0.00     0.066 C 
HETATM   10  H   UNL     1      42.774 -15.777   0.925  1.00  0.00     0.161 HD
ENDROOT
BRANCH   7  11
HETATM   11  C   UNL     1      40.595 -13.968  -0.550  1.00  0.00     0.261 C 
HETATM   12  N   UNL     1      39.264 -14.162  -0.865  1.00  0.00    -0.323 N 
HETATM   13  H   UNL     1      38.612 -14.058  -0.097  1.00  0.00     0.169 HD
HETATM   14  O   UNL     1      41.530 -13.990  -1.344  1.00  0.00    -0.267 OA
BRANCH  12  15
HETATM   15  C   UNL     1      38.711 -14.432  -2.135  1.00  0.00     0.037 A 
HETATM   16  C   UNL     1      39.157 -15.455  -2.978  1.00  0.00     0.066 A 
HETATM   17  C   UNL     1      38.556 -15.643  -4.222  1.00  0.00     0.067 A 
HETATM   18  C   UNL     1      37.506 -14.837  -4.640  1.00  0.00     0.036 A 
HETATM   19  C   UNL     1      37.053 -13.818  -3.807  1.00  0.00     0.005 A 
HETATM   20  C   UNL     1      37.658 -13.612  -2.563  1.00  0.00     0.029 A 
BRANCH  17  21
HETATM   21  O   UNL     1      38.984 -16.620  -5.074  1.00  0.00    -0.361 OA
HETATM   22  H   UNL     1      39.943 -16.521  -5.197  1.00  0.00     0.217 HD
ENDBRANCH  17  21
ENDBRANCH  12  15
ENDBRANCH   7  11
BRANCH   1  23
HETATM   23  C   UNL     1      43.508 -17.348   2.924  1.00  0.00    -0.035 A 
HETATM   24  C   UNL     1      43.946 -17.986   4.094  1.00  0.00     0.012 A 
HETATM   25  C   UNL     1      44.241 -19.355   4.100  1.00  0.00     0.037 A 
HETATM   26  C   UNL     1      44.096 -20.109   2.936  1.00  0.00     0.068 A 
HETATM   27  C   UNL     1      43.687 -19.477   1.762  1.00  0.00     0.037 A 
HETATM   28  C   UNL     1      43.391 -18.112   1.752  1.00  0.00     0.012 A 
BRANCH  26  29
HETATM   29  O   UNL     1      44.325 -21.452   2.818  1.00  0.00    -0.356 OA
HETATM   30  C   UNL     1      44.139 -22.020   1.527  1.00  0.00     0.210 C 
ENDBRANCH  26  29
ENDBRANCH   1  23
BRANCH   8  31
HETATM   31  C   UNL     1      40.907 -13.904   5.417  1.00  0.00     0.409 C 
HETATM   32  F   UNL     1      39.621 -13.996   5.009  1.00  0.00    -0.169 F 
HETATM   33  F   UNL     1      41.085 -14.872   6.358  1.00  0.00    -0.169 F 
HETATM   34  F   UNL     1      41.070 -12.730   6.058  1.00  0.00    -0.169 F 
ENDBRANCH   8  31
TORSDOF 6
ENDMDL
MODEL 5
REMARK VINA RESULT:      -8.5      4.005      5.800
REMARK  6 active torsions:
REMARK  status: ('A' for Active; 'I' for Inactive)
REMARK    1  A    between atoms: O_2  and  C_3 
REMARK    2  A    between atoms: C_6  and  C_7 
REMARK    3  A    between atoms: C_13  and  C_14 
REMARK       I    between atoms: C_14  and  N_15 
REMARK    4  A    between atoms: N_15  and  C_16 
REMARK    5  A    between atoms: C_18  and  O_19 
REMARK    6  A    between atoms: C_24  and  C_25 
ROOT
HETATM    1  C   UNL     1      42.299 -15.989   4.267  1.00  0.00     0.118 C 
HETATM    2  N   UNL     1      42.306 -15.126   3.075  1.00  0.00    -0.365 N 
HETATM    3  C   UNL     1      42.045 -15.697   1.862  1.00  0.00     0.138 C 
HETATM    4  N   UNL     1      42.040 -17.068   1.711  1.00  0.00    -0.240 N 
HETATM    5  N   UNL     1      41.580 -17.474   0.520  1.00  0.00    -0.181 NA
HETATM    6  C   UNL     1      41.446 -16.336  -0.162  1.00  0.00     0.160 C 
HETATM    7  C   UNL     1      41.750 -15.186   0.608  1.00  0.00     0.096 C 
HETATM    8  C   UNL     1      42.291 -18.019   2.779  1.00  0.00     0.221 C 
HETATM    9  C   UNL     1      42.991 -17.320   3.953  1.00  0.00     0.066 C 
HETATM   10  H   UNL     1      41.868 -14.226   3.282  1.00  0.00     0.161 HD
ENDROOT
BRANCH   7  11
HETATM   11  C   UNL     1      41.709 -13.817   0.119  1.00  0.00     0.261 C 
HETATM   12  N   UNL     1      42.338 -13.630  -1.098  1.00  0.00    -0.323 N 
HETATM   13  H   UNL     1      42.723 -14.464  -1.524  1.00  0.00     0.169 HD
HETATM   14  O   UNL     1      41.130 -12.950   0.766  1.00  0.00    -0.267 OA
BRANCH  12  15
HETATM   15  C   UNL     1      42.456 -12.430  -1.830  1.00  0.00     0.037 A 
HETATM   16  C   UNL     1      43.091 -11.281  -1.348  1.00  0.00     0.066 A 
HETATM   17  C   UNL     1      43.151 -10.135  -2.140  1.00  0.00     0.067 A 
HETATM   18  C   UNL     1      42.599 -10.113  -3.413  1.00  0.00     0.036 A 
HETATM   19  C   UNL     1      41.967 -11.253  -3.903  1.00  0.00     0.005 A 
HETATM   20  C   UNL     1      41.888 -12.403  -3.111  1.00  0.00     0.029 A 
BRANCH  17  21
HETATM   21  O   UNL     1      43.748  -8.994  -1.688  1.00  0.00    -0.361 OA
HETATM   22  H   UNL     1      44.154  -9.181  -0.825  1.00  0.00     0.217 HD
ENDBRANCH  17  21
ENDBRANCH  12  15
ENDBRANCH   7  11
BRANCH   1  23
HETATM   23  C   UNL     1      42.994 -15.297   5.423  1.00  0.00    -0.035 A 
HETATM   24  C   UNL     1      43.654 -16.054   6.403  1.00  0.00     0.012 A 
HETATM   25  C   UNL     1      44.383 -15.432   7.424  1.00  0.00     0.037 A 
HETATM   26  C   UNL     1      44.468 -14.042   7.478  1.00  0.00     0.068 A 
HETATM   27  C   UNL     1      43.794 -13.280   6.523  1.00  0.00     0.037 A 
HETATM   28  C   UNL     1      43.067 -13.898   5.502  1.00  0.00     0.012 A 
BRANCH  26  29
HETATM   29  O   UNL     1      45.167 -13.317   8.404  1.00  0.00    -0.356 OA
HETATM   30  C   UNL     1      44.550 -12.127   8.881  1.00  0.00     0.210 C 
ENDBRANCH  26  29
ENDBRANCH   1  23
BRANCH   8  31
HETATM   31  C   UNL     1      43.130 -19.189   2.314  1.00  0.00     0.409 C 
HETATM   32  F   UNL     1      44.134 -18.811   1.491  1.00  0.00    -0.169 F 
HETATM   33  F   UNL     1      43.715 -19.781   3.392  1.00  0.00    -0.169 F 
HETATM   34  F   UNL     1      42.418 -20.156   1.701  1.00  0.00    -0.169 F 
ENDBRANCH   8  31
TORSDOF 6
ENDMDL
MODEL 6
REMARK VINA RESULT:      -8.5      3.518      8.015
REMARK  6 active torsions:
REMARK  status: ('A' for Active; 'I' for Inactive)
REMARK    1  A    between atoms: O_2  and  C_3 
REMARK    2  A    between atoms: C_6  and  C_7 
REMARK    3  A    between atoms: C_13  and  C_14 
REMARK       I    between atoms: C_14  and  N_15 
REMARK    4  A    between atoms: N_15  and  C_16 
REMARK    5  A    between atoms: C_18  and  O_19 
REMARK    6  A    between atoms: C_24  and  C_25 
ROOT
HETATM    1  C   UNL     1      40.622 -12.847   3.061  1.00  0.00     0.118 C 
HETATM    2  N   UNL     1      41.324 -14.134   2.929  1.00  0.00    -0.365 N 
HETATM    3  C   UNL     1      41.192 -14.825   1.759  1.00  0.00     0.138 C 
HETATM    4  N   UNL     1      40.229 -14.476   0.834  1.00  0.00    -0.240 N 
HETATM    5  N   UNL     1      40.352 -15.118  -0.335  1.00  0.00    -0.181 NA
HETATM    6  C   UNL     1      41.309 -16.015  -0.095  1.00  0.00     0.160 C 
HETATM    7  C   UNL     1      41.857 -15.909   1.208  1.00  0.00     0.096 C 
HETATM    8  C   UNL     1      39.296 -13.375   0.989  1.00  0.00     0.221 C 
HETATM    9  C   UNL     1      39.216 -12.955   2.463  1.00  0.00     0.066 C 
HETATM   10  H   UNL     1      42.255 -14.079   3.347  1.00  0.00     0.161 HD
ENDROOT
BRANCH   7  11
HETATM   11  C   UNL     1      42.899 -16.767   1.749  1.00  0.00     0.261 C 
HETATM   12  N   UNL     1      42.462 -18.024   2.121  1.00  0.00    -0.323 N 
HETATM   13  H   UNL     1      41.483 -18.217   1.947  1.00  0.00     0.169 HD
HETATM   14  O   UNL     1      44.054 -16.361   1.822  1.00  0.00    -0.267 OA
BRANCH  12  15
HETATM   15  C   UNL     1      43.230 -19.077   2.663  1.00  0.00     0.037 A 
HETATM   16  C   UNL     1      43.552 -20.246   1.967  1.00  0.00     0.066 A 
HETATM   17  C   UNL     1      44.309 -21.239   2.587  1.00  0.00     0.067 A 
HETATM   18  C   UNL     1      44.765 -21.085   3.889  1.00  0.00     0.036 A 
HETATM   19  C   UNL     1      44.451 -19.924   4.590  1.00  0.00     0.005 A 
HETATM   20  C   UNL     1      43.680 -18.928   3.982  1.00  0.00     0.029 A 
BRANCH  17  21
HETATM   21  O   UNL     1      44.621 -22.399   1.938  1.00  0.00    -0.361 OA
HETATM   22  H   UNL     1      45.589 -22.461   1.869  1.00  0.00     0.217 HD
ENDBRANCH  17  21
ENDBRANCH  12  15
ENDBRANCH   7  11
BRANCH   1  23
HETATM   23  C   UNL     1      40.543 -12.437   4.518  1.00  0.00    -0.035 A 
HETATM   24  C   UNL     1      41.363 -11.408   5.006  1.00  0.00     0.012 A 
HETATM   25  C   UNL     1      41.237 -10.950   6.323  1.00  0.00     0.037 A 
HETATM   26  C   UNL     1      40.285 -11.510   7.173  1.00  0.00     0.068 A 
HETATM   27  C   UNL     1      39.483 -12.552   6.705  1.00  0.00     0.037 A 
HETATM   28  C   UNL     1      39.605 -13.011   5.391  1.00  0.00     0.012 A 
BRANCH  26  29
HETATM   29  O   UNL     1      40.045 -11.135   8.466  1.00  0.00    -0.356 OA
HETATM   30  C   UNL     1      41.071 -10.396   9.117  1.00  0.00     0.210 C 
ENDBRANCH  26  29
ENDBRANCH   1  23
BRANCH   8  31
HETATM   31  C   UNL     1      37.911 -13.729   0.488  1.00  0.00     0.409 C 
HETATM   32  F   UNL     1      37.894 -13.994  -0.838  1.00  0.00    -0.169 F 
HETATM   33  F   UNL     1      37.480 -14.858   1.114  1.00  0.00    -0.169 F 
HETATM   34  F   UNL     1      36.985 -12.784   0.747  1.00  0.00    -0.169 F 
ENDBRANCH   8  31
TORSDOF 6
ENDMDL
MODEL 7
REMARK VINA RESULT:      -8.3      4.214      7.151
REMARK  6 active torsions:
REMARK  status: ('A' for Active; 'I' for Inactive)
REMARK    1  A    between atoms: O_2  and  C_3 
REMARK    2  A    between atoms: C_6  and  C_7 
REMARK    3  A    between atoms: C_13  and  C_14 
REMARK       I    between atoms: C_14  and  N_15 
REMARK    4  A    between atoms: N_15  and  C_16 
REMARK    5  A    between atoms: C_18  and  O_19 
REMARK    6  A    between atoms: C_24  and  C_25 
ROOT
HETATM    1  C   UNL     1      41.370 -17.098   2.756  1.00  0.00     0.118 C 
HETATM    2  N   UNL     1      41.456 -15.891   3.595  1.00  0.00    -0.365 N 
HETATM    3  C   UNL     1      40.878 -14.743   3.135  1.00  0.00     0.138 C 
HETATM    4  N   UNL     1      40.465 -14.634   1.822  1.00  0.00    -0.240 N 
HETATM    5  N   UNL     1      39.747 -13.529   1.577  1.00  0.00    -0.181 NA
HETATM    6  C   UNL     1      39.848 -12.838   2.714  1.00  0.00     0.160 C 
HETATM    7  C   UNL     1      40.569 -13.526   3.721  1.00  0.00     0.096 C 
HETATM    8  C   UNL     1      40.581 -15.686   0.829  1.00  0.00     0.221 C 
HETATM    9  C   UNL     1      41.606 -16.732   1.287  1.00  0.00     0.066 C 
HETATM   10  H   UNL     1      41.323 -16.129   4.580  1.00  0.00     0.161 HD
ENDROOT
BRANCH   7  11
HETATM   11  C   UNL     1      40.850 -13.007   5.051  1.00  0.00     0.261 C 
HETATM   12  N   UNL     1      40.013 -11.981   5.446  1.00  0.00    -0.323 N 
HETATM   13  H   UNL     1      39.284 -11.730   4.789  1.00  0.00     0.169 HD
HETATM   14  O   UNL     1      41.751 -13.495   5.724  1.00  0.00    -0.267 OA
BRANCH  12  15
HETATM   15  C   UNL     1      40.025 -11.285   6.675  1.00  0.00     0.037 A 
HETATM   16  C   UNL     1      40.659 -10.053   6.867  1.00  0.00     0.066 A 
HETATM   17  C   UNL     1      40.628  -9.443   8.121  1.00  0.00     0.067 A 
HETATM   18  C   UNL     1      39.964 -10.032   9.188  1.00  0.00     0.036 A 
HETATM   19  C   UNL     1      39.329 -11.257   9.006  1.00  0.00     0.005 A 
HETATM   20  C   UNL     1      39.366 -11.884   7.756  1.00  0.00     0.029 A 
BRANCH  17  21
HETATM   21  O   UNL     1      41.254  -8.251   8.342  1.00  0.00    -0.361 OA
HETATM   22  H   UNL     1      41.176  -8.034   9.286  1.00  0.00     0.217 HD
ENDBRANCH  17  21
ENDBRANCH  12  15
ENDBRANCH   7  11
BRANCH   1  23
HETATM   23  C   UNL     1      42.386 -18.128   3.211  1.00  0.00    -0.035 A 
HETATM   24  C   UNL     1      43.026 -18.947   2.268  1.00  0.00     0.012 A 
HETATM   25  C   UNL     1      44.036 -19.837   2.656  1.00  0.00     0.037 A 
HETATM   26  C   UNL     1      44.426 -19.916   3.992  1.00  0.00     0.068 A 
HETATM   27  C   UNL     1      43.777 -19.124   4.940  1.00  0.00     0.037 A 
HETATM   28  C   UNL     1      42.769 -18.235   4.556  1.00  0.00     0.012 A 
BRANCH  26  29
HETATM   29  O   UNL     1      45.413 -20.720   4.492  1.00  0.00    -0.356 OA
HETATM   30  C   UNL     1      45.003 -21.966   5.043  1.00  0.00     0.210 C 
ENDBRANCH  26  29
ENDBRANCH   1  23
BRANCH   8  31
HETATM   31  C   UNL     1      40.982 -15.145  -0.527  1.00  0.00     0.409 C 
HETATM   32  F   UNL     1      41.380 -16.121  -1.375  1.00  0.00    -0.169 F 
HETATM   33  F   UNL     1      39.908 -14.542  -1.107  1.00  0.00    -0.169 F 
HETATM   34  F   UNL     1      41.949 -14.207  -0.471  1.00  0.00    -0.169 F 
ENDBRANCH   8  31
TORSDOF 6
ENDMDL
MODEL 8
REMARK VINA RESULT:      -8.3      2.345      2.754
REMARK  6 active torsions:
REMARK  status: ('A' for Active; 'I' for Inactive)
REMARK    1  A    between atoms: O_2  and  C_3 
REMARK    2  A    between atoms: C_6  and  C_7 
REMARK    3  A    between atoms: C_13  and  C_14 
REMARK       I    between atoms: C_14  and  N_15 
REMARK    4  A    between atoms: N_15  and  C_16 
REMARK    5  A    between atoms: C_18  and  O_19 
REMARK    6  A    between atoms: C_24  and  C_25 
ROOT
HETATM    1  C   UNL     1      43.180 -16.264   3.337  1.00  0.00     0.118 C 
HETATM    2  N   UNL     1      42.583 -15.664   2.133  1.00  0.00    -0.365 N 
HETATM    3  C   UNL     1      41.878 -14.503   2.272  1.00  0.00     0.138 C 
HETATM    4  N   UNL     1      41.504 -14.046   3.519  1.00  0.00    -0.240 N 
HETATM    5  N   UNL     1      40.993 -12.807   3.503  1.00  0.00    -0.181 NA
HETATM    6  C   UNL     1      40.885 -12.535   2.202  1.00  0.00     0.160 C 
HETATM    7  C   UNL     1      41.392 -13.567   1.373  1.00  0.00     0.096 C 
HETATM    8  C   UNL     1      41.813 -14.712   4.771  1.00  0.00     0.221 C 
HETATM    9  C   UNL     1      42.196 -16.175   4.508  1.00  0.00     0.066 C 
HETATM   10  H   UNL     1      43.224 -15.740   1.340  1.00  0.00     0.161 HD
ENDROOT
BRANCH   7  11
HETATM   11  C   UNL     1      41.387 -13.549  -0.081  1.00  0.00     0.261 C 
HETATM   12  N   UNL     1      41.062 -12.323  -0.631  1.00  0.00    -0.323 N 
HETATM   13  H   UNL     1      40.899 -11.574   0.030  1.00  0.00     0.169 HD
HETATM   14  O   UNL     1      41.677 -14.561  -0.709  1.00  0.00    -0.267 OA
BRANCH  12  15
HETATM   15  C   UNL     1      40.985 -11.989  -2.000  1.00  0.00     0.037 A 
HETATM   16  C   UNL     1      42.098 -11.878  -2.840  1.00  0.00     0.066 A 
HETATM   17  C   UNL     1      41.928 -11.532  -4.180  1.00  0.00     0.067 A 
HETATM   18  C   UNL     1      40.664 -11.306  -4.706  1.00  0.00     0.036 A 
HETATM   19  C   UNL     1      39.549 -11.415  -3.879  1.00  0.00     0.005 A 
HETATM   20  C   UNL     1      39.711 -11.747  -2.530  1.00  0.00     0.029 A 
BRANCH  17  21
HETATM   21  O   UNL     1      42.997 -11.398  -5.017  1.00  0.00    -0.361 OA
HETATM   22  H   UNL     1      42.860 -11.977  -5.786  1.00  0.00     0.217 HD
ENDBRANCH  17  21
ENDBRANCH  12  15
ENDBRANCH   7  11
BRANCH   1  23
HETATM   23  C   UNL     1      43.554 -17.710   3.075  1.00  0.00    -0.035 A 
HETATM   24  C   UNL     1      44.102 -18.493   4.103  1.00  0.00     0.012 A 
HETATM   25  C   UNL     1      44.364 -19.854   3.909  1.00  0.00     0.037 A 
HETATM   26  C   UNL     1      44.077 -20.457   2.685  1.00  0.00     0.068 A 
HETATM   27  C   UNL     1      43.557 -19.681   1.649  1.00  0.00     0.037 A 
HETATM   28  C   UNL     1      43.294 -18.322   1.840  1.00  0.00     0.012 A 
BRANCH  26  29
HETATM   29  O   UNL     1      44.261 -21.777   2.379  1.00  0.00    -0.356 OA
HETATM   30  C   UNL     1      44.604 -22.641   3.456  1.00  0.00     0.210 C 
ENDBRANCH  26  29
ENDBRANCH   1  23
BRANCH   8  31
HETATM   31  C   UNL     1      40.655 -14.659   5.745  1.00  0.00     0.409 C 
HETATM   32  F   UNL     1      40.687 -15.671   6.641  1.00  0.00    -0.169 F 
HETATM   33  F   UNL     1      40.723 -13.504   6.463  1.00  0.00    -0.169 F 
HETATM   34  F   UNL     1      39.446 -14.655   5.148  1.00  0.00    -0.169 F 
ENDBRANCH   8  31
TORSDOF 6
ENDMDL
MODEL 9
REMARK VINA RESULT:      -8.3      4.396      8.280
REMARK  6 active torsions:
REMARK  status: ('A' for Active; 'I' for Inactive)
REMARK    1  A    between atoms: O_2  and  C_3 
REMARK    2  A    between atoms: C_6  and  C_7 
REMARK    3  A    between atoms: C_13  and  C_14 
REMARK       I    between atoms: C_14  and  N_15 
REMARK    4  A    between atoms: N_15  and  C_16 
REMARK    5  A    between atoms: C_18  and  O_19 
REMARK    6  A    between atoms: C_24  and  C_25 
ROOT
HETATM    1  C   UNL     1      41.976 -16.770   3.604  1.00  0.00     0.118 C 
HETATM    2  N   UNL     1      42.634 -15.861   4.557  1.00  0.00    -0.365 N 
HETATM    3  C   UNL     1      42.302 -14.538   4.522  1.00  0.00     0.138 C 
HETATM    4  N   UNL     1      41.586 -14.014   3.464  1.00  0.00    -0.240 N 
HETATM    5  N   UNL     1      41.176 -12.755   3.668  1.00  0.00    -0.181 NA
HETATM    6  C   UNL     1      41.783 -12.413   4.804  1.00  0.00     0.160 C 
HETATM    7  C   UNL     1      42.531 -13.471   5.377  1.00  0.00     0.096 C 
HETATM    8  C   UNL     1      41.115 -14.780   2.325  1.00  0.00     0.221 C 
HETATM    9  C   UNL     1      41.885 -16.105   2.226  1.00  0.00     0.066 C 
HETATM   10  H   UNL     1      42.721 -16.306   5.473  1.00  0.00     0.161 HD
ENDROOT
BRANCH   7  11
HETATM   11  C   UNL     1      43.309 -13.378   6.602  1.00  0.00     0.261 C 
HETATM   12  N   UNL     1      43.138 -12.193   7.293  1.00  0.00    -0.323 N 
HETATM   13  H   UNL     1      42.472 -11.544   6.892  1.00  0.00     0.169 HD
HETATM   14  O   UNL     1      44.020 -14.314   6.951  1.00  0.00    -0.267 OA
BRANCH  12  15
HETATM   15  C   UNL     1      43.741 -11.813   8.511  1.00  0.00     0.037 A 
HETATM   16  C   UNL     1      43.139 -10.968   9.449  1.00  0.00     0.066 A 
HETATM   17  C   UNL     1      43.815 -10.638  10.623  1.00  0.00     0.067 A 
HETATM   18  C   UNL     1      45.079 -11.145  10.889  1.00  0.00     0.036 A 
HETATM   19  C   UNL     1      45.685 -11.989   9.963  1.00  0.00     0.005 A 
HETATM   20  C   UNL     1      45.022 -12.315   8.776  1.00  0.00     0.029 A 
BRANCH  17  21
HETATM   21  O   UNL     1      43.261  -9.799  11.546  1.00  0.00    -0.361 OA
HETATM   22  H   UNL     1      43.883  -9.071  11.713  1.00  0.00     0.217 HD
ENDBRANCH  17  21
ENDBRANCH  12  15
ENDBRANCH   7  11
BRANCH   1  23
HETATM   23  C   UNL     1      42.741 -18.075   3.506  1.00  0.00    -0.035 A 
HETATM   24  C   UNL     1      42.753 -18.795   2.302  1.00  0.00     0.012 A 
HETATM   25  C   UNL     1      43.531 -19.951   2.162  1.00  0.00     0.037 A 
HETATM   26  C   UNL     1      44.314 -20.403   3.224  1.00  0.00     0.068 A 
HETATM   27  C   UNL     1      44.287 -19.708   4.433  1.00  0.00     0.037 A 
HETATM   28  C   UNL     1      43.513 -18.554   4.576  1.00  0.00     0.012 A 
BRANCH  26  29
HETATM   29  O   UNL     1      45.134 -21.497   3.206  1.00  0.00    -0.356 OA
HETATM   30  C   UNL     1      44.639 -22.676   3.830  1.00  0.00     0.210 C 
ENDBRANCH  26  29
ENDBRANCH   1  23
BRANCH   8  31
HETATM   31  C   UNL     1      41.256 -14.015   1.027  1.00  0.00     0.409 C 
HETATM   32  F   UNL     1      41.331 -14.831  -0.048  1.00  0.00    -0.169 F 
HETATM   33  F   UNL     1      40.157 -13.233   0.843  1.00  0.00    -0.169 F 
HETATM   34  F   UNL     1      42.314 -13.179   1.004  1.00  0.00    -0.169 F 
ENDBRANCH   8  31
TORSDOF 6
ENDMDL
MODEL 10
REMARK VINA RESULT:      -8.2      5.644      9.523
REMARK  6 active torsions:
REMARK  status: ('A' for Active; 'I' for Inactive)
REMARK    1  A    between atoms: O_2  and  C_3 
REMARK    2  A    between atoms: C_6  and  C_7 
REMARK    3  A    between atoms: C_13  and  C_14 
REMARK       I    between atoms: C_14  and  N_15 
REMARK    4  A    between atoms: N_15  and  C_16 
REMARK    5  A    between atoms: C_18  and  O_19 
REMARK    6  A    between atoms: C_24  and  C_25 
ROOT
HETATM    1  C   UNL     1      41.025 -14.521   5.600  1.00  0.00     0.118 C 
HETATM    2  N   UNL     1      41.446 -13.287   6.284  1.00  0.00    -0.365 N 
HETATM    3  C   UNL     1      40.706 -12.156   6.090  1.00  0.00     0.138 C 
HETATM    4  N   UNL     1      39.761 -12.091   5.086  1.00  0.00    -0.240 N 
HETATM    5  N   UNL     1      38.990 -10.997   5.148  1.00  0.00    -0.181 NA
HETATM    6  C   UNL     1      39.563 -10.270   6.108  1.00  0.00     0.160 C 
HETATM    7  C   UNL     1      40.663 -10.922   6.720  1.00  0.00     0.096 C 
HETATM    8  C   UNL     1      39.452 -13.174   4.170  1.00  0.00     0.221 C 
HETATM    9  C   UNL     1      40.593 -14.202   4.165  1.00  0.00     0.066 C 
HETATM   10  H   UNL     1      41.759 -13.494   7.235  1.00  0.00     0.161 HD
ENDROOT
BRANCH   7  11
HETATM   11  C   UNL     1      41.484 -10.360   7.780  1.00  0.00     0.261 C 
HETATM   12  N   UNL     1      41.366 -11.011   8.993  1.00  0.00    -0.323 N 
HETATM   13  H   UNL     1      40.755 -11.817   9.001  1.00  0.00     0.169 HD
HETATM   14  O   UNL     1      42.216  -9.404   7.548  1.00  0.00    -0.267 OA
BRANCH  12  15
HETATM   15  C   UNL     1      42.038 -10.711  10.198  1.00  0.00     0.037 A 
HETATM   16  C   UNL     1      41.445 -10.049  11.278  1.00  0.00     0.066 A 
HETATM   17  C   UNL     1      42.189  -9.787  12.428  1.00  0.00     0.067 A 
HETATM   18  C   UNL     1      43.515 -10.184  12.529  1.00  0.00     0.036 A 
HETATM   19  C   UNL     1      44.114 -10.846  11.461  1.00  0.00     0.005 A 
HETATM   20  C   UNL     1      43.380 -11.101  10.297  1.00  0.00     0.029 A 
BRANCH  17  21
HETATM   21  O   UNL     1      41.642  -9.125  13.489  1.00  0.00    -0.361 OA
HETATM   22  H   UNL     1      41.840  -8.178  13.395  1.00  0.00     0.217 HD
ENDBRANCH  17  21
ENDBRANCH  12  15
ENDBRANCH   7  11
BRANCH   1  23
HETATM   23  C   UNL     1      42.155 -15.532   5.595  1.00  0.00    -0.035 A 
HETATM   24  C   UNL     1      43.189 -15.436   6.538  1.00  0.00     0.012 A 
HETATM   25  C   UNL     1      44.190 -16.413   6.611  1.00  0.00     0.037 A 
HETATM   26  C   UNL     1      44.168 -17.506   5.746  1.00  0.00     0.068 A 
HETATM   27  C   UNL     1      43.158 -17.595   4.787  1.00  0.00     0.037 A 
HETATM   28  C   UNL     1      42.158 -16.623   4.712  1.00  0.00     0.012 A 
BRANCH  26  29
HETATM   29  O   UNL     1      45.067 -18.536   5.733  1.00  0.00    -0.356 OA
HETATM   30  C   UNL     1      44.533 -19.847   5.589  1.00  0.00     0.210 C 
ENDBRANCH  26  29
ENDBRANCH   1  23
BRANCH   8  31
HETATM   31  C   UNL     1      39.214 -12.676   2.761  1.00  0.00     0.409 C 
HETATM   32  F   UNL     1      40.184 -11.833   2.340  1.00  0.00    -0.169 F 
HETATM   33  F   UNL     1      39.221 -13.732   1.902  1.00  0.00    -0.169 F 
HETATM   34  F   UNL     1      38.021 -12.070   2.595  1.00  0.00    -0.169 F 
ENDBRANCH   8  31
TORSDOF 6
ENDMDL
