MODEL 1
REMARK VINA RESULT:      -8.1      0.000      0.000
REMARK  4 active torsions:
REMARK  status: ('A' for Active; 'I' for Inactive)
REMARK    1  A    between atoms: C_4  and  C_5 
REMARK    2  A    between atoms: C_8  and  N_9 
REMARK       I    between atoms: N_9  and  C_10 
REMARK       I    between atoms: C_10  and  N_11 
REMARK    3  A    between atoms: N_11  and  C_12 
REMARK    4  A    between atoms: C_12  and  C_13 
ROOT
HETATM    1  C   UNL     1      43.054 -18.122   2.165  1.00  0.00     0.089 A 
HETATM    2  N   UNL     1      41.956 -18.104   1.376  1.00  0.00    -0.148 NA
HETATM    3  N   UNL     1      41.386 -16.906   0.987  1.00  0.00    -0.131 NA
HETATM    4  C   UNL     1      41.924 -15.736   1.376  1.00  0.00     0.153 A 
HETATM    5  C   UNL     1      43.057 -15.718   2.173  1.00  0.00     0.055 A 
HETATM    6  C   UNL     1      43.630 -16.926   2.572  1.00  0.00     0.038 A 
ENDROOT
BRANCH   4   7
HETATM    7  N   UNL     1      41.361 -14.513   1.013  1.00  0.00    -0.292 N 
HETATM    8  C   UNL     1      41.207 -13.958  -0.216  1.00  0.00     0.322 C 
HETATM    9  N   UNL     1      41.706 -14.625  -1.286  1.00  0.00    -0.337 N 
HETATM   10  O   UNL     1      40.640 -12.870  -0.306  1.00  0.00    -0.247 OA
HETATM   11  H   UNL     1      41.918 -15.608  -1.154  1.00  0.00     0.164 HD
HETATM   12  H   UNL     1      40.984 -13.926   1.744  1.00  0.00     0.172 HD
BRANCH   9  13
HETATM   13  C   UNL     1      41.442 -14.158  -2.627  1.00  0.00     0.189 C 
BRANCH  13  14
HETATM   14  C   UNL     1      40.165 -14.723  -3.123  1.00  0.00     0.070 A 
HETATM   15  O   UNL     1      40.252 -15.895  -3.819  1.00  0.00    -0.325 OA
HETATM   16  C   UNL     1      38.988 -16.256  -4.156  1.00  0.00     0.142 A 
HETATM   17  C   UNL     1      38.083 -15.334  -3.686  1.00  0.00     0.027 A 
HETATM   18  C   UNL     1      38.841 -14.344  -3.016  1.00  0.00     0.036 A 
ENDBRANCH  13  14
ENDBRANCH   9  13
ENDBRANCH   4   7
BRANCH   1  19
HETATM   19  C   UNL     1      43.584 -19.446   2.537  1.00  0.00    -0.006 A 
HETATM   20  C   UNL     1      44.283 -19.630   3.744  1.00  0.00     0.014 A 
HETATM   21  C   UNL     1      44.777 -20.884   4.116  1.00  0.00     0.001 A 
HETATM   22  C   UNL     1      44.589 -21.982   3.282  1.00  0.00     0.000 A 
HETATM   23  C   UNL     1      43.912 -21.826   2.078  1.00  0.00     0.001 A 
HETATM   24  C   UNL     1      43.415 -20.572   1.709  1.00  0.00     0.014 A 
ENDBRANCH   1  19
TORSDOF 4
ENDMDL
MODEL 2
REMARK VINA RESULT:      -7.9      1.611      1.742
REMARK  4 active torsions:
REMARK  status: ('A' for Active; 'I' for Inactive)
REMARK    1  A    between atoms: C_4  and  C_5 
REMARK    2  A    between atoms: C_8  and  N_9 
REMARK       I    between atoms: N_9  and  C_10 
REMARK       I    between atoms: C_10  and  N_11 
REMARK    3  A    between atoms: N_11  and  C_12 
REMARK    4  A    between atoms: C_12  and  C_13 
ROOT
HETATM    1  C   UNL     1      42.073 -17.971   2.723  1.00  0.00     0.089 A 
HETATM    2  N   UNL     1      41.635 -17.900   1.445  1.00  0.00    -0.148 NA
HETATM    3  N   UNL     1      40.662 -16.988   1.082  1.00  0.00    -0.131 NA
HETATM    4  C   UNL     1      40.142 -16.146   1.993  1.00  0.00     0.153 A 
HETATM    5  C   UNL     1      40.577 -16.182   3.307  1.00  0.00     0.055 A 
HETATM    6  C   UNL     1      41.555 -17.105   3.677  1.00  0.00     0.038 A 
ENDROOT
BRANCH   4   7
HETATM    7  N   UNL     1      39.147 -15.227   1.659  1.00  0.00    -0.292 N 
HETATM    8  C   UNL     1      39.029 -14.433   0.565  1.00  0.00     0.322 C 
HETATM    9  N   UNL     1      40.029 -14.454  -0.351  1.00  0.00    -0.337 N 
HETATM   10  O   UNL     1      38.034 -13.718   0.458  1.00  0.00    -0.247 OA
HETATM   11  H   UNL     1      40.665 -15.243  -0.315  1.00  0.00     0.164 HD
HETATM   12  H   UNL     1      38.368 -15.117   2.293  1.00  0.00     0.172 HD
BRANCH   9  13
HETATM   13  C   UNL     1      39.890 -13.746  -1.602  1.00  0.00     0.189 C 
BRANCH  13  14
HETATM   14  C   UNL     1      39.376 -14.658  -2.652  1.00  0.00     0.070 A 
HETATM   15  O   UNL     1      38.056 -14.524  -2.975  1.00  0.00    -0.325 OA
HETATM   16  C   UNL     1      37.793 -15.417  -3.963  1.00  0.00     0.142 A 
HETATM   17  C   UNL     1      38.926 -16.125  -4.285  1.00  0.00     0.027 A 
HETATM   18  C   UNL     1      39.951 -15.635  -3.440  1.00  0.00     0.036 A 
ENDBRANCH  13  14
ENDBRANCH   9  13
ENDBRANCH   4   7
BRANCH   1  19
HETATM   19  C   UNL     1      43.104 -18.981   3.017  1.00  0.00    -0.006 A 
HETATM   20  C   UNL     1      43.808 -18.960   4.236  1.00  0.00     0.014 A 
HETATM   21  C   UNL     1      44.779 -19.921   4.534  1.00  0.00     0.001 A 
HETATM   22  C   UNL     1      45.072 -20.922   3.614  1.00  0.00     0.000 A 
HETATM   23  C   UNL     1      44.401 -20.961   2.397  1.00  0.00     0.001 A 
HETATM   24  C   UNL     1      43.428 -20.001   2.102  1.00  0.00     0.014 A 
ENDBRANCH   1  19
TORSDOF 4
ENDMDL
MODEL 3
REMARK VINA RESULT:      -7.9      1.525      2.031
REMARK  4 active torsions:
REMARK  status: ('A' for Active; 'I' for Inactive)
REMARK    1  A    between atoms: C_4  and  C_5 
REMARK    2  A    between atoms: C_8  and  N_9 
REMARK       I    between atoms: N_9  and  C_10 
REMARK       I    between atoms: C_10  and  N_11 
REMARK    3  A    between atoms: N_11  and  C_12 
REMARK    4  A    between atoms: C_12  and  C_13 
ROOT
HETATM    1  C   UNL     1      43.883 -18.413   3.202  1.00  0.00     0.089 A 
HETATM    2  N   UNL     1      43.949 -17.875   1.963  1.00  0.00    -0.148 NA
HETATM    3  N   UNL     1      43.686 -16.532   1.761  1.00  0.00    -0.131 NA
HETATM    4  C   UNL     1      43.374 -15.735   2.798  1.00  0.00     0.153 A 
HETATM    5  C   UNL     1      43.310 -16.249   4.082  1.00  0.00     0.055 A 
HETATM    6  C   UNL     1      43.569 -17.605   4.287  1.00  0.00     0.038 A 
ENDROOT
BRANCH   4   7
HETATM    7  N   UNL     1      43.087 -14.381   2.622  1.00  0.00    -0.292 N 
HETATM    8  C   UNL     1      42.174 -13.784   1.815  1.00  0.00     0.322 C 
HETATM    9  N   UNL     1      41.438 -14.570   0.991  1.00  0.00    -0.337 N 
HETATM   10  O   UNL     1      42.066 -12.559   1.849  1.00  0.00    -0.247 OA
HETATM   11  H   UNL     1      41.408 -15.560   1.211  1.00  0.00     0.164 HD
HETATM   12  H   UNL     1      43.604 -13.709   3.172  1.00  0.00     0.172 HD
BRANCH   9  13
HETATM   13  C   UNL     1      40.353 -14.009   0.221  1.00  0.00     0.189 C 
BRANCH  13  14
HETATM   14  C   UNL     1      40.342 -14.585  -1.145  1.00  0.00     0.070 A 
HETATM   15  O   UNL     1      39.488 -14.004  -2.038  1.00  0.00    -0.325 OA
HETATM   16  C   UNL     1      39.649 -14.649  -3.222  1.00  0.00     0.142 A 
HETATM   17  C   UNL     1      40.597 -15.637  -3.107  1.00  0.00     0.027 A 
HETATM   18  C   UNL     1      41.049 -15.596  -1.766  1.00  0.00     0.036 A 
ENDBRANCH  13  14
ENDBRANCH   9  13
ENDBRANCH   4   7
BRANCH   1  19
HETATM   19  C   UNL     1      44.168 -19.853   3.317  1.00  0.00    -0.006 A 
HETATM   20  C   UNL     1      44.619 -20.405   4.531  1.00  0.00     0.014 A 
HETATM   21  C   UNL     1      44.879 -21.772   4.658  1.00  0.00     0.001 A 
HETATM   22  C   UNL     1      44.699 -22.620   3.569  1.00  0.00     0.000 A 
HETATM   23  C   UNL     1      44.265 -22.100   2.354  1.00  0.00     0.001 A 
HETATM   24  C   UNL     1      44.002 -20.732   2.230  1.00  0.00     0.014 A 
ENDBRANCH   1  19
TORSDOF 4
ENDMDL
MODEL 4
REMARK VINA RESULT:      -7.7      2.050      3.450
REMARK  4 active torsions:
REMARK  status: ('A' for Active; 'I' for Inactive)
REMARK    1  A    between atoms: C_4  and  C_5 
REMARK    2  A    between atoms: C_8  and  N_9 
REMARK       I    between atoms: N_9  and  C_10 
REMARK       I    between atoms: C_10  and  N_11 
REMARK    3  A    between atoms: N_11  and  C_12 
REMARK    4  A    between atoms: C_12  and  C_13 
ROOT
HETATM    1  C   UNL     1      42.490 -17.668   2.262  1.00  0.00     0.089 A 
HETATM    2  N   UNL     1      42.821 -17.408   0.976  1.00  0.00    -0.148 NA
HETATM    3  N   UNL     1      42.055 -16.551   0.208  1.00  0.00    -0.131 NA
HETATM    4  C   UNL     1      40.972 -15.949   0.733  1.00  0.00     0.153 A 
HETATM    5  C   UNL     1      40.611 -16.182   2.050  1.00  0.00     0.055 A 
HETATM    6  C   UNL     1      41.380 -17.051   2.824  1.00  0.00     0.038 A 
ENDROOT
BRANCH   4   7
HETATM    7  N   UNL     1      40.170 -15.094  -0.023  1.00  0.00    -0.292 N 
HETATM    8  C   UNL     1      40.513 -14.228  -1.010  1.00  0.00     0.322 C 
HETATM    9  N   UNL     1      41.828 -14.092  -1.313  1.00  0.00    -0.337 N 
HETATM   10  O   UNL     1      39.624 -13.592  -1.574  1.00  0.00    -0.247 OA
HETATM   11  H   UNL     1      42.450 -14.825  -0.990  1.00  0.00     0.164 HD
HETATM   12  H   UNL     1      39.175 -15.100   0.147  1.00  0.00     0.172 HD
BRANCH   9  13
HETATM   13  C   UNL     1      42.239 -13.301  -2.449  1.00  0.00     0.189 C 
BRANCH  13  14
HETATM   14  C   UNL     1      42.583 -11.925  -2.018  1.00  0.00     0.070 A 
HETATM   15  O   UNL     1      42.886 -11.764  -0.696  1.00  0.00    -0.325 OA
HETATM   16  C   UNL     1      43.197 -10.456  -0.513  1.00  0.00     0.142 A 
HETATM   17  C   UNL     1      43.100  -9.768  -1.698  1.00  0.00     0.027 A 
HETATM   18  C   UNL     1      42.706 -10.715  -2.673  1.00  0.00     0.036 A 
ENDBRANCH  13  14
ENDBRANCH   9  13
ENDBRANCH   4   7
BRANCH   1  19
HETATM   19  C   UNL     1      43.359 -18.601   2.997  1.00  0.00    -0.006 A 
HETATM   20  C   UNL     1      43.878 -19.751   2.371  1.00  0.00     0.014 A 
HETATM   21  C   UNL     1      44.716 -20.637   3.053  1.00  0.00     0.001 A 
HETATM   22  C   UNL     1      45.049 -20.397   4.383  1.00  0.00     0.000 A 
HETATM   23  C   UNL     1      44.543 -19.275   5.030  1.00  0.00     0.001 A 
HETATM   24  C   UNL     1      43.707 -18.388   4.345  1.00  0.00     0.014 A 
ENDBRANCH   1  19
TORSDOF 4
ENDMDL
MODEL 5
REMARK VINA RESULT:      -7.7      5.552      7.847
REMARK  4 active torsions:
REMARK  status: ('A' for Active; 'I' for Inactive)
REMARK    1  A    between atoms: C_4  and  C_5 
REMARK    2  A    between atoms: C_8  and  N_9 
REMARK       I    between atoms: N_9  and  C_10 
REMARK       I    between atoms: C_10  and  N_11 
REMARK    3  A    between atoms: N_11  and  C_12 
REMARK    4  A    between atoms: C_12  and  C_13 
ROOT
HETATM    1  C   UNL     1      42.116 -17.218   4.621  1.00  0.00     0.089 A 
HETATM    2  N   UNL     1      42.064 -16.043   3.953  1.00  0.00    -0.148 NA
HETATM    3  N   UNL     1      41.250 -15.016   4.394  1.00  0.00    -0.131 NA
HETATM    4  C   UNL     1      40.507 -15.163   5.505  1.00  0.00     0.153 A 
HETATM    5  C   UNL     1      40.546 -16.348   6.221  1.00  0.00     0.055 A 
HETATM    6  C   UNL     1      41.362 -17.388   5.774  1.00  0.00     0.038 A 
ENDROOT
BRANCH   4   7
HETATM    7  N   UNL     1      39.664 -14.151   5.963  1.00  0.00    -0.292 N 
HETATM    8  C   UNL     1      39.956 -12.878   6.332  1.00  0.00     0.322 C 
HETATM    9  N   UNL     1      41.257 -12.492   6.325  1.00  0.00    -0.337 N 
HETATM   10  O   UNL     1      39.037 -12.135   6.672  1.00  0.00    -0.247 OA
HETATM   11  H   UNL     1      41.901 -13.069   5.795  1.00  0.00     0.164 HD
HETATM   12  H   UNL     1      38.676 -14.348   6.031  1.00  0.00     0.172 HD
BRANCH   9  13
HETATM   13  C   UNL     1      41.613 -11.113   6.563  1.00  0.00     0.189 C 
BRANCH  13  14
HETATM   14  C   UNL     1      41.916 -10.903   7.999  1.00  0.00     0.070 A 
HETATM   15  O   UNL     1      43.229 -11.006   8.360  1.00  0.00    -0.325 OA
HETATM   16  C   UNL     1      43.297 -10.754   9.692  1.00  0.00     0.142 A 
HETATM   17  C   UNL     1      42.047 -10.486  10.197  1.00  0.00     0.027 A 
HETATM   18  C   UNL     1      41.153 -10.580   9.104  1.00  0.00     0.036 A 
ENDBRANCH  13  14
ENDBRANCH   9  13
ENDBRANCH   4   7
BRANCH   1  19
HETATM   19  C   UNL     1      43.003 -18.257   4.070  1.00  0.00    -0.006 A 
HETATM   20  C   UNL     1      43.956 -18.898   4.883  1.00  0.00     0.014 A 
HETATM   21  C   UNL     1      44.793 -19.897   4.376  1.00  0.00     0.001 A 
HETATM   22  C   UNL     1      44.700 -20.272   3.039  1.00  0.00     0.000 A 
HETATM   23  C   UNL     1      43.775 -19.647   2.210  1.00  0.00     0.001 A 
HETATM   24  C   UNL     1      42.936 -18.651   2.720  1.00  0.00     0.014 A 
ENDBRANCH   1  19
TORSDOF 4
ENDMDL
MODEL 6
REMARK VINA RESULT:      -7.6      9.491     12.237
REMARK  4 active torsions:
REMARK  status: ('A' for Active; 'I' for Inactive)
REMARK    1  A    between atoms: C_4  and  C_5 
REMARK    2  A    between atoms: C_8  and  N_9 
REMARK       I    between atoms: N_9  and  C_10 
REMARK       I    between atoms: C_10  and  N_11 
REMARK    3  A    between atoms: N_11  and  C_12 
REMARK    4  A    between atoms: C_12  and  C_13 
ROOT
HETATM    1  C   UNL     1      43.548 -10.527  11.210  1.00  0.00     0.089 A 
HETATM    2  N   UNL     1      43.030 -10.555   9.960  1.00  0.00    -0.148 NA
HETATM    3  N   UNL     1      43.702 -11.190   8.932  1.00  0.00    -0.131 NA
HETATM    4  C   UNL     1      44.877 -11.802   9.160  1.00  0.00     0.153 A 
HETATM    5  C   UNL     1      45.430 -11.805  10.430  1.00  0.00     0.055 A 
HETATM    6  C   UNL     1      44.757 -11.160  11.468  1.00  0.00     0.038 A 
ENDROOT
BRANCH   4   7
HETATM    7  N   UNL     1      45.585 -12.435   8.138  1.00  0.00    -0.292 N 
HETATM    8  C   UNL     1      45.212 -13.456   7.326  1.00  0.00     0.322 C 
HETATM    9  N   UNL     1      43.997 -14.024   7.529  1.00  0.00    -0.337 N 
HETATM   10  O   UNL     1      45.995 -13.836   6.456  1.00  0.00    -0.247 OA
HETATM   11  H   UNL     1      43.331 -13.492   8.079  1.00  0.00     0.164 HD
HETATM   12  H   UNL     1      46.516 -12.103   7.927  1.00  0.00     0.172 HD
BRANCH   9  13
HETATM   13  C   UNL     1      43.487 -15.010   6.606  1.00  0.00     0.189 C 
BRANCH  13  14
HETATM   14  C   UNL     1      43.777 -16.376   7.103  1.00  0.00     0.070 A 
HETATM   15  O   UNL     1      44.716 -17.084   6.410  1.00  0.00    -0.325 OA
HETATM   16  C   UNL     1      44.855 -18.281   7.035  1.00  0.00     0.142 A 
HETATM   17  C   UNL     1      44.020 -18.356   8.124  1.00  0.00     0.027 A 
HETATM   18  C   UNL     1      43.323 -17.125   8.171  1.00  0.00     0.036 A 
ENDBRANCH  13  14
ENDBRANCH   9  13
ENDBRANCH   4   7
BRANCH   1  19
HETATM   19  C   UNL     1      42.766  -9.819  12.237  1.00  0.00    -0.006 A 
HETATM   20  C   UNL     1      43.283  -9.627  13.532  1.00  0.00     0.014 A 
HETATM   21  C   UNL     1      42.558  -8.943  14.513  1.00  0.00     0.001 A 
HETATM   22  C   UNL     1      41.293  -8.442  14.220  1.00  0.00     0.000 A 
HETATM   23  C   UNL     1      40.753  -8.627  12.952  1.00  0.00     0.001 A 
HETATM   24  C   UNL     1      41.481  -9.307  11.972  1.00  0.00     0.014 A 
ENDBRANCH   1  19
TORSDOF 4
ENDMDL
MODEL 7
REMARK VINA RESULT:      -7.5      1.955      2.649
REMARK  4 active torsions:
REMARK  status: ('A' for Active; 'I' for Inactive)
REMARK    1  A    between atoms: C_4  and  C_5 
REMARK    2  A    between atoms: C_8  and  N_9 
REMARK       I    between atoms: N_9  and  C_10 
REMARK       I    between atoms: C_10  and  N_11 
REMARK    3  A    between atoms: N_11  and  C_12 
REMARK    4  A    between atoms: C_12  and  C_13 
ROOT
HETATM    1  C   UNL     1      42.185 -17.737   3.094  1.00  0.00     0.089 A 
HETATM    2  N   UNL     1      41.627 -17.816   1.864  1.00  0.00    -0.148 NA
HETATM    3  N   UNL     1      40.643 -16.926   1.477  1.00  0.00    -0.131 NA
HETATM    4  C   UNL     1      40.233 -15.955   2.313  1.00  0.00     0.153 A 
HETATM    5  C   UNL     1      40.792 -15.836   3.575  1.00  0.00     0.055 A 
HETATM    6  C   UNL     1      41.781 -16.738   3.970  1.00  0.00     0.038 A 
ENDROOT
BRANCH   4   7
HETATM    7  N   UNL     1      39.230 -15.054   1.956  1.00  0.00    -0.292 N 
HETATM    8  C   UNL     1      39.010 -14.423   0.775  1.00  0.00     0.322 C 
HETATM    9  N   UNL     1      39.899 -14.618  -0.231  1.00  0.00    -0.337 N 
HETATM   10  O   UNL     1      38.028 -13.689   0.671  1.00  0.00    -0.247 OA
HETATM   11  H   UNL     1      40.515 -15.420  -0.146  1.00  0.00     0.164 HD
HETATM   12  H   UNL     1      38.532 -14.820   2.647  1.00  0.00     0.172 HD
BRANCH   9  13
HETATM   13  C   UNL     1      39.638 -14.094  -1.550  1.00  0.00     0.189 C 
BRANCH  13  14
HETATM   14  C   UNL     1      40.841 -13.406  -2.076  1.00  0.00     0.070 A 
HETATM   15  O   UNL     1      41.598 -12.730  -1.161  1.00  0.00    -0.325 OA
HETATM   16  C   UNL     1      42.655 -12.202  -1.829  1.00  0.00     0.142 A 
HETATM   17  C   UNL     1      42.593 -12.527  -3.163  1.00  0.00     0.027 A 
HETATM   18  C   UNL     1      41.423 -13.307  -3.324  1.00  0.00     0.036 A 
ENDBRANCH  13  14
ENDBRANCH   9  13
ENDBRANCH   4   7
BRANCH   1  19
HETATM   19  C   UNL     1      43.217 -18.735   3.421  1.00  0.00    -0.006 A 
HETATM   20  C   UNL     1      43.758 -18.816   4.718  1.00  0.00     0.014 A 
HETATM   21  C   UNL     1      44.728 -19.768   5.046  1.00  0.00     0.001 A 
HETATM   22  C   UNL     1      45.184 -20.659   4.078  1.00  0.00     0.000 A 
HETATM   23  C   UNL     1      44.675 -20.594   2.786  1.00  0.00     0.001 A 
HETATM   24  C   UNL     1      43.703 -19.643   2.461  1.00  0.00     0.014 A 
ENDBRANCH   1  19
TORSDOF 4
ENDMDL
MODEL 8
REMARK VINA RESULT:      -7.3      9.280     11.698
REMARK  4 active torsions:
REMARK  status: ('A' for Active; 'I' for Inactive)
REMARK    1  A    between atoms: C_4  and  C_5 
REMARK    2  A    between atoms: C_8  and  N_9 
REMARK       I    between atoms: N_9  and  C_10 
REMARK       I    between atoms: C_10  and  N_11 
REMARK    3  A    between atoms: N_11  and  C_12 
REMARK    4  A    between atoms: C_12  and  C_13 
ROOT
HETATM    1  C   UNL     1      43.596 -10.516  11.076  1.00  0.00     0.089 A 
HETATM    2  N   UNL     1      43.494 -10.241   9.756  1.00  0.00    -0.148 NA
HETATM    3  N   UNL     1      44.001 -11.115   8.812  1.00  0.00    -0.131 NA
HETATM    4  C   UNL     1      44.594 -12.261   9.192  1.00  0.00     0.153 A 
HETATM    5  C   UNL     1      44.704 -12.580  10.535  1.00  0.00     0.055 A 
HETATM    6  C   UNL     1      44.198 -11.697  11.489  1.00  0.00     0.038 A 
ENDROOT
BRANCH   4   7
HETATM    7  N   UNL     1      45.131 -13.152   8.263  1.00  0.00    -0.292 N 
HETATM    8  C   UNL     1      44.572 -13.685   7.147  1.00  0.00     0.322 C 
HETATM    9  N   UNL     1      43.278 -13.382   6.872  1.00  0.00    -0.337 N 
HETATM   10  O   UNL     1      45.252 -14.431   6.443  1.00  0.00    -0.247 OA
HETATM   11  H   UNL     1      42.887 -12.576   7.347  1.00  0.00     0.164 HD
HETATM   12  H   UNL     1      46.083 -13.461   8.394  1.00  0.00     0.172 HD
BRANCH   9  13
HETATM   13  C   UNL     1      42.679 -13.797   5.626  1.00  0.00     0.189 C 
BRANCH  13  14
HETATM   14  C   UNL     1      41.969 -15.087   5.803  1.00  0.00     0.070 A 
HETATM   15  O   UNL     1      42.722 -16.216   5.652  1.00  0.00    -0.325 OA
HETATM   16  C   UNL     1      41.905 -17.275   5.881  1.00  0.00     0.142 A 
HETATM   17  C   UNL     1      40.634 -16.846   6.180  1.00  0.00     0.027 A 
HETATM   18  C   UNL     1      40.673 -15.432   6.133  1.00  0.00     0.036 A 
ENDBRANCH  13  14
ENDBRANCH   9  13
ENDBRANCH   4   7
BRANCH   1  19
HETATM   19  C   UNL     1      43.035  -9.521  12.007  1.00  0.00    -0.006 A 
HETATM   20  C   UNL     1      42.264  -8.443  11.533  1.00  0.00     0.014 A 
HETATM   21  C   UNL     1      41.715  -7.501  12.407  1.00  0.00     0.001 A 
HETATM   22  C   UNL     1      41.931  -7.612  13.778  1.00  0.00     0.000 A 
HETATM   23  C   UNL     1      42.698  -8.661  14.272  1.00  0.00     0.001 A 
HETATM   24  C   UNL     1      43.244  -9.605  13.397  1.00  0.00     0.014 A 
ENDBRANCH   1  19
TORSDOF 4
ENDMDL
MODEL 9
REMARK VINA RESULT:      -7.3      3.794      6.307
REMARK  4 active torsions:
REMARK  status: ('A' for Active; 'I' for Inactive)
REMARK    1  A    between atoms: C_4  and  C_5 
REMARK    2  A    between atoms: C_8  and  N_9 
REMARK       I    between atoms: N_9  and  C_10 
REMARK       I    between atoms: C_10  and  N_11 
REMARK    3  A    between atoms: N_11  and  C_12 
REMARK    4  A    between atoms: C_12  and  C_13 
ROOT
HETATM    1  C   UNL     1      43.418 -18.614   2.616  1.00  0.00     0.089 A 
HETATM    2  N   UNL     1      42.475 -18.140   3.462  1.00  0.00    -0.148 NA
HETATM    3  N   UNL     1      41.979 -16.857   3.320  1.00  0.00    -0.131 NA
HETATM    4  C   UNL     1      42.418 -16.063   2.327  1.00  0.00     0.153 A 
HETATM    5  C   UNL     1      43.373 -16.520   1.435  1.00  0.00     0.055 A 
HETATM    6  C   UNL     1      43.879 -17.813   1.580  1.00  0.00     0.038 A 
ENDROOT
BRANCH   4   7
HETATM    7  N   UNL     1      41.949 -14.758   2.170  1.00  0.00    -0.292 N 
HETATM    8  C   UNL     1      41.825 -13.764   3.085  1.00  0.00     0.322 C 
HETATM    9  N   UNL     1      42.139 -14.039   4.376  1.00  0.00    -0.337 N 
HETATM   10  O   UNL     1      41.419 -12.664   2.711  1.00  0.00    -0.247 OA
HETATM   11  H   UNL     1      42.699 -14.868   4.543  1.00  0.00     0.164 HD
HETATM   12  H   UNL     1      41.664 -14.463   1.247  1.00  0.00     0.172 HD
BRANCH   9  13
HETATM   13  C   UNL     1      42.169 -12.984   5.361  1.00  0.00     0.189 C 
BRANCH  13  14
HETATM   14  C   UNL     1      43.311 -13.180   6.285  1.00  0.00     0.070 A 
HETATM   15  O   UNL     1      43.312 -12.413   7.416  1.00  0.00    -0.325 OA
HETATM   16  C   UNL     1      44.411 -12.760   8.133  1.00  0.00     0.142 A 
HETATM   17  C   UNL     1      45.121 -13.741   7.483  1.00  0.00     0.027 A 
HETATM   18  C   UNL     1      44.411 -14.016   6.290  1.00  0.00     0.036 A 
ENDBRANCH  13  14
ENDBRANCH   9  13
ENDBRANCH   4   7
BRANCH   1  19
HETATM   19  C   UNL     1      43.893 -19.988   2.853  1.00  0.00    -0.006 A 
HETATM   20  C   UNL     1      44.450 -20.356   4.092  1.00  0.00     0.014 A 
HETATM   21  C   UNL     1      44.891 -21.661   4.334  1.00  0.00     0.001 A 
HETATM   22  C   UNL     1      44.790 -22.626   3.337  1.00  0.00     0.000 A 
HETATM   23  C   UNL     1      44.254 -22.288   2.100  1.00  0.00     0.001 A 
HETATM   24  C   UNL     1      43.811 -20.984   1.860  1.00  0.00     0.014 A 
ENDBRANCH   1  19
TORSDOF 4
ENDMDL
MODEL 10
REMARK VINA RESULT:      -7.2      3.209      5.289
REMARK  4 active torsions:
REMARK  status: ('A' for Active; 'I' for Inactive)
REMARK    1  A    between atoms: C_4  and  C_5 
REMARK    2  A    between atoms: C_8  and  N_9 
REMARK       I    between atoms: N_9  and  C_10 
REMARK       I    between atoms: C_10  and  N_11 
REMARK    3  A    between atoms: N_11  and  C_12 
REMARK    4  A    between atoms: C_12  and  C_13 
ROOT
HETATM    1  C   UNL     1      42.444 -17.766   2.282  1.00  0.00     0.089 A 
HETATM    2  N   UNL     1      41.376 -17.340   2.994  1.00  0.00    -0.148 NA
HETATM    3  N   UNL     1      40.483 -16.433   2.454  1.00  0.00    -0.131 NA
HETATM    4  C   UNL     1      40.655 -15.969   1.203  1.00  0.00     0.153 A 
HETATM    5  C   UNL     1      41.730 -16.395   0.440  1.00  0.00     0.055 A 
HETATM    6  C   UNL     1      42.636 -17.305   0.987  1.00  0.00     0.038 A 
ENDROOT
BRANCH   4   7
HETATM    7  N   UNL     1      39.780 -15.041   0.637  1.00  0.00    -0.292 N 
HETATM    8  C   UNL     1      39.231 -13.924   1.178  1.00  0.00     0.322 C 
HETATM    9  N   UNL     1      39.494 -13.647   2.479  1.00  0.00    -0.337 N 
HETATM   10  O   UNL     1      38.507 -13.222   0.474  1.00  0.00    -0.247 OA
HETATM   11  H   UNL     1      40.288 -14.122   2.896  1.00  0.00     0.164 HD
HETATM   12  H   UNL     1      39.501 -15.175  -0.324  1.00  0.00     0.172 HD
BRANCH   9  13
HETATM   13  C   UNL     1      39.062 -12.400   3.064  1.00  0.00     0.189 C 
BRANCH  13  14
HETATM   14  C   UNL     1      39.641 -12.241   4.419  1.00  0.00     0.070 A 
HETATM   15  O   UNL     1      38.749 -12.101   5.444  1.00  0.00    -0.325 OA
HETATM   16  C   UNL     1      39.469 -12.000   6.590  1.00  0.00     0.142 A 
HETATM   17  C   UNL     1      40.815 -12.076   6.321  1.00  0.00     0.027 A 
HETATM   18  C   UNL     1      40.928 -12.234   4.919  1.00  0.00     0.036 A 
ENDBRANCH  13  14
ENDBRANCH   9  13
ENDBRANCH   4   7
BRANCH   1  19
HETATM   19  C   UNL     1      43.346 -18.724   2.945  1.00  0.00    -0.006 A 
HETATM   20  C   UNL     1      43.792 -19.878   2.275  1.00  0.00     0.014 A 
HETATM   21  C   UNL     1      44.659 -20.787   2.888  1.00  0.00     0.001 A 
HETATM   22  C   UNL     1      45.095 -20.564   4.190  1.00  0.00     0.000 A 
HETATM   23  C   UNL     1      44.661 -19.438   4.881  1.00  0.00     0.001 A 
HETATM   24  C   UNL     1      43.796 -18.528   4.265  1.00  0.00     0.014 A 
ENDBRANCH   1  19
TORSDOF 4
ENDMDL
