MODEL 1
REMARK VINA RESULT:      -8.0      0.000      0.000
REMARK  4 active torsions:
REMARK  status: ('A' for Active; 'I' for Inactive)
REMARK    1  A    between atoms: O_2  and  C_3 
REMARK    2  A    between atoms: C_5  and  O_6 
REMARK    3  A    between atoms: C_8  and  C_9 
REMARK    4  A    between atoms: C_20  and  N_21 
ROOT
HETATM    1  C   UNL     1      42.713 -15.538   4.348  1.00  0.00    -0.022 A 
HETATM    2  C   UNL     1      41.837 -15.658   3.259  1.00  0.00     0.031 A 
HETATM    3  C   UNL     1      41.634 -14.601   2.349  1.00  0.00     0.059 A 
HETATM    4  C   UNL     1      42.333 -13.396   2.517  1.00  0.00     0.050 A 
HETATM    5  N   UNL     1      42.350 -12.302   1.626  1.00  0.00    -0.324 N 
HETATM    6  C   UNL     1      42.210 -12.323   0.269  1.00  0.00     0.247 C 
HETATM    7  O   UNL     1      42.562 -11.345  -0.398  1.00  0.00    -0.271 OA
HETATM    8  C   UNL     1      41.864 -13.627  -0.422  1.00  0.00     0.210 C 
HETATM    9  N   UNL     1      40.659 -14.212   0.120  1.00  0.00    -0.332 N 
HETATM   10  C   UNL     1      40.556 -14.812   1.351  1.00  0.00     0.256 C 
HETATM   11  O   UNL     1      39.595 -15.520   1.640  1.00  0.00    -0.267 OA
HETATM   12  C   UNL     1      41.530 -13.375  -1.908  1.00  0.00     0.217 C 
HETATM   13  C   UNL     1      40.384 -14.339  -2.199  1.00  0.00     0.055 C 
HETATM   14  C   UNL     1      39.618 -14.343  -0.885  1.00  0.00     0.129 C 
HETATM   15  C   UNL     1      43.130 -13.239   3.657  1.00  0.00     0.031 A 
HETATM   16  C   UNL     1      43.322 -14.295   4.553  1.00  0.00     0.014 A 
HETATM   17  H   UNL     1      42.753 -11.433   1.967  1.00  0.00     0.169 HD
ENDROOT
BRANCH   1  18
HETATM   18  C   UNL     1      42.981 -16.678   5.249  1.00  0.00     0.008 A 
HETATM   19  C   UNL     1      43.686 -17.828   4.821  1.00  0.00     0.082 A 
HETATM   20  C   UNL     1      43.909 -18.884   5.714  1.00  0.00     0.074 A 
HETATM   21  C   UNL     1      43.464 -18.817   7.036  1.00  0.00     0.070 A 
HETATM   22  C   UNL     1      42.765 -17.694   7.466  1.00  0.00     0.038 A 
HETATM   23  C   UNL     1      42.527 -16.638   6.581  1.00  0.00     0.018 A 
BRANCH  19  24
HETATM   24  O   UNL     1      44.082 -17.854   3.505  1.00  0.00    -0.355 OA
HETATM   25  C   UNL     1      43.878 -19.070   2.794  1.00  0.00     0.210 C 
ENDBRANCH  19  24
BRANCH  21  26
HETATM   26  O   UNL     1      43.765 -19.916   7.793  1.00  0.00    -0.356 OA
HETATM   27  C   UNL     1      43.627 -21.185   7.165  1.00  0.00     0.210 C 
ENDBRANCH  21  26
ENDBRANCH   1  18
BRANCH  12  28
HETATM   28  N   UNL     1      42.678 -13.666  -2.815  1.00  0.00    -0.072 N 
HETATM   29  H   UNL     1      42.393 -13.564  -3.802  1.00  0.00     0.274 HD
HETATM   30  H   UNL     1      43.488 -13.052  -2.654  1.00  0.00     0.274 HD
HETATM   31  H   UNL     1      43.003 -14.637  -2.705  1.00  0.00     0.274 HD
ENDBRANCH  12  28
TORSDOF 4
ENDMDL
MODEL 2
REMARK VINA RESULT:      -7.9      3.243      4.719
REMARK  4 active torsions:
REMARK  status: ('A' for Active; 'I' for Inactive)
REMARK    1  A    between atoms: O_2  and  C_3 
REMARK    2  A    between atoms: C_5  and  O_6 
REMARK    3  A    between atoms: C_8  and  C_9 
REMARK    4  A    between atoms: C_20  and  N_21 
ROOT
HETATM    1  C   UNL     1      41.654 -16.953   4.435  1.00  0.00    -0.022 A 
HETATM    2  C   UNL     1      41.204 -15.906   3.619  1.00  0.00     0.031 A 
HETATM    3  C   UNL     1      40.423 -14.850   4.130  1.00  0.00     0.059 A 
HETATM    4  C   UNL     1      40.093 -14.825   5.494  1.00  0.00     0.050 A 
HETATM    5  N   UNL     1      39.446 -13.780   6.185  1.00  0.00    -0.324 N 
HETATM    6  C   UNL     1      39.487 -12.443   5.915  1.00  0.00     0.247 C 
HETATM    7  O   UNL     1      39.140 -11.633   6.780  1.00  0.00    -0.271 OA
HETATM    8  C   UNL     1      40.191 -11.961   4.662  1.00  0.00     0.210 C 
HETATM    9  N   UNL     1      39.662 -12.598   3.477  1.00  0.00    -0.332 N 
HETATM   10  C   UNL     1      39.879 -13.907   3.120  1.00  0.00     0.256 C 
HETATM   11  O   UNL     1      39.637 -14.310   1.986  1.00  0.00    -0.267 OA
HETATM   12  C   UNL     1      39.918 -10.457   4.439  1.00  0.00     0.217 C 
HETATM   13  C   UNL     1      39.770 -10.329   2.925  1.00  0.00     0.055 C 
HETATM   14  C   UNL     1      39.092 -11.636   2.550  1.00  0.00     0.129 C 
HETATM   15  C   UNL     1      40.457 -15.920   6.288  1.00  0.00     0.031 A 
HETATM   16  C   UNL     1      41.229 -16.962   5.768  1.00  0.00     0.014 A 
HETATM   17  H   UNL     1      39.114 -13.982   7.125  1.00  0.00     0.169 HD
ENDROOT
BRANCH   1  18
HETATM   18  C   UNL     1      42.539 -18.013   3.907  1.00  0.00     0.008 A 
HETATM   19  C   UNL     1      43.573 -18.587   4.684  1.00  0.00     0.082 A 
HETATM   20  C   UNL     1      44.388 -19.585   4.135  1.00  0.00     0.074 A 
HETATM   21  C   UNL     1      44.186 -20.046   2.832  1.00  0.00     0.070 A 
HETATM   22  C   UNL     1      43.176 -19.485   2.058  1.00  0.00     0.038 A 
HETATM   23  C   UNL     1      42.363 -18.480   2.592  1.00  0.00     0.018 A 
BRANCH  19  24
HETATM   24  O   UNL     1      43.745 -18.082   5.952  1.00  0.00    -0.355 OA
HETATM   25  C   UNL     1      45.079 -18.024   6.447  1.00  0.00     0.210 C 
ENDBRANCH  19  24
BRANCH  21  26
HETATM   26  O   UNL     1      45.050 -21.031   2.437  1.00  0.00    -0.356 OA
HETATM   27  C   UNL     1      44.487 -22.139   1.746  1.00  0.00     0.210 C 
ENDBRANCH  21  26
ENDBRANCH   1  18
BRANCH  12  28
HETATM   28  N   UNL     1      41.036  -9.592   4.914  1.00  0.00    -0.072 N 
HETATM   29  H   UNL     1      41.768  -9.519   4.190  1.00  0.00     0.274 HD
HETATM   30  H   UNL     1      40.735  -8.638   5.159  1.00  0.00     0.274 HD
HETATM   31  H   UNL     1      41.490  -9.993   5.747  1.00  0.00     0.274 HD
ENDBRANCH  12  28
TORSDOF 4
ENDMDL
MODEL 3
REMARK VINA RESULT:      -7.8      1.811      2.659
REMARK  4 active torsions:
REMARK  status: ('A' for Active; 'I' for Inactive)
REMARK    1  A    between atoms: O_2  and  C_3 
REMARK    2  A    between atoms: C_5  and  O_6 
REMARK    3  A    between atoms: C_8  and  C_9 
REMARK    4  A    between atoms: C_20  and  N_21 
ROOT
HETATM    1  C   UNL     1      42.923 -16.724   2.830  1.00  0.00    -0.022 A 
HETATM    2  C   UNL     1      41.645 -16.491   2.304  1.00  0.00     0.031 A 
HETATM    3  C   UNL     1      41.189 -15.192   2.005  1.00  0.00     0.059 A 
HETATM    4  C   UNL     1      42.034 -14.092   2.220  1.00  0.00     0.050 A 
HETATM    5  N   UNL     1      41.787 -12.754   1.847  1.00  0.00    -0.324 N 
HETATM    6  C   UNL     1      41.051 -12.300   0.792  1.00  0.00     0.247 C 
HETATM    7  O   UNL     1      41.186 -11.134   0.408  1.00  0.00    -0.271 OA
HETATM    8  C   UNL     1      40.271 -13.290  -0.051  1.00  0.00     0.210 C 
HETATM    9  N   UNL     1      39.374 -14.085   0.758  1.00  0.00    -0.332 N 
HETATM   10  C   UNL     1      39.760 -15.086   1.615  1.00  0.00     0.256 C 
HETATM   11  O   UNL     1      38.952 -15.895   2.062  1.00  0.00    -0.267 OA
HETATM   12  C   UNL     1      39.339 -12.544  -1.031  1.00  0.00     0.217 C 
HETATM   13  C   UNL     1      38.074 -13.396  -1.059  1.00  0.00     0.055 C 
HETATM   14  C   UNL     1      37.986 -13.901   0.372  1.00  0.00     0.129 C 
HETATM   15  C   UNL     1      43.272 -14.312   2.839  1.00  0.00     0.031 A 
HETATM   16  C   UNL     1      43.710 -15.606   3.132  1.00  0.00     0.014 A 
HETATM   17  H   UNL     1      42.406 -12.045   2.231  1.00  0.00     0.169 HD
ENDROOT
BRANCH   1  18
HETATM   18  C   UNL     1      43.421 -18.095   3.065  1.00  0.00     0.008 A 
HETATM   19  C   UNL     1      43.819 -18.543   4.347  1.00  0.00     0.082 A 
HETATM   20  C   UNL     1      44.289 -19.852   4.515  1.00  0.00     0.074 A 
HETATM   21  C   UNL     1      44.354 -20.739   3.437  1.00  0.00     0.070 A 
HETATM   22  C   UNL     1      43.971 -20.307   2.172  1.00  0.00     0.038 A 
HETATM   23  C   UNL     1      43.510 -19.000   1.990  1.00  0.00     0.018 A 
BRANCH  19  24
HETATM   24  O   UNL     1      43.757 -17.625   5.368  1.00  0.00    -0.355 OA
HETATM   25  C   UNL     1      44.747 -17.725   6.386  1.00  0.00     0.210 C 
ENDBRANCH  19  24
BRANCH  21  26
HETATM   26  O   UNL     1      44.822 -21.985   3.755  1.00  0.00    -0.356 OA
HETATM   27  C   UNL     1      45.079 -22.243   5.130  1.00  0.00     0.210 C 
ENDBRANCH  21  26
ENDBRANCH   1  18
BRANCH  12  28
HETATM   28  N   UNL     1      39.912 -12.441  -2.404  1.00  0.00    -0.072 N 
HETATM   29  H   UNL     1      39.165 -12.253  -3.092  1.00  0.00     0.274 HD
HETATM   30  H   UNL     1      40.621 -11.701  -2.494  1.00  0.00     0.274 HD
HETATM   31  H   UNL     1      40.354 -13.326  -2.691  1.00  0.00     0.274 HD
ENDBRANCH  12  28
TORSDOF 4
ENDMDL
MODEL 4
REMARK VINA RESULT:      -7.8      2.390      3.420
REMARK  4 active torsions:
REMARK  status: ('A' for Active; 'I' for Inactive)
REMARK    1  A    between atoms: O_2  and  C_3 
REMARK    2  A    between atoms: C_5  and  O_6 
REMARK    3  A    between atoms: C_8  and  C_9 
REMARK    4  A    between atoms: C_20  and  N_21 
ROOT
HETATM    1  C   UNL     1      41.597 -16.857   1.699  1.00  0.00    -0.022 A 
HETATM    2  C   UNL     1      41.710 -16.418   0.373  1.00  0.00     0.031 A 
HETATM    3  C   UNL     1      40.895 -15.389  -0.141  1.00  0.00     0.059 A 
HETATM    4  C   UNL     1      39.950 -14.769   0.691  1.00  0.00     0.050 A 
HETATM    5  N   UNL     1      39.162 -13.642   0.377  1.00  0.00    -0.324 N 
HETATM    6  C   UNL     1      39.468 -12.612  -0.463  1.00  0.00     0.247 C 
HETATM    7  O   UNL     1      38.832 -11.556  -0.393  1.00  0.00    -0.271 OA
HETATM    8  C   UNL     1      40.737 -12.681  -1.290  1.00  0.00     0.210 C 
HETATM    9  N   UNL     1      40.786 -13.884  -2.089  1.00  0.00    -0.332 N 
HETATM   10  C   UNL     1      41.010 -15.148  -1.601  1.00  0.00     0.256 C 
HETATM   11  O   UNL     1      41.307 -16.079  -2.345  1.00  0.00    -0.267 OA
HETATM   12  C   UNL     1      40.765 -11.535  -2.325  1.00  0.00     0.217 C 
HETATM   13  C   UNL     1      41.384 -12.173  -3.566  1.00  0.00     0.055 C 
HETATM   14  C   UNL     1      40.841 -13.591  -3.511  1.00  0.00     0.129 C 
HETATM   15  C   UNL     1      39.767 -15.275   1.985  1.00  0.00     0.031 A 
HETATM   16  C   UNL     1      40.581 -16.296   2.481  1.00  0.00     0.014 A 
HETATM   17  H   UNL     1      38.397 -13.422   1.009  1.00  0.00     0.169 HD
ENDROOT
BRANCH   1  18
HETATM   18  C   UNL     1      42.511 -17.879   2.252  1.00  0.00     0.008 A 
HETATM   19  C   UNL     1      43.308 -17.638   3.396  1.00  0.00     0.082 A 
HETATM   20  C   UNL     1      44.161 -18.639   3.877  1.00  0.00     0.074 A 
HETATM   21  C   UNL     1      44.228 -19.890   3.257  1.00  0.00     0.070 A 
HETATM   22  C   UNL     1      43.453 -20.136   2.129  1.00  0.00     0.038 A 
HETATM   23  C   UNL     1      42.605 -19.140   1.634  1.00  0.00     0.018 A 
BRANCH  19  24
HETATM   24  O   UNL     1      43.222 -16.384   3.954  1.00  0.00    -0.355 OA
HETATM   25  C   UNL     1      43.209 -16.311   5.376  1.00  0.00     0.210 C 
ENDBRANCH  19  24
BRANCH  21  26
HETATM   26  O   UNL     1      45.096 -20.769   3.845  1.00  0.00    -0.356 OA
HETATM   27  C   UNL     1      44.721 -21.290   5.114  1.00  0.00     0.210 C 
ENDBRANCH  21  26
ENDBRANCH   1  18
BRANCH  12  28
HETATM   28  N   UNL     1      41.596 -10.378  -1.882  1.00  0.00    -0.072 N 
HETATM   29  H   UNL     1      42.443 -10.709  -1.394  1.00  0.00     0.274 HD
HETATM   30  H   UNL     1      41.893  -9.771  -2.658  1.00  0.00     0.274 HD
HETATM   31  H   UNL     1      41.085  -9.788  -1.210  1.00  0.00     0.274 HD
ENDBRANCH  12  28
TORSDOF 4
ENDMDL
MODEL 5
REMARK VINA RESULT:      -7.6      2.133      3.156
REMARK  4 active torsions:
REMARK  status: ('A' for Active; 'I' for Inactive)
REMARK    1  A    between atoms: O_2  and  C_3 
REMARK    2  A    between atoms: C_5  and  O_6 
REMARK    3  A    between atoms: C_8  and  C_9 
REMARK    4  A    between atoms: C_20  and  N_21 
ROOT
HETATM    1  C   UNL     1      42.161 -17.336   2.668  1.00  0.00    -0.022 A 
HETATM    2  C   UNL     1      42.164 -16.703   1.418  1.00  0.00     0.031 A 
HETATM    3  C   UNL     1      41.485 -15.487   1.199  1.00  0.00     0.059 A 
HETATM    4  C   UNL     1      40.795 -14.876   2.257  1.00  0.00     0.050 A 
HETATM    5  N   UNL     1      40.189 -13.602   2.242  1.00  0.00    -0.324 N 
HETATM    6  C   UNL     1      40.556 -12.506   1.518  1.00  0.00     0.247 C 
HETATM    7  O   UNL     1      40.139 -11.390   1.842  1.00  0.00    -0.271 OA
HETATM    8  C   UNL     1      41.663 -12.633   0.489  1.00  0.00     0.210 C 
HETATM    9  N   UNL     1      41.379 -13.676  -0.470  1.00  0.00    -0.332 N 
HETATM   10  C   UNL     1      41.437 -15.024  -0.211  1.00  0.00     0.256 C 
HETATM   11  O   UNL     1      41.452 -15.851  -1.119  1.00  0.00    -0.267 OA
HETATM   12  C   UNL     1      41.753 -11.348  -0.363  1.00  0.00     0.217 C 
HETATM   13  C   UNL     1      42.065 -11.856  -1.767  1.00  0.00     0.055 C 
HETATM   14  C   UNL     1      41.286 -13.161  -1.825  1.00  0.00     0.129 C 
HETATM   15  C   UNL     1      40.706 -15.556   3.478  1.00  0.00     0.031 A 
HETATM   16  C   UNL     1      41.383 -16.762   3.681  1.00  0.00     0.014 A 
HETATM   17  H   UNL     1      39.573 -13.374   3.018  1.00  0.00     0.169 HD
ENDROOT
BRANCH   1  18
HETATM   18  C   UNL     1      42.942 -18.568   2.909  1.00  0.00     0.008 A 
HETATM   19  C   UNL     1      43.724 -18.748   4.074  1.00  0.00     0.082 A 
HETATM   20  C   UNL     1      44.450 -19.932   4.253  1.00  0.00     0.074 A 
HETATM   21  C   UNL     1      44.401 -20.958   3.306  1.00  0.00     0.070 A 
HETATM   22  C   UNL     1      43.639 -20.790   2.154  1.00  0.00     0.038 A 
HETATM   23  C   UNL     1      42.919 -19.607   1.960  1.00  0.00     0.018 A 
BRANCH  19  24
HETATM   24  O   UNL     1      43.757 -17.699   4.964  1.00  0.00    -0.355 OA
HETATM   25  C   UNL     1      44.544 -17.873   6.137  1.00  0.00     0.210 C 
ENDBRANCH  19  24
BRANCH  21  26
HETATM   26  O   UNL     1      45.151 -22.058   3.620  1.00  0.00    -0.356 OA
HETATM   27  C   UNL     1      45.141 -22.474   4.981  1.00  0.00     0.210 C 
ENDBRANCH  21  26
ENDBRANCH   1  18
BRANCH  12  28
HETATM   28  N   UNL     1      42.834 -10.427   0.095  1.00  0.00    -0.072 N 
HETATM   29  H   UNL     1      42.961 -10.501   1.116  1.00  0.00     0.274 HD
HETATM   30  H   UNL     1      43.742 -10.613  -0.353  1.00  0.00     0.274 HD
HETATM   31  H   UNL     1      42.593  -9.445  -0.098  1.00  0.00     0.274 HD
ENDBRANCH  12  28
TORSDOF 4
ENDMDL
MODEL 6
REMARK VINA RESULT:      -7.6      2.080      3.479
REMARK  4 active torsions:
REMARK  status: ('A' for Active; 'I' for Inactive)
REMARK    1  A    between atoms: O_2  and  C_3 
REMARK    2  A    between atoms: C_5  and  O_6 
REMARK    3  A    between atoms: C_8  and  C_9 
REMARK    4  A    between atoms: C_20  and  N_21 
ROOT
HETATM    1  C   UNL     1      42.242 -17.016   2.591  1.00  0.00    -0.022 A 
HETATM    2  C   UNL     1      42.204 -15.615   2.576  1.00  0.00     0.031 A 
HETATM    3  C   UNL     1      41.647 -14.898   1.497  1.00  0.00     0.059 A 
HETATM    4  C   UNL     1      41.099 -15.595   0.409  1.00  0.00     0.050 A 
HETATM    5  N   UNL     1      40.385 -15.039  -0.673  1.00  0.00    -0.324 N 
HETATM    6  C   UNL     1      39.608 -13.917  -0.679  1.00  0.00     0.247 C 
HETATM    7  O   UNL     1      38.802 -13.735  -1.596  1.00  0.00    -0.271 OA
HETATM    8  C   UNL     1      39.561 -13.041   0.558  1.00  0.00     0.210 C 
HETATM    9  N   UNL     1      40.883 -12.618   0.960  1.00  0.00    -0.332 N 
HETATM   10  C   UNL     1      41.829 -13.426   1.543  1.00  0.00     0.256 C 
HETATM   11  O   UNL     1      42.816 -12.956   2.102  1.00  0.00    -0.267 OA
HETATM   12  C   UNL     1      38.815 -11.724   0.254  1.00  0.00     0.217 C 
HETATM   13  C   UNL     1      39.593 -10.670   1.037  1.00  0.00     0.055 C 
HETATM   14  C   UNL     1      41.024 -11.172   0.932  1.00  0.00     0.129 C 
HETATM   15  C   UNL     1      41.227 -16.989   0.376  1.00  0.00     0.031 A 
HETATM   16  C   UNL     1      41.783 -17.687   1.452  1.00  0.00     0.014 A 
HETATM   17  H   UNL     1      40.210 -15.643  -1.472  1.00  0.00     0.169 HD
ENDROOT
BRANCH   1  18
HETATM   18  C   UNL     1      42.754 -17.759   3.762  1.00  0.00     0.008 A 
HETATM   19  C   UNL     1      42.068 -17.781   4.999  1.00  0.00     0.082 A 
HETATM   20  C   UNL     1      42.599 -18.497   6.080  1.00  0.00     0.074 A 
HETATM   21  C   UNL     1      43.791 -19.214   5.955  1.00  0.00     0.070 A 
HETATM   22  C   UNL     1      44.476 -19.195   4.744  1.00  0.00     0.038 A 
HETATM   23  C   UNL     1      43.962 -18.475   3.661  1.00  0.00     0.018 A 
BRANCH  19  24
HETATM   24  O   UNL     1      40.912 -17.041   5.077  1.00  0.00    -0.355 OA
HETATM   25  C   UNL     1      40.750 -16.217   6.226  1.00  0.00     0.210 C 
ENDBRANCH  19  24
BRANCH  21  26
HETATM   26  O   UNL     1      44.180 -19.873   7.089  1.00  0.00    -0.356 OA
HETATM   27  C   UNL     1      43.597 -21.150   7.320  1.00  0.00     0.210 C 
ENDBRANCH  21  26
ENDBRANCH   1  18
BRANCH  12  28
HETATM   28  N   UNL     1      37.395 -11.747   0.708  1.00  0.00    -0.072 N 
HETATM   29  H   UNL     1      37.184 -12.638   1.185  1.00  0.00     0.274 HD
HETATM   30  H   UNL     1      37.162 -10.979   1.351  1.00  0.00     0.274 HD
HETATM   31  H   UNL     1      36.747 -11.685  -0.091  1.00  0.00     0.274 HD
ENDBRANCH  12  28
TORSDOF 4
ENDMDL
MODEL 7
REMARK VINA RESULT:      -7.5      1.887      3.034
REMARK  4 active torsions:
REMARK  status: ('A' for Active; 'I' for Inactive)
REMARK    1  A    between atoms: O_2  and  C_3 
REMARK    2  A    between atoms: C_5  and  O_6 
REMARK    3  A    between atoms: C_8  and  C_9 
REMARK    4  A    between atoms: C_20  and  N_21 
ROOT
HETATM    1  C   UNL     1      42.194 -17.040   2.824  1.00  0.00    -0.022 A 
HETATM    2  C   UNL     1      42.181 -15.641   2.731  1.00  0.00     0.031 A 
HETATM    3  C   UNL     1      41.682 -14.976   1.593  1.00  0.00     0.059 A 
HETATM    4  C   UNL     1      41.167 -15.723   0.522  1.00  0.00     0.050 A 
HETATM    5  N   UNL     1      40.509 -15.216  -0.618  1.00  0.00    -0.324 N 
HETATM    6  C   UNL     1      39.753 -14.085  -0.717  1.00  0.00     0.247 C 
HETATM    7  O   UNL     1      38.989 -13.941  -1.677  1.00  0.00    -0.271 OA
HETATM    8  C   UNL     1      39.670 -13.141   0.467  1.00  0.00     0.210 C 
HETATM    9  N   UNL     1      40.982 -12.717   0.900  1.00  0.00    -0.332 N 
HETATM   10  C   UNL     1      41.888 -13.506   1.566  1.00  0.00     0.256 C 
HETATM   11  O   UNL     1      42.860 -13.022   2.140  1.00  0.00    -0.267 OA
HETATM   12  C   UNL     1      38.962 -11.831   0.060  1.00  0.00     0.217 C 
HETATM   13  C   UNL     1      39.725 -10.748   0.817  1.00  0.00     0.055 C 
HETATM   14  C   UNL     1      41.150 -11.277   0.801  1.00  0.00     0.129 C 
HETATM   15  C   UNL     1      41.271 -17.119   0.570  1.00  0.00     0.031 A 
HETATM   16  C   UNL     1      41.770 -17.765   1.705  1.00  0.00     0.014 A 
HETATM   17  H   UNL     1      40.356 -15.861  -1.390  1.00  0.00     0.169 HD
ENDROOT
BRANCH   1  18
HETATM   18  C   UNL     1      42.643 -17.725   4.054  1.00  0.00     0.008 A 
HETATM   19  C   UNL     1      43.652 -18.717   4.037  1.00  0.00     0.082 A 
HETATM   20  C   UNL     1      44.039 -19.341   5.230  1.00  0.00     0.074 A 
HETATM   21  C   UNL     1      43.459 -18.985   6.451  1.00  0.00     0.070 A 
HETATM   22  C   UNL     1      42.463 -18.015   6.478  1.00  0.00     0.038 A 
HETATM   23  C   UNL     1      42.061 -17.393   5.291  1.00  0.00     0.018 A 
BRANCH  19  24
HETATM   24  O   UNL     1      44.174 -19.047   2.809  1.00  0.00    -0.355 OA
HETATM   25  C   UNL     1      44.402 -20.428   2.554  1.00  0.00     0.210 C 
ENDBRANCH  19  24
BRANCH  21  26
HETATM   26  O   UNL     1      43.945 -19.670   7.531  1.00  0.00    -0.356 OA
HETATM   27  C   UNL     1      43.589 -21.043   7.634  1.00  0.00     0.210 C 
ENDBRANCH  21  26
ENDBRANCH   1  18
BRANCH  12  28
HETATM   28  N   UNL     1      37.524 -11.807   0.454  1.00  0.00    -0.072 N 
HETATM   29  H   UNL     1      37.164 -12.768   0.565  1.00  0.00     0.274 HD
HETATM   30  H   UNL     1      37.352 -11.300   1.333  1.00  0.00     0.274 HD
HETATM   31  H   UNL     1      36.945 -11.363  -0.273  1.00  0.00     0.274 HD
ENDBRANCH  12  28
TORSDOF 4
ENDMDL
MODEL 8
REMARK VINA RESULT:      -7.5      2.429      4.218
REMARK  4 active torsions:
REMARK  status: ('A' for Active; 'I' for Inactive)
REMARK    1  A    between atoms: O_2  and  C_3 
REMARK    2  A    between atoms: C_5  and  O_6 
REMARK    3  A    between atoms: C_8  and  C_9 
REMARK    4  A    between atoms: C_20  and  N_21 
ROOT
HETATM    1  C   UNL     1      42.133 -17.272   2.675  1.00  0.00    -0.022 A 
HETATM    2  C   UNL     1      42.361 -15.908   2.901  1.00  0.00     0.031 A 
HETATM    3  C   UNL     1      41.510 -14.915   2.375  1.00  0.00     0.059 A 
HETATM    4  C   UNL     1      40.391 -15.289   1.615  1.00  0.00     0.050 A 
HETATM    5  N   UNL     1      39.373 -14.436   1.140  1.00  0.00    -0.324 N 
HETATM    6  C   UNL     1      38.917 -13.279   1.701  1.00  0.00     0.247 C 
HETATM    7  O   UNL     1      37.825 -12.819   1.354  1.00  0.00    -0.271 OA
HETATM    8  C   UNL     1      39.628 -12.712   2.915  1.00  0.00     0.210 C 
HETATM    9  N   UNL     1      41.037 -12.513   2.659  1.00  0.00    -0.332 N 
HETATM   10  C   UNL     1      41.971 -13.515   2.554  1.00  0.00     0.256 C 
HETATM   11  O   UNL     1      43.174 -13.277   2.608  1.00  0.00    -0.267 OA
HETATM   12  C   UNL     1      39.096 -11.299   3.236  1.00  0.00     0.217 C 
HETATM   13  C   UNL     1      40.337 -10.528   3.678  1.00  0.00     0.055 C 
HETATM   14  C   UNL     1      41.422 -11.118   2.792  1.00  0.00     0.129 C 
HETATM   15  C   UNL     1      40.218 -16.644   1.305  1.00  0.00     0.031 A 
HETATM   16  C   UNL     1      41.071 -17.618   1.831  1.00  0.00     0.014 A 
HETATM   17  H   UNL     1      38.729 -14.822   0.454  1.00  0.00     0.169 HD
ENDROOT
BRANCH   1  18
HETATM   18  C   UNL     1      42.983 -18.308   3.297  1.00  0.00     0.008 A 
HETATM   19  C   UNL     1      42.986 -18.542   4.693  1.00  0.00     0.082 A 
HETATM   20  C   UNL     1      43.815 -19.534   5.233  1.00  0.00     0.074 A 
HETATM   21  C   UNL     1      44.631 -20.318   4.414  1.00  0.00     0.070 A 
HETATM   22  C   UNL     1      44.639 -20.093   3.041  1.00  0.00     0.038 A 
HETATM   23  C   UNL     1      43.824 -19.099   2.492  1.00  0.00     0.018 A 
BRANCH  19  24
HETATM   24  O   UNL     1      42.183 -17.729   5.457  1.00  0.00    -0.355 OA
HETATM   25  C   UNL     1      42.596 -17.490   6.798  1.00  0.00     0.210 C 
ENDBRANCH  19  24
BRANCH  21  26
HETATM   26  O   UNL     1      45.375 -21.253   5.081  1.00  0.00    -0.356 OA
HETATM   27  C   UNL     1      44.971 -22.609   4.947  1.00  0.00     0.210 C 
ENDBRANCH  21  26
ENDBRANCH   1  18
BRANCH  12  28
HETATM   28  N   UNL     1      38.084 -11.300   4.332  1.00  0.00    -0.072 N 
HETATM   29  H   UNL     1      37.139 -11.460   3.949  1.00  0.00     0.274 HD
HETATM   30  H   UNL     1      38.261 -12.016   5.048  1.00  0.00     0.274 HD
HETATM   31  H   UNL     1      38.053 -10.388   4.811  1.00  0.00     0.274 HD
ENDBRANCH  12  28
TORSDOF 4
ENDMDL
MODEL 9
REMARK VINA RESULT:      -7.2      3.158      7.883
REMARK  4 active torsions:
REMARK  status: ('A' for Active; 'I' for Inactive)
REMARK    1  A    between atoms: O_2  and  C_3 
REMARK    2  A    between atoms: C_5  and  O_6 
REMARK    3  A    between atoms: C_8  and  C_9 
REMARK    4  A    between atoms: C_20  and  N_21 
ROOT
HETATM    1  C   UNL     1      41.492 -15.228   3.058  1.00  0.00    -0.022 A 
HETATM    2  C   UNL     1      42.191 -16.417   2.805  1.00  0.00     0.031 A 
HETATM    3  C   UNL     1      43.109 -16.951   3.730  1.00  0.00     0.059 A 
HETATM    4  C   UNL     1      43.329 -16.293   4.950  1.00  0.00     0.050 A 
HETATM    5  N   UNL     1      44.101 -16.763   6.033  1.00  0.00    -0.324 N 
HETATM    6  C   UNL     1      44.328 -18.057   6.404  1.00  0.00     0.247 C 
HETATM    7  O   UNL     1      44.749 -18.304   7.538  1.00  0.00    -0.271 OA
HETATM    8  C   UNL     1      43.826 -19.181   5.518  1.00  0.00     0.210 C 
HETATM    9  N   UNL     1      44.320 -19.053   4.166  1.00  0.00    -0.332 N 
HETATM   10  C   UNL     1      43.895 -18.117   3.254  1.00  0.00     0.256 C 
HETATM   11  O   UNL     1      44.148 -18.227   2.058  1.00  0.00    -0.267 OA
HETATM   12  C   UNL     1      44.388 -20.536   6.002  1.00  0.00     0.217 C 
HETATM   13  C   UNL     1      44.675 -21.298   4.712  1.00  0.00     0.055 C 
HETATM   14  C   UNL     1      45.129 -20.193   3.772  1.00  0.00     0.129 C 
HETATM   15  C   UNL     1      42.709 -15.055   5.163  1.00  0.00     0.031 A 
HETATM   16  C   UNL     1      41.802 -14.536   4.235  1.00  0.00     0.014 A 
HETATM   17  H   UNL     1      44.315 -16.099   6.772  1.00  0.00     0.169 HD
ENDROOT
BRANCH   1  18
HETATM   18  C   UNL     1      40.472 -14.719   2.118  1.00  0.00     0.008 A 
HETATM   19  C   UNL     1      40.776 -13.761   1.123  1.00  0.00     0.082 A 
HETATM   20  C   UNL     1      39.771 -13.308   0.259  1.00  0.00     0.074 A 
HETATM   21  C   UNL     1      38.467 -13.801   0.347  1.00  0.00     0.070 A 
HETATM   22  C   UNL     1      38.156 -14.740   1.325  1.00  0.00     0.038 A 
HETATM   23  C   UNL     1      39.149 -15.192   2.200  1.00  0.00     0.018 A 
BRANCH  19  24
HETATM   24  O   UNL     1      42.067 -13.290   1.093  1.00  0.00    -0.355 OA
HETATM   25  C   UNL     1      42.273 -12.008   0.510  1.00  0.00     0.210 C 
ENDBRANCH  19  24
BRANCH  21  26
HETATM   26  O   UNL     1      37.597 -13.275  -0.569  1.00  0.00    -0.356 OA
HETATM   27  C   UNL     1      38.162 -12.494  -1.615  1.00  0.00     0.210 C 
ENDBRANCH  21  26
ENDBRANCH   1  18
BRANCH  12  28
HETATM   28  N   UNL     1      43.414 -21.299   6.835  1.00  0.00    -0.072 N 
HETATM   29  H   UNL     1      43.877 -22.107   7.280  1.00  0.00     0.274 HD
HETATM   30  H   UNL     1      42.983 -20.731   7.578  1.00  0.00     0.274 HD
HETATM   31  H   UNL     1      42.651 -21.682   6.260  1.00  0.00     0.274 HD
ENDBRANCH  12  28
TORSDOF 4
ENDMDL
MODEL 10
REMARK VINA RESULT:      -7.2      2.881      3.355
REMARK  4 active torsions:
REMARK  status: ('A' for Active; 'I' for Inactive)
REMARK    1  A    between atoms: O_2  and  C_3 
REMARK    2  A    between atoms: C_5  and  O_6 
REMARK    3  A    between atoms: C_8  and  C_9 
REMARK    4  A    between atoms: C_20  and  N_21 
ROOT
HETATM    1  C   UNL     1      41.776 -16.674   4.812  1.00  0.00    -0.022 A 
HETATM    2  C   UNL     1      41.096 -16.187   3.686  1.00  0.00     0.031 A 
HETATM    3  C   UNL     1      40.268 -15.048   3.753  1.00  0.00     0.059 A 
HETATM    4  C   UNL     1      40.123 -14.364   4.970  1.00  0.00     0.050 A 
HETATM    5  N   UNL     1      39.452 -13.141   5.173  1.00  0.00    -0.324 N 
HETATM    6  C   UNL     1      39.294 -12.113   4.290  1.00  0.00     0.247 C 
HETATM    7  O   UNL     1      38.969 -10.995   4.703  1.00  0.00    -0.271 OA
HETATM    8  C   UNL     1      39.760 -12.287   2.858  1.00  0.00     0.210 C 
HETATM    9  N   UNL     1      39.159 -13.448   2.241  1.00  0.00    -0.332 N 
HETATM   10  C   UNL     1      39.484 -14.752   2.528  1.00  0.00     0.256 C 
HETATM   11  O   UNL     1      39.143 -15.674   1.791  1.00  0.00    -0.267 OA
HETATM   12  C   UNL     1      39.279 -11.104   1.990  1.00  0.00     0.217 C 
HETATM   13  C   UNL     1      38.916 -11.749   0.655  1.00  0.00     0.055 C 
HETATM   14  C   UNL     1      38.358 -13.096   1.082  1.00  0.00     0.129 C 
HETATM   15  C   UNL     1      40.720 -14.906   6.116  1.00  0.00     0.031 A 
HETATM   16  C   UNL     1      41.537 -16.037   6.035  1.00  0.00     0.014 A 
HETATM   17  H   UNL     1      39.275 -12.864   6.135  1.00  0.00     0.169 HD
ENDROOT
BRANCH   1  18
HETATM   18  C   UNL     1      42.705 -17.819   4.714  1.00  0.00     0.008 A 
HETATM   19  C   UNL     1      43.327 -18.183   3.497  1.00  0.00     0.082 A 
HETATM   20  C   UNL     1      44.196 -19.280   3.456  1.00  0.00     0.074 A 
HETATM   21  C   UNL     1      44.480 -20.018   4.608  1.00  0.00     0.070 A 
HETATM   22  C   UNL     1      43.870 -19.673   5.809  1.00  0.00     0.038 A 
HETATM   23  C   UNL     1      42.992 -18.585   5.859  1.00  0.00     0.018 A 
BRANCH  19  24
HETATM   24  O   UNL     1      42.996 -17.439   2.388  1.00  0.00    -0.355 OA
HETATM   25  C   UNL     1      43.979 -17.337   1.363  1.00  0.00     0.210 C 
ENDBRANCH  19  24
BRANCH  21  26
HETATM   26  O   UNL     1      45.355 -21.053   4.419  1.00  0.00    -0.356 OA
HETATM   27  C   UNL     1      45.103 -22.248   5.149  1.00  0.00     0.210 C 
ENDBRANCH  21  26
ENDBRANCH   1  18
BRANCH  12  28
HETATM   28  N   UNL     1      40.337 -10.073   1.783  1.00  0.00    -0.072 N 
HETATM   29  H   UNL     1      40.684 -10.102   0.812  1.00  0.00     0.274 HD
HETATM   30  H   UNL     1      40.014  -9.115   1.976  1.00  0.00     0.274 HD
HETATM   31  H   UNL     1      41.152 -10.249   2.388  1.00  0.00     0.274 HD
ENDBRANCH  12  28
TORSDOF 4
ENDMDL
