MODEL 1
REMARK VINA RESULT:      -8.7      0.000      0.000
REMARK  6 active torsions:
REMARK  status: ('A' for Active; 'I' for Inactive)
REMARK    1  A    between atoms: C_2  and  N_3 
REMARK    2  A    between atoms: C_2  and  C_15 
REMARK    3  A    between atoms: C_5  and  C_6 
REMARK       I    between atoms: C_15  and  N_16 
REMARK    4  A    between atoms: N_16  and  C_17 
REMARK    5  A    between atoms: C_20  and  O_21 
REMARK    6  A    between atoms: O_21  and  C_22 
ROOT
HETATM    1  C   UNL     1      40.680 -14.748   0.531  1.00  0.00     0.253 C 
HETATM    2  N   UNL     1      40.720 -16.108   0.762  1.00  0.00    -0.325 N 
HETATM    3  O   UNL     1      41.452 -13.906   0.990  1.00  0.00    -0.271 OA
HETATM    4  H   UNL     1      40.047 -16.706   0.295  1.00  0.00     0.169 HD
ENDROOT
BRANCH   1   5
HETATM    5  C   UNL     1      39.587 -14.267  -0.457  1.00  0.00     0.276 C 
HETATM    6  C   UNL     1      38.839 -13.027   0.018  1.00  0.00     0.050 C 
BRANCH   5   7
HETATM    7  N   UNL     1      40.188 -14.060  -1.862  1.00  0.00    -0.049 N 
HETATM    8  H   UNL     1      41.064 -13.542  -1.673  1.00  0.00     0.281 HD
HETATM    9  C   UNL     1      39.444 -13.147  -2.816  1.00  0.00     0.238 C 
HETATM   10  C   UNL     1      38.693 -14.126  -3.719  1.00  0.00     0.041 C 
HETATM   11  C   UNL     1      39.516 -15.408  -3.744  1.00  0.00     0.030 C 
HETATM   12  C   UNL     1      40.524 -15.313  -2.611  1.00  0.00     0.237 C 
BRANCH   9  13
HETATM   13  C   UNL     1      40.407 -12.275  -3.575  1.00  0.00     0.042 A 
HETATM   14  N   UNL     1      40.039 -11.173  -4.331  1.00  0.00    -0.363 N 
HETATM   15  C   UNL     1      38.715 -10.638  -4.580  1.00  0.00     0.155 C 
HETATM   16  C   UNL     1      41.160 -10.590  -4.871  1.00  0.00     0.090 A 
HETATM   17  C   UNL     1      42.258 -11.319  -4.496  1.00  0.00     0.019 A 
HETATM   18  C   UNL     1      41.791 -12.376  -3.687  1.00  0.00     0.028 A 
ENDBRANCH   9  13
ENDBRANCH   5   7
ENDBRANCH   1   5
BRANCH   2  19
HETATM   19  C   UNL     1      41.644 -16.809   1.573  1.00  0.00     0.035 A 
HETATM   20  C   UNL     1      41.374 -17.251   2.869  1.00  0.00     0.032 A 
HETATM   21  C   UNL     1      42.359 -17.913   3.611  1.00  0.00     0.039 A 
HETATM   22  C   UNL     1      43.620 -18.152   3.065  1.00  0.00     0.076 A 
HETATM   23  C   UNL     1      43.902 -17.707   1.774  1.00  0.00     0.039 A 
HETATM   24  C   UNL     1      42.916 -17.046   1.031  1.00  0.00     0.032 A 
BRANCH  22  25
HETATM   25  O   UNL     1      44.530 -18.756   3.902  1.00  0.00    -0.311 OA
BRANCH  25  26
HETATM   26  C   UNL     1      44.533 -20.128   3.975  1.00  0.00     0.076 A 
HETATM   27  C   UNL     1      44.425 -20.841   2.782  1.00  0.00     0.037 A 
HETATM   28  C   UNL     1      44.479 -22.234   2.799  1.00  0.00     0.003 A 
HETATM   29  C   UNL     1      44.656 -22.908   4.008  1.00  0.00     0.000 A 
HETATM   30  C   UNL     1      44.789 -22.191   5.199  1.00  0.00     0.003 A 
HETATM   31  C   UNL     1      44.737 -20.797   5.184  1.00  0.00     0.037 A 
ENDBRANCH  25  26
ENDBRANCH  22  25
ENDBRANCH   2  19
TORSDOF 6
ENDMDL
MODEL 2
REMARK VINA RESULT:      -8.6      1.546      2.045
REMARK  6 active torsions:
REMARK  status: ('A' for Active; 'I' for Inactive)
REMARK    1  A    between atoms: C_2  and  N_3 
REMARK    2  A    between atoms: C_2  and  C_15 
REMARK    3  A    between atoms: C_5  and  C_6 
REMARK       I    between atoms: C_15  and  N_16 
REMARK    4  A    between atoms: N_16  and  C_17 
REMARK    5  A    between atoms: C_20  and  O_21 
REMARK    6  A    between atoms: O_21  and  C_22 
ROOT
HETATM    1  C   UNL     1      39.337 -14.690   1.404  1.00  0.00     0.253 C 
HETATM    2  N   UNL     1      40.046 -15.762   0.901  1.00  0.00    -0.325 N 
HETATM    3  O   UNL     1      39.506 -14.150   2.497  1.00  0.00    -0.271 OA
HETATM    4  H   UNL     1      39.836 -16.096  -0.032  1.00  0.00     0.169 HD
ENDROOT
BRANCH   1   5
HETATM    5  C   UNL     1      38.273 -14.085   0.454  1.00  0.00     0.276 C 
HETATM    6  C   UNL     1      37.551 -12.877   1.038  1.00  0.00     0.050 C 
BRANCH   5   7
HETATM    7  N   UNL     1      38.902 -13.759  -0.916  1.00  0.00    -0.049 N 
HETATM    8  H   UNL     1      39.830 -14.214  -0.868  1.00  0.00     0.281 HD
HETATM    9  C   UNL     1      39.241 -12.310  -1.206  1.00  0.00     0.238 C 
HETATM   10  C   UNL     1      38.075 -11.847  -2.079  1.00  0.00     0.041 C 
HETATM   11  C   UNL     1      37.561 -13.085  -2.803  1.00  0.00     0.030 C 
HETATM   12  C   UNL     1      38.166 -14.292  -2.108  1.00  0.00     0.237 C 
BRANCH   9  13
HETATM   13  C   UNL     1      40.570 -12.206  -1.903  1.00  0.00     0.042 A 
HETATM   14  N   UNL     1      41.799 -12.353  -1.278  1.00  0.00    -0.363 N 
HETATM   15  C   UNL     1      42.087 -12.605   0.120  1.00  0.00     0.155 C 
HETATM   16  C   UNL     1      42.805 -12.222  -2.204  1.00  0.00     0.090 A 
HETATM   17  C   UNL     1      42.245 -11.961  -3.427  1.00  0.00     0.019 A 
HETATM   18  C   UNL     1      40.847 -11.949  -3.244  1.00  0.00     0.028 A 
ENDBRANCH   9  13
ENDBRANCH   5   7
ENDBRANCH   1   5
BRANCH   2  19
HETATM   19  C   UNL     1      41.101 -16.461   1.538  1.00  0.00     0.035 A 
HETATM   20  C   UNL     1      40.979 -17.120   2.762  1.00  0.00     0.032 A 
HETATM   21  C   UNL     1      42.084 -17.763   3.332  1.00  0.00     0.039 A 
HETATM   22  C   UNL     1      43.318 -17.767   2.682  1.00  0.00     0.076 A 
HETATM   23  C   UNL     1      43.451 -17.104   1.463  1.00  0.00     0.039 A 
HETATM   24  C   UNL     1      42.345 -16.462   0.892  1.00  0.00     0.032 A 
BRANCH  22  25
HETATM   25  O   UNL     1      44.349 -18.376   3.360  1.00  0.00    -0.311 OA
BRANCH  25  26
HETATM   26  C   UNL     1      44.373 -19.748   3.408  1.00  0.00     0.076 A 
HETATM   27  C   UNL     1      44.158 -20.442   2.218  1.00  0.00     0.037 A 
HETATM   28  C   UNL     1      44.226 -21.835   2.205  1.00  0.00     0.003 A 
HETATM   29  C   UNL     1      44.524 -22.528   3.380  1.00  0.00     0.000 A 
HETATM   30  C   UNL     1      44.764 -21.829   4.565  1.00  0.00     0.003 A 
HETATM   31  C   UNL     1      44.697 -20.436   4.580  1.00  0.00     0.037 A 
ENDBRANCH  25  26
ENDBRANCH  22  25
ENDBRANCH   2  19
TORSDOF 6
ENDMDL
MODEL 3
REMARK VINA RESULT:      -8.2      2.883      9.519
REMARK  6 active torsions:
REMARK  status: ('A' for Active; 'I' for Inactive)
REMARK    1  A    between atoms: C_2  and  N_3 
REMARK    2  A    between atoms: C_2  and  C_15 
REMARK    3  A    between atoms: C_5  and  C_6 
REMARK       I    between atoms: C_15  and  N_16 
REMARK    4  A    between atoms: N_16  and  C_17 
REMARK    5  A    between atoms: C_20  and  O_21 
REMARK    6  A    between atoms: O_21  and  C_22 
ROOT
HETATM    1  C   UNL     1      42.901 -14.416   3.642  1.00  0.00     0.253 C 
HETATM    2  N   UNL     1      41.790 -14.675   2.865  1.00  0.00    -0.325 N 
HETATM    3  O   UNL     1      43.977 -13.967   3.252  1.00  0.00    -0.271 OA
HETATM    4  H   UNL     1      40.944 -15.012   3.312  1.00  0.00     0.169 HD
ENDROOT
BRANCH   1   5
HETATM    5  C   UNL     1      42.727 -14.662   5.163  1.00  0.00     0.276 C 
HETATM    6  C   UNL     1      41.271 -14.706   5.610  1.00  0.00     0.050 C 
BRANCH   5   7
HETATM    7  N   UNL     1      43.488 -15.934   5.590  1.00  0.00    -0.049 N 
HETATM    8  H   UNL     1      44.134 -16.103   4.799  1.00  0.00     0.281 HD
HETATM    9  C   UNL     1      42.701 -17.226   5.679  1.00  0.00     0.238 C 
HETATM   10  C   UNL     1      42.432 -17.367   7.177  1.00  0.00     0.041 C 
HETATM   11  C   UNL     1      43.573 -16.652   7.890  1.00  0.00     0.030 C 
HETATM   12  C   UNL     1      44.293 -15.813   6.849  1.00  0.00     0.237 C 
BRANCH   9  13
HETATM   13  C   UNL     1      43.499 -18.373   5.120  1.00  0.00     0.042 A 
HETATM   14  N   UNL     1      43.449 -18.793   3.800  1.00  0.00    -0.363 N 
HETATM   15  C   UNL     1      42.648 -18.278   2.708  1.00  0.00     0.155 C 
HETATM   16  C   UNL     1      44.315 -19.845   3.619  1.00  0.00     0.090 A 
HETATM   17  C   UNL     1      44.911 -20.134   4.819  1.00  0.00     0.019 A 
HETATM   18  C   UNL     1      44.402 -19.217   5.761  1.00  0.00     0.028 A 
ENDBRANCH   9  13
ENDBRANCH   5   7
ENDBRANCH   1   5
BRANCH   2  19
HETATM   19  C   UNL     1      41.665 -14.486   1.467  1.00  0.00     0.035 A 
HETATM   20  C   UNL     1      41.715 -13.242   0.835  1.00  0.00     0.032 A 
HETATM   21  C   UNL     1      41.554 -13.146  -0.551  1.00  0.00     0.039 A 
HETATM   22  C   UNL     1      41.355 -14.289  -1.325  1.00  0.00     0.076 A 
HETATM   23  C   UNL     1      41.296 -15.535  -0.702  1.00  0.00     0.039 A 
HETATM   24  C   UNL     1      41.458 -15.632   0.686  1.00  0.00     0.032 A 
BRANCH  22  25
HETATM   25  O   UNL     1      41.149 -14.074  -2.668  1.00  0.00    -0.311 OA
BRANCH  25  26
HETATM   26  C   UNL     1      39.891 -14.291  -3.175  1.00  0.00     0.076 A 
HETATM   27  C   UNL     1      39.635 -15.530  -3.763  1.00  0.00     0.037 A 
HETATM   28  C   UNL     1      38.358 -15.818  -4.243  1.00  0.00     0.003 A 
HETATM   29  C   UNL     1      37.338 -14.873  -4.119  1.00  0.00     0.000 A 
HETATM   30  C   UNL     1      37.592 -13.643  -3.508  1.00  0.00     0.003 A 
HETATM   31  C   UNL     1      38.868 -13.353  -3.026  1.00  0.00     0.037 A 
ENDBRANCH  25  26
ENDBRANCH  22  25
ENDBRANCH   2  19
TORSDOF 6
ENDMDL
MODEL 4
REMARK VINA RESULT:      -8.2      1.581      2.743
REMARK  6 active torsions:
REMARK  status: ('A' for Active; 'I' for Inactive)
REMARK    1  A    between atoms: C_2  and  N_3 
REMARK    2  A    between atoms: C_2  and  C_15 
REMARK    3  A    between atoms: C_5  and  C_6 
REMARK       I    between atoms: C_15  and  N_16 
REMARK    4  A    between atoms: N_16  and  C_17 
REMARK    5  A    between atoms: C_20  and  O_21 
REMARK    6  A    between atoms: O_21  and  C_22 
ROOT
HETATM    1  C   UNL     1      40.542 -15.198   0.539  1.00  0.00     0.253 C 
HETATM    2  N   UNL     1      40.803 -15.217   1.895  1.00  0.00    -0.325 N 
HETATM    3  O   UNL     1      41.074 -15.904  -0.317  1.00  0.00    -0.271 OA
HETATM    4  H   UNL     1      40.269 -14.610   2.506  1.00  0.00     0.169 HD
ENDROOT
BRANCH   1   5
HETATM    5  C   UNL     1      39.417 -14.233   0.086  1.00  0.00     0.276 C 
HETATM    6  C   UNL     1      38.358 -13.987   1.154  1.00  0.00     0.050 C 
BRANCH   5   7
HETATM    7  N   UNL     1      40.020 -12.910  -0.426  1.00  0.00    -0.049 N 
HETATM    8  H   UNL     1      39.684 -12.856  -1.403  1.00  0.00     0.281 HD
HETATM    9  C   UNL     1      41.527 -12.836  -0.573  1.00  0.00     0.238 C 
HETATM   10  C   UNL     1      41.963 -12.083   0.685  1.00  0.00     0.041 C 
HETATM   11  C   UNL     1      40.791 -11.195   1.083  1.00  0.00     0.030 C 
HETATM   12  C   UNL     1      39.581 -11.675   0.301  1.00  0.00     0.237 C 
BRANCH   9  13
HETATM   13  C   UNL     1      41.902 -12.118  -1.841  1.00  0.00     0.042 A 
HETATM   14  N   UNL     1      41.757 -12.646  -3.114  1.00  0.00    -0.363 N 
HETATM   15  C   UNL     1      41.260 -13.949  -3.510  1.00  0.00     0.155 C 
HETATM   16  C   UNL     1      42.171 -11.725  -4.045  1.00  0.00     0.090 A 
HETATM   17  C   UNL     1      42.614 -10.606  -3.389  1.00  0.00     0.019 A 
HETATM   18  C   UNL     1      42.449 -10.848  -2.010  1.00  0.00     0.028 A 
ENDBRANCH   9  13
ENDBRANCH   5   7
ENDBRANCH   1   5
BRANCH   2  19
HETATM   19  C   UNL     1      41.736 -16.038   2.572  1.00  0.00     0.035 A 
HETATM   20  C   UNL     1      43.122 -15.910   2.459  1.00  0.00     0.032 A 
HETATM   21  C   UNL     1      43.971 -16.786   3.144  1.00  0.00     0.039 A 
HETATM   22  C   UNL     1      43.450 -17.790   3.960  1.00  0.00     0.076 A 
HETATM   23  C   UNL     1      42.067 -17.930   4.073  1.00  0.00     0.039 A 
HETATM   24  C   UNL     1      41.217 -17.053   3.388  1.00  0.00     0.032 A 
BRANCH  22  25
HETATM   25  O   UNL     1      44.373 -18.630   4.539  1.00  0.00    -0.311 OA
BRANCH  25  26
HETATM   26  C   UNL     1      44.473 -19.913   4.059  1.00  0.00     0.076 A 
HETATM   27  C   UNL     1      44.667 -20.938   4.985  1.00  0.00     0.037 A 
HETATM   28  C   UNL     1      44.720 -22.262   4.552  1.00  0.00     0.003 A 
HETATM   29  C   UNL     1      44.564 -22.558   3.196  1.00  0.00     0.000 A 
HETATM   30  C   UNL     1      44.345 -21.532   2.275  1.00  0.00     0.003 A 
HETATM   31  C   UNL     1      44.291 -20.206   2.706  1.00  0.00     0.037 A 
ENDBRANCH  25  26
ENDBRANCH  22  25
ENDBRANCH   2  19
TORSDOF 6
ENDMDL
MODEL 5
REMARK VINA RESULT:      -8.2      6.833      9.417
REMARK  6 active torsions:
REMARK  status: ('A' for Active; 'I' for Inactive)
REMARK    1  A    between atoms: C_2  and  N_3 
REMARK    2  A    between atoms: C_2  and  C_15 
REMARK    3  A    between atoms: C_5  and  C_6 
REMARK       I    between atoms: C_15  and  N_16 
REMARK    4  A    between atoms: N_16  and  C_17 
REMARK    5  A    between atoms: C_20  and  O_21 
REMARK    6  A    between atoms: O_21  and  C_22 
ROOT
HETATM    1  C   UNL     1      40.078 -12.502   6.185  1.00  0.00     0.253 C 
HETATM    2  N   UNL     1      41.151 -13.348   6.385  1.00  0.00    -0.325 N 
HETATM    3  O   UNL     1      39.351 -12.466   5.194  1.00  0.00    -0.271 OA
HETATM    4  H   UNL     1      41.653 -13.306   7.264  1.00  0.00     0.169 HD
ENDROOT
BRANCH   1   5
HETATM    5  C   UNL     1      39.738 -11.560   7.368  1.00  0.00     0.276 C 
HETATM    6  C   UNL     1      38.933 -12.235   8.472  1.00  0.00     0.050 C 
BRANCH   5   7
HETATM    7  N   UNL     1      41.022 -10.910   7.922  1.00  0.00    -0.049 N 
HETATM    8  H   UNL     1      41.727 -11.662   7.838  1.00  0.00     0.281 HD
HETATM    9  C   UNL     1      41.054 -10.568   9.399  1.00  0.00     0.238 C 
HETATM   10  C   UNL     1      40.766  -9.067   9.415  1.00  0.00     0.041 C 
HETATM   11  C   UNL     1      41.267  -8.517   8.085  1.00  0.00     0.030 C 
HETATM   12  C   UNL     1      41.512  -9.707   7.174  1.00  0.00     0.237 C 
BRANCH   9  13
HETATM   13  C   UNL     1      42.394 -10.911   9.993  1.00  0.00     0.042 A 
HETATM   14  N   UNL     1      42.620 -11.130  11.343  1.00  0.00    -0.363 N 
HETATM   15  C   UNL     1      41.684 -11.063  12.448  1.00  0.00     0.155 C 
HETATM   16  C   UNL     1      43.943 -11.442  11.543  1.00  0.00     0.090 A 
HETATM   17  C   UNL     1      44.591 -11.402  10.336  1.00  0.00     0.019 A 
HETATM   18  C   UNL     1      43.626 -11.068   9.364  1.00  0.00     0.028 A 
ENDBRANCH   9  13
ENDBRANCH   5   7
ENDBRANCH   1   5
BRANCH   2  19
HETATM   19  C   UNL     1      41.636 -14.334   5.493  1.00  0.00     0.035 A 
HETATM   20  C   UNL     1      42.751 -14.169   4.670  1.00  0.00     0.032 A 
HETATM   21  C   UNL     1      43.143 -15.190   3.797  1.00  0.00     0.039 A 
HETATM   22  C   UNL     1      42.437 -16.391   3.743  1.00  0.00     0.076 A 
HETATM   23  C   UNL     1      41.317 -16.562   4.556  1.00  0.00     0.039 A 
HETATM   24  C   UNL     1      40.925 -15.542   5.431  1.00  0.00     0.032 A 
BRANCH  22  25
HETATM   25  O   UNL     1      42.873 -17.301   2.808  1.00  0.00    -0.311 OA
BRANCH  25  26
HETATM   26  C   UNL     1      43.545 -18.414   3.250  1.00  0.00     0.076 A 
HETATM   27  C   UNL     1      43.734 -19.458   2.344  1.00  0.00     0.037 A 
HETATM   28  C   UNL     1      44.457 -20.586   2.729  1.00  0.00     0.003 A 
HETATM   29  C   UNL     1      45.003 -20.660   4.012  1.00  0.00     0.000 A 
HETATM   30  C   UNL     1      44.833 -19.602   4.907  1.00  0.00     0.003 A 
HETATM   31  C   UNL     1      44.110 -18.472   4.525  1.00  0.00     0.037 A 
ENDBRANCH  25  26
ENDBRANCH  22  25
ENDBRANCH   2  19
TORSDOF 6
ENDMDL
MODEL 6
REMARK VINA RESULT:      -8.1      2.061      3.190
REMARK  6 active torsions:
REMARK  status: ('A' for Active; 'I' for Inactive)
REMARK    1  A    between atoms: C_2  and  N_3 
REMARK    2  A    between atoms: C_2  and  C_15 
REMARK    3  A    between atoms: C_5  and  C_6 
REMARK       I    between atoms: C_15  and  N_16 
REMARK    4  A    between atoms: N_16  and  C_17 
REMARK    5  A    between atoms: C_20  and  O_21 
REMARK    6  A    between atoms: O_21  and  C_22 
ROOT
HETATM    1  C   UNL     1      39.364 -14.485   1.863  1.00  0.00     0.253 C 
HETATM    2  N   UNL     1      40.648 -14.345   2.353  1.00  0.00    -0.325 N 
HETATM    3  O   UNL     1      38.739 -15.538   1.743  1.00  0.00    -0.271 OA
HETATM    4  H   UNL     1      41.043 -13.416   2.437  1.00  0.00     0.169 HD
ENDROOT
BRANCH   1   5
HETATM    5  C   UNL     1      38.639 -13.165   1.497  1.00  0.00     0.276 C 
HETATM    6  C   UNL     1      39.274 -11.928   2.120  1.00  0.00     0.050 C 
BRANCH   5   7
HETATM    7  N   UNL     1      38.518 -13.027  -0.034  1.00  0.00    -0.049 N 
HETATM    8  H   UNL     1      37.691 -13.605  -0.262  1.00  0.00     0.281 HD
HETATM    9  C   UNL     1      39.614 -13.639  -0.883  1.00  0.00     0.238 C 
HETATM   10  C   UNL     1      40.487 -12.437  -1.245  1.00  0.00     0.041 C 
HETATM   11  C   UNL     1      39.570 -11.220  -1.235  1.00  0.00     0.030 C 
HETATM   12  C   UNL     1      38.285 -11.635  -0.541  1.00  0.00     0.237 C 
BRANCH   9  13
HETATM   13  C   UNL     1      39.031 -14.321  -2.091  1.00  0.00     0.042 A 
HETATM   14  N   UNL     1      39.740 -15.159  -2.938  1.00  0.00    -0.363 N 
HETATM   15  C   UNL     1      41.137 -15.541  -2.884  1.00  0.00     0.155 C 
HETATM   16  C   UNL     1      38.907 -15.630  -3.923  1.00  0.00     0.090 A 
HETATM   17  C   UNL     1      37.663 -15.084  -3.744  1.00  0.00     0.019 A 
HETATM   18  C   UNL     1      37.737 -14.263  -2.600  1.00  0.00     0.028 A 
ENDBRANCH   9  13
ENDBRANCH   5   7
ENDBRANCH   1   5
BRANCH   2  19
HETATM   19  C   UNL     1      41.504 -15.377   2.806  1.00  0.00     0.035 A 
HETATM   20  C   UNL     1      41.249 -16.175   3.923  1.00  0.00     0.032 A 
HETATM   21  C   UNL     1      42.167 -17.156   4.316  1.00  0.00     0.039 A 
HETATM   22  C   UNL     1      43.341 -17.362   3.592  1.00  0.00     0.076 A 
HETATM   23  C   UNL     1      43.608 -16.565   2.479  1.00  0.00     0.039 A 
HETATM   24  C   UNL     1      42.689 -15.584   2.086  1.00  0.00     0.032 A 
BRANCH  22  25
HETATM   25  O   UNL     1      44.199 -18.310   4.100  1.00  0.00    -0.311 OA
BRANCH  25  26
HETATM   26  C   UNL     1      44.218 -19.550   3.511  1.00  0.00     0.076 A 
HETATM   27  C   UNL     1      44.769 -20.605   4.239  1.00  0.00     0.037 A 
HETATM   28  C   UNL     1      44.762 -21.893   3.706  1.00  0.00     0.003 A 
HETATM   29  C   UNL     1      44.191 -22.125   2.454  1.00  0.00     0.000 A 
HETATM   30  C   UNL     1      43.618 -21.072   1.738  1.00  0.00     0.003 A 
HETATM   31  C   UNL     1      43.623 -19.782   2.270  1.00  0.00     0.037 A 
ENDBRANCH  25  26
ENDBRANCH  22  25
ENDBRANCH   2  19
TORSDOF 6
ENDMDL
MODEL 7
REMARK VINA RESULT:      -8.1      1.489      3.359
REMARK  6 active torsions:
REMARK  status: ('A' for Active; 'I' for Inactive)
REMARK    1  A    between atoms: C_2  and  N_3 
REMARK    2  A    between atoms: C_2  and  C_15 
REMARK    3  A    between atoms: C_5  and  C_6 
REMARK       I    between atoms: C_15  and  N_16 
REMARK    4  A    between atoms: N_16  and  C_17 
REMARK    5  A    between atoms: C_20  and  O_21 
REMARK    6  A    between atoms: O_21  and  C_22 
ROOT
HETATM    1  C   UNL     1      41.637 -14.871  -0.706  1.00  0.00     0.253 C 
HETATM    2  N   UNL     1      41.744 -16.218  -0.420  1.00  0.00    -0.325 N 
HETATM    3  O   UNL     1      42.042 -13.942  -0.008  1.00  0.00    -0.271 OA
HETATM    4  H   UNL     1      41.403 -16.892  -1.095  1.00  0.00     0.169 HD
ENDROOT
BRANCH   1   5
HETATM    5  C   UNL     1      41.000 -14.525  -2.075  1.00  0.00     0.276 C 
HETATM    6  C   UNL     1      40.558 -15.749  -2.868  1.00  0.00     0.050 C 
BRANCH   5   7
HETATM    7  N   UNL     1      39.842 -13.524  -1.890  1.00  0.00    -0.049 N 
HETATM    8  H   UNL     1      40.198 -12.878  -1.164  1.00  0.00     0.281 HD
HETATM    9  C   UNL     1      38.552 -14.045  -1.290  1.00  0.00     0.238 C 
HETATM   10  C   UNL     1      37.655 -14.243  -2.511  1.00  0.00     0.041 C 
HETATM   11  C   UNL     1      38.125 -13.242  -3.559  1.00  0.00     0.030 C 
HETATM   12  C   UNL     1      39.479 -12.725  -3.105  1.00  0.00     0.237 C 
BRANCH   9  13
HETATM   13  C   UNL     1      37.988 -13.056  -0.305  1.00  0.00     0.042 A 
HETATM   14  N   UNL     1      38.272 -13.050   1.051  1.00  0.00    -0.363 N 
HETATM   15  C   UNL     1      39.113 -13.954   1.812  1.00  0.00     0.155 C 
HETATM   16  C   UNL     1      37.614 -12.007   1.655  1.00  0.00     0.090 A 
HETATM   17  C   UNL     1      36.877 -11.346   0.707  1.00  0.00     0.019 A 
HETATM   18  C   UNL     1      37.107 -12.000  -0.520  1.00  0.00     0.028 A 
ENDBRANCH   9  13
ENDBRANCH   5   7
ENDBRANCH   1   5
BRANCH   2  19
HETATM   19  C   UNL     1      42.329 -16.801   0.730  1.00  0.00     0.035 A 
HETATM   20  C   UNL     1      43.685 -17.109   0.851  1.00  0.00     0.032 A 
HETATM   21  C   UNL     1      44.173 -17.712   2.016  1.00  0.00     0.039 A 
HETATM   22  C   UNL     1      43.318 -18.000   3.079  1.00  0.00     0.076 A 
HETATM   23  C   UNL     1      41.961 -17.702   2.965  1.00  0.00     0.039 A 
HETATM   24  C   UNL     1      41.472 -17.099   1.799  1.00  0.00     0.032 A 
BRANCH  22  25
HETATM   25  O   UNL     1      43.891 -18.645   4.150  1.00  0.00    -0.311 OA
BRANCH  25  26
HETATM   26  C   UNL     1      44.138 -19.992   4.041  1.00  0.00     0.076 A 
HETATM   27  C   UNL     1      43.973 -20.581   2.787  1.00  0.00     0.037 A 
HETATM   28  C   UNL     1      44.263 -21.933   2.613  1.00  0.00     0.003 A 
HETATM   29  C   UNL     1      44.735 -22.688   3.689  1.00  0.00     0.000 A 
HETATM   30  C   UNL     1      44.924 -22.090   4.936  1.00  0.00     0.003 A 
HETATM   31  C   UNL     1      44.634 -20.737   5.113  1.00  0.00     0.037 A 
ENDBRANCH  25  26
ENDBRANCH  22  25
ENDBRANCH   2  19
TORSDOF 6
ENDMDL
MODEL 8
REMARK VINA RESULT:      -8.0      3.199      9.433
REMARK  6 active torsions:
REMARK  status: ('A' for Active; 'I' for Inactive)
REMARK    1  A    between atoms: C_2  and  N_3 
REMARK    2  A    between atoms: C_2  and  C_15 
REMARK    3  A    between atoms: C_5  and  C_6 
REMARK       I    between atoms: C_15  and  N_16 
REMARK    4  A    between atoms: N_16  and  C_17 
REMARK    5  A    between atoms: C_20  and  O_21 
REMARK    6  A    between atoms: O_21  and  C_22 
ROOT
HETATM    1  C   UNL     1      40.929 -15.194   4.926  1.00  0.00     0.253 C 
HETATM    2  N   UNL     1      41.121 -15.627   3.629  1.00  0.00    -0.325 N 
HETATM    3  O   UNL     1      40.305 -14.193   5.277  1.00  0.00    -0.271 OA
HETATM    4  H   UNL     1      41.625 -16.492   3.469  1.00  0.00     0.169 HD
ENDROOT
BRANCH   1   5
HETATM    5  C   UNL     1      41.509 -16.111   6.032  1.00  0.00     0.276 C 
HETATM    6  C   UNL     1      40.503 -17.115   6.580  1.00  0.00     0.050 C 
BRANCH   5   7
HETATM    7  N   UNL     1      42.790 -16.810   5.532  1.00  0.00    -0.049 N 
HETATM    8  H   UNL     1      42.815 -16.571   4.526  1.00  0.00     0.281 HD
HETATM    9  C   UNL     1      42.807 -18.325   5.530  1.00  0.00     0.238 C 
HETATM   10  C   UNL     1      43.594 -18.666   6.795  1.00  0.00     0.041 C 
HETATM   11  C   UNL     1      44.537 -17.496   7.045  1.00  0.00     0.030 C 
HETATM   12  C   UNL     1      44.067 -16.349   6.167  1.00  0.00     0.237 C 
BRANCH   9  13
HETATM   13  C   UNL     1      43.460 -18.846   4.278  1.00  0.00     0.042 A 
HETATM   14  N   UNL     1      44.222 -20.002   4.213  1.00  0.00    -0.363 N 
HETATM   15  C   UNL     1      44.574 -20.924   5.275  1.00  0.00     0.155 C 
HETATM   16  C   UNL     1      44.648 -20.201   2.922  1.00  0.00     0.090 A 
HETATM   17  C   UNL     1      44.193 -19.167   2.146  1.00  0.00     0.019 A 
HETATM   18  C   UNL     1      43.451 -18.316   2.990  1.00  0.00     0.028 A 
ENDBRANCH   9  13
ENDBRANCH   5   7
ENDBRANCH   1   5
BRANCH   2  19
HETATM   19  C   UNL     1      40.651 -15.009   2.445  1.00  0.00     0.035 A 
HETATM   20  C   UNL     1      39.318 -15.016   2.032  1.00  0.00     0.032 A 
HETATM   21  C   UNL     1      38.947 -14.401   0.830  1.00  0.00     0.039 A 
HETATM   22  C   UNL     1      39.897 -13.762   0.035  1.00  0.00     0.076 A 
HETATM   23  C   UNL     1      41.232 -13.757   0.436  1.00  0.00     0.039 A 
HETATM   24  C   UNL     1      41.604 -14.370   1.639  1.00  0.00     0.032 A 
BRANCH  22  25
HETATM   25  O   UNL     1      39.433 -13.244  -1.152  1.00  0.00    -0.311 OA
BRANCH  25  26
HETATM   26  C   UNL     1      39.133 -14.118  -2.168  1.00  0.00     0.076 A 
HETATM   27  C   UNL     1      40.142 -14.978  -2.602  1.00  0.00     0.037 A 
HETATM   28  C   UNL     1      39.870 -15.920  -3.594  1.00  0.00     0.003 A 
HETATM   29  C   UNL     1      38.587 -16.011  -4.136  1.00  0.00     0.000 A 
HETATM   30  C   UNL     1      37.573 -15.166  -3.681  1.00  0.00     0.003 A 
HETATM   31  C   UNL     1      37.842 -14.222  -2.689  1.00  0.00     0.037 A 
ENDBRANCH  25  26
ENDBRANCH  22  25
ENDBRANCH   2  19
TORSDOF 6
ENDMDL
MODEL 9
REMARK VINA RESULT:      -7.9      2.023      3.252
REMARK  6 active torsions:
REMARK  status: ('A' for Active; 'I' for Inactive)
REMARK    1  A    between atoms: C_2  and  N_3 
REMARK    2  A    between atoms: C_2  and  C_15 
REMARK    3  A    between atoms: C_5  and  C_6 
REMARK       I    between atoms: C_15  and  N_16 
REMARK    4  A    between atoms: N_16  and  C_17 
REMARK    5  A    between atoms: C_20  and  O_21 
REMARK    6  A    between atoms: O_21  and  C_22 
ROOT
HETATM    1  C   UNL     1      40.571 -13.889   3.032  1.00  0.00     0.253 C 
HETATM    2  N   UNL     1      40.570 -15.257   2.848  1.00  0.00    -0.325 N 
HETATM    3  O   UNL     1      41.426 -13.233   3.627  1.00  0.00    -0.271 OA
HETATM    4  H   UNL     1      39.825 -15.680   2.306  1.00  0.00     0.169 HD
ENDROOT
BRANCH   1   5
HETATM    5  C   UNL     1      39.406 -13.121   2.358  1.00  0.00     0.276 C 
HETATM    6  C   UNL     1      38.948 -11.898   3.144  1.00  0.00     0.050 C 
BRANCH   5   7
HETATM    7  N   UNL     1      39.775 -12.754   0.907  1.00  0.00    -0.049 N 
HETATM    8  H   UNL     1      39.124 -13.328   0.342  1.00  0.00     0.281 HD
HETATM    9  C   UNL     1      41.139 -13.178   0.400  1.00  0.00     0.238 C 
HETATM   10  C   UNL     1      41.965 -11.896   0.510  1.00  0.00     0.041 C 
HETATM   11  C   UNL     1      40.984 -10.738   0.372  1.00  0.00     0.030 C 
HETATM   12  C   UNL     1      39.588 -11.314   0.537  1.00  0.00     0.237 C 
BRANCH   9  13
HETATM   13  C   UNL     1      41.045 -13.692  -1.011  1.00  0.00     0.042 A 
HETATM   14  N   UNL     1      41.104 -15.031  -1.364  1.00  0.00    -0.363 N 
HETATM   15  C   UNL     1      41.283 -16.192  -0.514  1.00  0.00     0.155 C 
HETATM   16  C   UNL     1      40.965 -15.155  -2.725  1.00  0.00     0.090 A 
HETATM   17  C   UNL     1      40.843 -13.903  -3.269  1.00  0.00     0.019 A 
HETATM   18  C   UNL     1      40.895 -12.985  -2.201  1.00  0.00     0.028 A 
ENDBRANCH   9  13
ENDBRANCH   5   7
ENDBRANCH   1   5
BRANCH   2  19
HETATM   19  C   UNL     1      41.540 -16.180   3.309  1.00  0.00     0.035 A 
HETATM   20  C   UNL     1      41.336 -17.073   4.362  1.00  0.00     0.032 A 
HETATM   21  C   UNL     1      42.362 -17.933   4.770  1.00  0.00     0.039 A 
HETATM   22  C   UNL     1      43.598 -17.921   4.124  1.00  0.00     0.076 A 
HETATM   23  C   UNL     1      43.814 -17.027   3.076  1.00  0.00     0.039 A 
HETATM   24  C   UNL     1      42.787 -16.168   2.667  1.00  0.00     0.032 A 
BRANCH  22  25
HETATM   25  O   UNL     1      44.553 -18.764   4.645  1.00  0.00    -0.311 OA
BRANCH  25  26
HETATM   26  C   UNL     1      44.532 -20.083   4.263  1.00  0.00     0.076 A 
HETATM   27  C   UNL     1      44.360 -20.362   2.907  1.00  0.00     0.037 A 
HETATM   28  C   UNL     1      44.386 -21.684   2.463  1.00  0.00     0.003 A 
HETATM   29  C   UNL     1      44.600 -22.720   3.374  1.00  0.00     0.000 A 
HETATM   30  C   UNL     1      44.798 -22.436   4.726  1.00  0.00     0.003 A 
HETATM   31  C   UNL     1      44.773 -21.114   5.173  1.00  0.00     0.037 A 
ENDBRANCH  25  26
ENDBRANCH  22  25
ENDBRANCH   2  19
TORSDOF 6
ENDMDL
MODEL 10
REMARK VINA RESULT:      -7.7      2.188      4.130
REMARK  6 active torsions:
REMARK  status: ('A' for Active; 'I' for Inactive)
REMARK    1  A    between atoms: C_2  and  N_3 
REMARK    2  A    between atoms: C_2  and  C_15 
REMARK    3  A    between atoms: C_5  and  C_6 
REMARK       I    between atoms: C_15  and  N_16 
REMARK    4  A    between atoms: N_16  and  C_17 
REMARK    5  A    between atoms: C_20  and  O_21 
REMARK    6  A    between atoms: O_21  and  C_22 
ROOT
HETATM    1  C   UNL     1      41.643 -14.105   0.540  1.00  0.00     0.253 C 
HETATM    2  N   UNL     1      41.511 -15.474   0.667  1.00  0.00    -0.325 N 
HETATM    3  O   UNL     1      42.401 -13.381   1.186  1.00  0.00    -0.271 OA
HETATM    4  H   UNL     1      40.876 -15.966   0.049  1.00  0.00     0.169 HD
ENDROOT
BRANCH   1   5
HETATM    5  C   UNL     1      40.792 -13.450  -0.577  1.00  0.00     0.276 C 
HETATM    6  C   UNL     1      40.333 -14.432  -1.648  1.00  0.00     0.050 C 
BRANCH   5   7
HETATM    7  N   UNL     1      39.601 -12.686   0.035  1.00  0.00    -0.049 N 
HETATM    8  H   UNL     1      40.009 -11.767   0.284  1.00  0.00     0.281 HD
HETATM    9  C   UNL     1      39.047 -13.188   1.354  1.00  0.00     0.238 C 
HETATM   10  C   UNL     1      37.808 -13.977   0.933  1.00  0.00     0.041 C 
HETATM   11  C   UNL     1      37.319 -13.351  -0.367  1.00  0.00     0.030 C 
HETATM   12  C   UNL     1      38.437 -12.461  -0.882  1.00  0.00     0.237 C 
BRANCH   9  13
HETATM   13  C   UNL     1      38.723 -12.036   2.267  1.00  0.00     0.042 A 
HETATM   14  N   UNL     1      39.372 -11.777   3.464  1.00  0.00    -0.363 N 
HETATM   15  C   UNL     1      40.440 -12.520   4.102  1.00  0.00     0.155 C 
HETATM   16  C   UNL     1      38.849 -10.642   4.035  1.00  0.00     0.090 A 
HETATM   17  C   UNL     1      37.842 -10.171   3.232  1.00  0.00     0.019 A 
HETATM   18  C   UNL     1      37.759 -11.042   2.126  1.00  0.00     0.028 A 
ENDBRANCH   9  13
ENDBRANCH   5   7
ENDBRANCH   1   5
BRANCH   2  19
HETATM   19  C   UNL     1      42.208 -16.317   1.566  1.00  0.00     0.035 A 
HETATM   20  C   UNL     1      41.737 -16.679   2.829  1.00  0.00     0.032 A 
HETATM   21  C   UNL     1      42.507 -17.497   3.664  1.00  0.00     0.039 A 
HETATM   22  C   UNL     1      43.748 -17.974   3.244  1.00  0.00     0.076 A 
HETATM   23  C   UNL     1      44.230 -17.613   1.987  1.00  0.00     0.039 A 
HETATM   24  C   UNL     1      43.459 -16.795   1.151  1.00  0.00     0.032 A 
BRANCH  22  25
HETATM   25  O   UNL     1      44.445 -18.720   4.166  1.00  0.00    -0.311 OA
BRANCH  25  26
HETATM   26  C   UNL     1      44.478 -20.084   4.006  1.00  0.00     0.076 A 
HETATM   27  C   UNL     1      44.294 -20.590   2.720  1.00  0.00     0.037 A 
HETATM   28  C   UNL     1      44.373 -21.964   2.498  1.00  0.00     0.003 A 
HETATM   29  C   UNL     1      44.653 -22.826   3.560  1.00  0.00     0.000 A 
HETATM   30  C   UNL     1      44.862 -22.314   4.842  1.00  0.00     0.003 A 
HETATM   31  C   UNL     1      44.784 -20.940   5.067  1.00  0.00     0.037 A 
ENDBRANCH  25  26
ENDBRANCH  22  25
ENDBRANCH   2  19
TORSDOF 6
ENDMDL
