MODEL 1
REMARK VINA RESULT:      -9.7      0.000      0.000
REMARK  6 active torsions:
REMARK  status: ('A' for Active; 'I' for Inactive)
REMARK    1  A    between atoms: C_2  and  C_3 
REMARK    2  A    between atoms: C_6  and  N_7 
REMARK    3  A    between atoms: C_8  and  O_9 
REMARK    4  A    between atoms: C_8  and  C_10 
REMARK       I    between atoms: C_10  and  N_11 
REMARK    5  A    between atoms: N_11  and  C_12 
REMARK    6  A    between atoms: C_12  and  C_13 
ROOT
HETATM    1  N   UNL     1      41.546 -15.617   2.779  1.00  0.00    -0.254 N 
HETATM    2  C   UNL     1      42.154 -14.277   2.854  1.00  0.00     0.256 C 
HETATM    3  C   UNL     1      41.354 -13.362   3.757  1.00  0.00     0.034 A 
HETATM    4  C   UNL     1      39.978 -13.554   3.801  1.00  0.00     0.048 A 
HETATM    5  N   UNL     1      39.436 -14.639   3.117  1.00  0.00    -0.308 N 
HETATM    6  C   UNL     1      40.162 -15.706   2.654  1.00  0.00     0.330 C 
HETATM    7  O   UNL     1      39.545 -16.670   2.203  1.00  0.00    -0.246 OA
HETATM    8  C   UNL     1      41.913 -12.288   4.467  1.00  0.00     0.015 A 
HETATM    9  C   UNL     1      41.097 -11.438   5.215  1.00  0.00     0.001 A 
HETATM   10  C   UNL     1      39.718 -11.640   5.242  1.00  0.00     0.002 A 
HETATM   11  C   UNL     1      39.153 -12.695   4.525  1.00  0.00     0.030 A 
HETATM   12  H   UNL     1      38.434 -14.783   3.121  1.00  0.00     0.170 HD
ENDROOT
BRANCH   2  13
HETATM   13  O   UNL     1      43.484 -14.332   3.383  1.00  0.00    -0.359 OA
HETATM   14  H   UNL     1      43.828 -13.424   3.329  1.00  0.00     0.213 HD
ENDBRANCH   2  13
BRANCH   2  15
HETATM   15  C   UNL     1      42.252 -13.599   1.407  1.00  0.00     0.279 C 
HETATM   16  N   UNL     1      41.733 -14.304   0.334  1.00  0.00    -0.352 N 
HETATM   17  H   UNL     1      41.713 -15.312   0.411  1.00  0.00     0.162 HD
HETATM   18  O   UNL     1      42.737 -12.475   1.254  1.00  0.00    -0.268 OA
BRANCH  16  19
HETATM   19  C   UNL     1      41.773 -13.736  -0.995  1.00  0.00     0.161 C 
BRANCH  19  20
HETATM   20  C   UNL     1      40.767 -14.313  -1.967  1.00  0.00    -0.038 A 
HETATM   21  C   UNL     1      39.572 -13.595  -2.172  1.00  0.00     0.048 A 
HETATM   22  C   UNL     1      38.620 -14.120  -3.020  1.00  0.00     0.105 A 
HETATM   23  C   UNL     1      38.809 -15.315  -3.668  1.00  0.00     0.105 A 
HETATM   24  O   UNL     1      37.415 -13.558  -3.309  1.00  0.00    -0.323 OA
HETATM   25  O   UNL     1      37.751 -15.657  -4.449  1.00  0.00    -0.323 OA
HETATM   26  C   UNL     1      39.960 -16.051  -3.499  1.00  0.00     0.040 A 
HETATM   27  C   UNL     1      36.861 -14.549  -4.199  1.00  0.00     0.352 A 
HETATM   28  C   UNL     1      40.941 -15.548  -2.633  1.00  0.00     0.012 A 
ENDBRANCH  19  20
ENDBRANCH  16  19
ENDBRANCH   2  15
BRANCH   1  29
HETATM   29  C   UNL     1      42.360 -16.786   2.669  1.00  0.00     0.043 A 
HETATM   30  C   UNL     1      42.907 -17.197   1.449  1.00  0.00     0.030 A 
HETATM   31  C   UNL     1      43.671 -18.369   1.366  1.00  0.00     0.009 A 
HETATM   32  C   UNL     1      43.881 -19.169   2.495  1.00  0.00    -0.058 A 
HETATM   33  C   UNL     1      43.304 -18.780   3.706  1.00  0.00     0.009 A 
HETATM   34  C   UNL     1      42.553 -17.606   3.789  1.00  0.00     0.030 A 
BRANCH  32  35
HETATM   35  C   UNL     1      44.683 -20.442   2.408  1.00  0.00     0.034 C 
HETATM   36  C   UNL     1      43.878 -21.594   1.823  1.00  0.00     0.010 C 
ENDBRANCH  32  35
ENDBRANCH   1  29
TORSDOF 6
ENDMDL
MODEL 2
REMARK VINA RESULT:      -9.6      2.411      7.273
REMARK  6 active torsions:
REMARK  status: ('A' for Active; 'I' for Inactive)
REMARK    1  A    between atoms: C_2  and  C_3 
REMARK    2  A    between atoms: C_6  and  N_7 
REMARK    3  A    between atoms: C_8  and  O_9 
REMARK    4  A    between atoms: C_8  and  C_10 
REMARK       I    between atoms: C_10  and  N_11 
REMARK    5  A    between atoms: N_11  and  C_12 
REMARK    6  A    between atoms: C_12  and  C_13 
ROOT
HETATM    1  N   UNL     1      41.267 -13.972   1.112  1.00  0.00    -0.254 N 
HETATM    2  C   UNL     1      41.316 -15.060   2.106  1.00  0.00     0.256 C 
HETATM    3  C   UNL     1      41.241 -14.516   3.517  1.00  0.00     0.034 A 
HETATM    4  C   UNL     1      41.816 -13.272   3.752  1.00  0.00     0.048 A 
HETATM    5  N   UNL     1      42.311 -12.553   2.667  1.00  0.00    -0.308 N 
HETATM    6  C   UNL     1      42.015 -12.823   1.356  1.00  0.00     0.330 C 
HETATM    7  O   UNL     1      42.391 -12.021   0.503  1.00  0.00    -0.246 OA
HETATM    8  C   UNL     1      40.713 -15.235   4.600  1.00  0.00     0.015 A 
HETATM    9  C   UNL     1      40.754 -14.700   5.887  1.00  0.00     0.001 A 
HETATM   10  C   UNL     1      41.340 -13.454   6.107  1.00  0.00     0.002 A 
HETATM   11  C   UNL     1      41.882 -12.740   5.038  1.00  0.00     0.030 A 
HETATM   12  H   UNL     1      42.749 -11.654   2.821  1.00  0.00     0.170 HD
ENDROOT
BRANCH   2  13
HETATM   13  O   UNL     1      40.221 -15.968   1.946  1.00  0.00    -0.359 OA
HETATM   14  H   UNL     1      39.426 -15.414   1.873  1.00  0.00     0.213 HD
ENDBRANCH   2  13
BRANCH   2  15
HETATM   15  C   UNL     1      42.661 -15.917   1.966  1.00  0.00     0.279 C 
HETATM   16  N   UNL     1      42.553 -17.197   1.446  1.00  0.00    -0.352 N 
HETATM   17  H   UNL     1      41.670 -17.673   1.572  1.00  0.00     0.162 HD
HETATM   18  O   UNL     1      43.760 -15.448   2.274  1.00  0.00    -0.268 OA
BRANCH  16  19
HETATM   19  C   UNL     1      43.734 -18.013   1.275  1.00  0.00     0.161 C 
BRANCH  19  20
HETATM   20  C   UNL     1      44.046 -18.936   2.434  1.00  0.00    -0.038 A 
HETATM   21  C   UNL     1      44.195 -20.309   2.153  1.00  0.00     0.048 A 
HETATM   22  C   UNL     1      44.438 -21.176   3.197  1.00  0.00     0.105 A 
HETATM   23  C   UNL     1      44.540 -20.737   4.493  1.00  0.00     0.105 A 
HETATM   24  O   UNL     1      44.590 -22.524   3.092  1.00  0.00    -0.323 OA
HETATM   25  O   UNL     1      44.773 -21.750   5.369  1.00  0.00    -0.323 OA
HETATM   26  C   UNL     1      44.402 -19.406   4.815  1.00  0.00     0.040 A 
HETATM   27  C   UNL     1      44.781 -22.883   4.476  1.00  0.00     0.352 A 
HETATM   28  C   UNL     1      44.143 -18.501   3.776  1.00  0.00     0.012 A 
ENDBRANCH  19  20
ENDBRANCH  16  19
ENDBRANCH   2  15
BRANCH   1  29
HETATM   29  C   UNL     1      40.608 -14.156  -0.143  1.00  0.00     0.043 A 
HETATM   30  C   UNL     1      39.302 -13.710  -0.367  1.00  0.00     0.030 A 
HETATM   31  C   UNL     1      38.670 -13.938  -1.597  1.00  0.00     0.009 A 
HETATM   32  C   UNL     1      39.321 -14.639  -2.618  1.00  0.00    -0.058 A 
HETATM   33  C   UNL     1      40.612 -15.118  -2.383  1.00  0.00     0.009 A 
HETATM   34  C   UNL     1      41.244 -14.880  -1.161  1.00  0.00     0.030 A 
BRANCH  32  35
HETATM   35  C   UNL     1      38.639 -14.906  -3.936  1.00  0.00     0.034 C 
HETATM   36  C   UNL     1      38.872 -16.328  -4.430  1.00  0.00     0.010 C 
ENDBRANCH  32  35
ENDBRANCH   1  29
TORSDOF 6
ENDMDL
MODEL 3
REMARK VINA RESULT:      -9.6      2.935      7.743
REMARK  6 active torsions:
REMARK  status: ('A' for Active; 'I' for Inactive)
REMARK    1  A    between atoms: C_2  and  C_3 
REMARK    2  A    between atoms: C_6  and  N_7 
REMARK    3  A    between atoms: C_8  and  O_9 
REMARK    4  A    between atoms: C_8  and  C_10 
REMARK       I    between atoms: C_10  and  N_11 
REMARK    5  A    between atoms: N_11  and  C_12 
REMARK    6  A    between atoms: C_12  and  C_13 
ROOT
HETATM    1  N   UNL     1      41.244 -14.243   2.528  1.00  0.00    -0.254 N 
HETATM    2  C   UNL     1      41.169 -15.587   3.128  1.00  0.00     0.256 C 
HETATM    3  C   UNL     1      41.915 -15.641   4.445  1.00  0.00     0.034 A 
HETATM    4  C   UNL     1      43.040 -14.833   4.573  1.00  0.00     0.048 A 
HETATM    5  N   UNL     1      43.341 -13.944   3.544  1.00  0.00    -0.308 N 
HETATM    6  C   UNL     1      42.466 -13.577   2.555  1.00  0.00     0.330 C 
HETATM    7  O   UNL     1      42.802 -12.668   1.798  1.00  0.00    -0.246 OA
HETATM    8  C   UNL     1      41.588 -16.520   5.489  1.00  0.00     0.015 A 
HETATM    9  C   UNL     1      42.373 -16.568   6.640  1.00  0.00     0.001 A 
HETATM   10  C   UNL     1      43.502 -15.758   6.750  1.00  0.00     0.002 A 
HETATM   11  C   UNL     1      43.844 -14.893   5.710  1.00  0.00     0.030 A 
HETATM   12  H   UNL     1      44.166 -13.362   3.612  1.00  0.00     0.170 HD
ENDROOT
BRANCH   2  13
HETATM   13  O   UNL     1      39.816 -15.969   3.396  1.00  0.00    -0.359 OA
HETATM   14  H   UNL     1      39.660 -15.754   4.332  1.00  0.00     0.213 HD
ENDBRANCH   2  13
BRANCH   2  15
HETATM   15  C   UNL     1      41.785 -16.697   2.153  1.00  0.00     0.279 C 
HETATM   16  N   UNL     1      43.113 -17.045   2.338  1.00  0.00    -0.352 N 
HETATM   17  H   UNL     1      43.721 -16.347   2.745  1.00  0.00     0.162 HD
HETATM   18  O   UNL     1      41.098 -17.251   1.291  1.00  0.00    -0.268 OA
BRANCH  16  19
HETATM   19  C   UNL     1      43.722 -18.056   1.503  1.00  0.00     0.161 C 
BRANCH  19  20
HETATM   20  C   UNL     1      43.938 -19.395   2.174  1.00  0.00    -0.038 A 
HETATM   21  C   UNL     1      44.211 -19.395   3.557  1.00  0.00     0.048 A 
HETATM   22  C   UNL     1      44.454 -20.599   4.184  1.00  0.00     0.105 A 
HETATM   23  C   UNL     1      44.433 -21.788   3.500  1.00  0.00     0.105 A 
HETATM   24  O   UNL     1      44.745 -20.764   5.503  1.00  0.00    -0.323 OA
HETATM   25  O   UNL     1      44.704 -22.854   4.299  1.00  0.00    -0.323 OA
HETATM   26  C   UNL     1      44.170 -21.837   2.149  1.00  0.00     0.040 A 
HETATM   27  C   UNL     1      44.923 -22.194   5.564  1.00  0.00     0.352 A 
HETATM   28  C   UNL     1      43.931 -20.628   1.482  1.00  0.00     0.012 A 
ENDBRANCH  19  20
ENDBRANCH  16  19
ENDBRANCH   2  15
BRANCH   1  29
HETATM   29  C   UNL     1      40.143 -13.709   1.790  1.00  0.00     0.043 A 
HETATM   30  C   UNL     1      39.875 -14.093   0.473  1.00  0.00     0.030 A 
HETATM   31  C   UNL     1      38.810 -13.523  -0.237  1.00  0.00     0.009 A 
HETATM   32  C   UNL     1      38.007 -12.536   0.347  1.00  0.00    -0.058 A 
HETATM   33  C   UNL     1      38.295 -12.124   1.650  1.00  0.00     0.009 A 
HETATM   34  C   UNL     1      39.350 -12.701   2.358  1.00  0.00     0.030 A 
BRANCH  32  35
HETATM   35  C   UNL     1      36.873 -11.903  -0.418  1.00  0.00     0.034 C 
HETATM   36  C   UNL     1      35.771 -11.390   0.500  1.00  0.00     0.010 C 
ENDBRANCH  32  35
ENDBRANCH   1  29
TORSDOF 6
ENDMDL
MODEL 4
REMARK VINA RESULT:      -9.5      2.307      6.839
REMARK  6 active torsions:
REMARK  status: ('A' for Active; 'I' for Inactive)
REMARK    1  A    between atoms: C_2  and  C_3 
REMARK    2  A    between atoms: C_6  and  N_7 
REMARK    3  A    between atoms: C_8  and  O_9 
REMARK    4  A    between atoms: C_8  and  C_10 
REMARK       I    between atoms: C_10  and  N_11 
REMARK    5  A    between atoms: N_11  and  C_12 
REMARK    6  A    between atoms: C_12  and  C_13 
ROOT
HETATM    1  N   UNL     1      41.234 -13.720   1.706  1.00  0.00    -0.254 N 
HETATM    2  C   UNL     1      41.060 -14.492   2.949  1.00  0.00     0.256 C 
HETATM    3  C   UNL     1      40.646 -13.594   4.096  1.00  0.00     0.034 A 
HETATM    4  C   UNL     1      41.134 -12.292   4.095  1.00  0.00     0.048 A 
HETATM    5  N   UNL     1      41.863 -11.857   2.991  1.00  0.00    -0.308 N 
HETATM    6  C   UNL     1      41.889 -12.494   1.778  1.00  0.00     0.330 C 
HETATM    7  O   UNL     1      42.447 -11.925   0.841  1.00  0.00    -0.246 OA
HETATM    8  C   UNL     1      39.886 -14.033   5.191  1.00  0.00     0.015 A 
HETATM    9  C   UNL     1      39.614 -13.168   6.251  1.00  0.00     0.001 A 
HETATM   10  C   UNL     1      40.116 -11.868   6.238  1.00  0.00     0.002 A 
HETATM   11  C   UNL     1      40.887 -11.429   5.161  1.00  0.00     0.030 A 
HETATM   12  H   UNL     1      42.242 -10.918   2.981  1.00  0.00     0.170 HD
ENDROOT
BRANCH   2  13
HETATM   13  O   UNL     1      40.044 -15.491   2.810  1.00  0.00    -0.359 OA
HETATM   14  H   UNL     1      40.199 -15.907   1.945  1.00  0.00     0.213 HD
ENDBRANCH   2  13
BRANCH   2  15
HETATM   15  C   UNL     1      42.409 -15.248   3.361  1.00  0.00     0.279 C 
HETATM   16  N   UNL     1      42.289 -16.443   4.051  1.00  0.00    -0.352 N 
HETATM   17  H   UNL     1      41.456 -16.570   4.611  1.00  0.00     0.162 HD
HETATM   18  O   UNL     1      43.518 -14.806   3.046  1.00  0.00    -0.268 OA
BRANCH  16  19
HETATM   19  C   UNL     1      43.470 -17.184   4.432  1.00  0.00     0.161 C 
BRANCH  19  20
HETATM   20  C   UNL     1      43.632 -18.524   3.750  1.00  0.00    -0.038 A 
HETATM   21  C   UNL     1      44.189 -19.577   4.503  1.00  0.00     0.048 A 
HETATM   22  C   UNL     1      44.386 -20.798   3.892  1.00  0.00     0.105 A 
HETATM   23  C   UNL     1      44.052 -21.010   2.578  1.00  0.00     0.105 A 
HETATM   24  O   UNL     1      44.924 -21.902   4.476  1.00  0.00    -0.323 OA
HETATM   25  O   UNL     1      44.333 -22.275   2.168  1.00  0.00    -0.323 OA
HETATM   26  C   UNL     1      43.505 -20.012   1.803  1.00  0.00     0.040 A 
HETATM   27  C   UNL     1      44.906 -22.829   3.371  1.00  0.00     0.352 A 
HETATM   28  C   UNL     1      43.303 -18.757   2.394  1.00  0.00     0.012 A 
ENDBRANCH  19  20
ENDBRANCH  16  19
ENDBRANCH   2  15
BRANCH   1  29
HETATM   29  C   UNL     1      40.894 -14.286   0.439  1.00  0.00     0.043 A 
HETATM   30  C   UNL     1      41.640 -15.318  -0.138  1.00  0.00     0.030 A 
HETATM   31  C   UNL     1      41.302 -15.827  -1.399  1.00  0.00     0.009 A 
HETATM   32  C   UNL     1      40.228 -15.297  -2.122  1.00  0.00    -0.058 A 
HETATM   33  C   UNL     1      39.503 -14.241  -1.564  1.00  0.00     0.009 A 
HETATM   34  C   UNL     1      39.835 -13.743  -0.303  1.00  0.00     0.030 A 
BRANCH  32  35
HETATM   35  C   UNL     1      39.873 -15.825  -3.489  1.00  0.00     0.034 C 
HETATM   36  C   UNL     1      38.422 -15.545  -3.858  1.00  0.00     0.010 C 
ENDBRANCH  32  35
ENDBRANCH   1  29
TORSDOF 6
ENDMDL
MODEL 5
REMARK VINA RESULT:      -9.4      4.318      8.431
REMARK  6 active torsions:
REMARK  status: ('A' for Active; 'I' for Inactive)
REMARK    1  A    between atoms: C_2  and  C_3 
REMARK    2  A    between atoms: C_6  and  N_7 
REMARK    3  A    between atoms: C_8  and  O_9 
REMARK    4  A    between atoms: C_8  and  C_10 
REMARK       I    between atoms: C_10  and  N_11 
REMARK    5  A    between atoms: N_11  and  C_12 
REMARK    6  A    between atoms: C_12  and  C_13 
ROOT
HETATM    1  N   UNL     1      42.967 -15.954   4.418  1.00  0.00    -0.254 N 
HETATM    2  C   UNL     1      42.535 -15.087   5.528  1.00  0.00     0.256 C 
HETATM    3  C   UNL     1      41.382 -14.198   5.111  1.00  0.00     0.034 A 
HETATM    4  C   UNL     1      41.349 -13.777   3.786  1.00  0.00     0.048 A 
HETATM    5  N   UNL     1      42.295 -14.289   2.902  1.00  0.00    -0.308 N 
HETATM    6  C   UNL     1      43.067 -15.395   3.146  1.00  0.00     0.330 C 
HETATM    7  O   UNL     1      43.752 -15.833   2.223  1.00  0.00    -0.246 OA
HETATM    8  C   UNL     1      40.415 -13.710   6.003  1.00  0.00     0.015 A 
HETATM    9  C   UNL     1      39.429 -12.828   5.559  1.00  0.00     0.001 A 
HETATM   10  C   UNL     1      39.414 -12.410   4.230  1.00  0.00     0.002 A 
HETATM   11  C   UNL     1      40.383 -12.877   3.340  1.00  0.00     0.030 A 
HETATM   12  H   UNL     1      42.298 -13.979   1.939  1.00  0.00     0.170 HD
ENDROOT
BRANCH   2  13
HETATM   13  O   UNL     1      42.089 -15.854   6.651  1.00  0.00    -0.359 OA
HETATM   14  H   UNL     1      42.318 -15.331   7.438  1.00  0.00     0.213 HD
ENDBRANCH   2  13
BRANCH   2  15
HETATM   15  C   UNL     1      43.731 -14.155   6.041  1.00  0.00     0.279 C 
HETATM   16  N   UNL     1      43.913 -14.043   7.410  1.00  0.00    -0.352 N 
HETATM   17  H   UNL     1      43.099 -14.177   7.996  1.00  0.00     0.162 HD
HETATM   18  O   UNL     1      44.488 -13.585   5.252  1.00  0.00    -0.268 OA
BRANCH  16  19
HETATM   19  C   UNL     1      44.989 -13.233   7.936  1.00  0.00     0.161 C 
BRANCH  19  20
HETATM   20  C   UNL     1      44.576 -12.230   8.990  1.00  0.00    -0.038 A 
HETATM   21  C   UNL     1      43.374 -11.524   8.786  1.00  0.00     0.048 A 
HETATM   22  C   UNL     1      42.997 -10.573   9.711  1.00  0.00     0.105 A 
HETATM   23  C   UNL     1      43.759 -10.303  10.820  1.00  0.00     0.105 A 
HETATM   24  O   UNL     1      41.879  -9.802   9.648  1.00  0.00    -0.323 OA
HETATM   25  O   UNL     1      43.216  -9.330  11.599  1.00  0.00    -0.323 OA
HETATM   26  C   UNL     1      44.940 -10.967  11.063  1.00  0.00     0.040 A 
HETATM   27  C   UNL     1      42.035  -9.001  10.838  1.00  0.00     0.352 A 
HETATM   28  C   UNL     1      45.355 -11.931  10.134  1.00  0.00     0.012 A 
ENDBRANCH  19  20
ENDBRANCH  16  19
ENDBRANCH   2  15
BRANCH   1  29
HETATM   29  C   UNL     1      43.434 -17.282   4.664  1.00  0.00     0.043 A 
HETATM   30  C   UNL     1      44.433 -17.555   5.603  1.00  0.00     0.030 A 
HETATM   31  C   UNL     1      44.895 -18.864   5.795  1.00  0.00     0.009 A 
HETATM   32  C   UNL     1      44.388 -19.923   5.034  1.00  0.00    -0.058 A 
HETATM   33  C   UNL     1      43.415 -19.646   4.069  1.00  0.00     0.009 A 
HETATM   34  C   UNL     1      42.949 -18.343   3.887  1.00  0.00     0.030 A 
BRANCH  32  35
HETATM   35  C   UNL     1      44.896 -21.330   5.220  1.00  0.00     0.034 C 
HETATM   36  C   UNL     1      44.616 -22.211   4.011  1.00  0.00     0.010 C 
ENDBRANCH  32  35
ENDBRANCH   1  29
TORSDOF 6
ENDMDL
MODEL 6
REMARK VINA RESULT:      -9.3      2.327      3.114
REMARK  6 active torsions:
REMARK  status: ('A' for Active; 'I' for Inactive)
REMARK    1  A    between atoms: C_2  and  C_3 
REMARK    2  A    between atoms: C_6  and  N_7 
REMARK    3  A    between atoms: C_8  and  O_9 
REMARK    4  A    between atoms: C_8  and  C_10 
REMARK       I    between atoms: C_10  and  N_11 
REMARK    5  A    between atoms: N_11  and  C_12 
REMARK    6  A    between atoms: C_12  and  C_13 
ROOT
HETATM    1  N   UNL     1      41.811 -16.062   5.107  1.00  0.00    -0.254 N 
HETATM    2  C   UNL     1      41.929 -14.943   4.155  1.00  0.00     0.256 C 
HETATM    3  C   UNL     1      41.571 -13.626   4.811  1.00  0.00     0.034 A 
HETATM    4  C   UNL     1      40.600 -13.653   5.806  1.00  0.00     0.048 A 
HETATM    5  N   UNL     1      40.108 -14.888   6.222  1.00  0.00    -0.308 N 
HETATM    6  C   UNL     1      40.707 -16.091   5.955  1.00  0.00     0.330 C 
HETATM    7  O   UNL     1      40.256 -17.093   6.509  1.00  0.00    -0.246 OA
HETATM    8  C   UNL     1      42.094 -12.388   4.406  1.00  0.00     0.015 A 
HETATM    9  C   UNL     1      41.653 -11.208   5.005  1.00  0.00     0.001 A 
HETATM   10  C   UNL     1      40.673 -11.252   5.995  1.00  0.00     0.002 A 
HETATM   11  C   UNL     1      40.136 -12.477   6.393  1.00  0.00     0.030 A 
HETATM   12  H   UNL     1      39.387 -14.925   6.931  1.00  0.00     0.170 HD
ENDROOT
BRANCH   2  13
HETATM   13  O   UNL     1      43.265 -14.815   3.658  1.00  0.00    -0.359 OA
HETATM   14  H   UNL     1      43.209 -14.206   2.902  1.00  0.00     0.213 HD
ENDBRANCH   2  13
BRANCH   2  15
HETATM   15  C   UNL     1      40.974 -15.152   2.888  1.00  0.00     0.279 C 
HETATM   16  N   UNL     1      41.560 -15.582   1.709  1.00  0.00    -0.352 N 
HETATM   17  H   UNL     1      42.534 -15.348   1.565  1.00  0.00     0.162 HD
HETATM   18  O   UNL     1      39.756 -14.973   2.962  1.00  0.00    -0.268 OA
BRANCH  16  19
HETATM   19  C   UNL     1      40.748 -15.809   0.535  1.00  0.00     0.161 C 
BRANCH  19  20
HETATM   20  C   UNL     1      41.130 -14.985  -0.676  1.00  0.00    -0.038 A 
HETATM   21  C   UNL     1      41.678 -13.707  -0.449  1.00  0.00     0.048 A 
HETATM   22  C   UNL     1      41.995 -12.919  -1.535  1.00  0.00     0.105 A 
HETATM   23  C   UNL     1      41.794 -13.349  -2.823  1.00  0.00     0.105 A 
HETATM   24  O   UNL     1      42.515 -11.663  -1.482  1.00  0.00    -0.323 OA
HETATM   25  O   UNL     1      42.164 -12.421  -3.745  1.00  0.00    -0.323 OA
HETATM   26  C   UNL     1      41.262 -14.589  -3.093  1.00  0.00     0.040 A 
HETATM   27  C   UNL     1      42.600 -11.346  -2.887  1.00  0.00     0.352 A 
HETATM   28  C   UNL     1      40.919 -15.408  -2.009  1.00  0.00     0.012 A 
ENDBRANCH  19  20
ENDBRANCH  16  19
ENDBRANCH   2  15
BRANCH   1  29
HETATM   29  C   UNL     1      42.710 -17.171   5.049  1.00  0.00     0.043 A 
HETATM   30  C   UNL     1      43.791 -17.297   5.926  1.00  0.00     0.030 A 
HETATM   31  C   UNL     1      44.676 -18.378   5.821  1.00  0.00     0.009 A 
HETATM   32  C   UNL     1      44.515 -19.341   4.818  1.00  0.00    -0.058 A 
HETATM   33  C   UNL     1      43.457 -19.197   3.917  1.00  0.00     0.009 A 
HETATM   34  C   UNL     1      42.570 -18.125   4.032  1.00  0.00     0.030 A 
BRANCH  32  35
HETATM   35  C   UNL     1      45.476 -20.494   4.685  1.00  0.00     0.034 C 
HETATM   36  C   UNL     1      44.895 -21.797   5.218  1.00  0.00     0.010 C 
ENDBRANCH  32  35
ENDBRANCH   1  29
TORSDOF 6
ENDMDL
MODEL 7
REMARK VINA RESULT:      -9.3      2.384      7.563
REMARK  6 active torsions:
REMARK  status: ('A' for Active; 'I' for Inactive)
REMARK    1  A    between atoms: C_2  and  C_3 
REMARK    2  A    between atoms: C_6  and  N_7 
REMARK    3  A    between atoms: C_8  and  O_9 
REMARK    4  A    between atoms: C_8  and  C_10 
REMARK       I    between atoms: C_10  and  N_11 
REMARK    5  A    between atoms: N_11  and  C_12 
REMARK    6  A    between atoms: C_12  and  C_13 
ROOT
HETATM    1  N   UNL     1      40.011 -13.862   0.998  1.00  0.00    -0.254 N 
HETATM    2  C   UNL     1      41.314 -13.992   0.322  1.00  0.00     0.256 C 
HETATM    3  C   UNL     1      41.273 -13.392  -1.068  1.00  0.00     0.034 A 
HETATM    4  C   UNL     1      40.068 -13.469  -1.759  1.00  0.00     0.048 A 
HETATM    5  N   UNL     1      38.953 -13.975  -1.097  1.00  0.00    -0.308 N 
HETATM    6  C   UNL     1      38.858 -14.124   0.262  1.00  0.00     0.330 C 
HETATM    7  O   UNL     1      37.765 -14.436   0.732  1.00  0.00    -0.246 OA
HETATM    8  C   UNL     1      42.396 -12.857  -1.717  1.00  0.00     0.015 A 
HETATM    9  C   UNL     1      42.297 -12.397  -3.030  1.00  0.00     0.001 A 
HETATM   10  C   UNL     1      41.084 -12.488  -3.712  1.00  0.00     0.002 A 
HETATM   11  C   UNL     1      39.967 -13.034  -3.079  1.00  0.00     0.030 A 
HETATM   12  H   UNL     1      38.073 -14.056  -1.590  1.00  0.00     0.170 HD
ENDROOT
BRANCH   2  13
HETATM   13  O   UNL     1      42.350 -13.315   1.041  1.00  0.00    -0.359 OA
HETATM   14  H   UNL     1      41.928 -12.537   1.443  1.00  0.00     0.213 HD
ENDBRANCH   2  13
BRANCH   2  15
HETATM   15  C   UNL     1      41.755 -15.526   0.197  1.00  0.00     0.279 C 
HETATM   16  N   UNL     1      42.768 -15.971   1.031  1.00  0.00    -0.352 N 
HETATM   17  H   UNL     1      43.438 -15.285   1.350  1.00  0.00     0.162 HD
HETATM   18  O   UNL     1      41.194 -16.296  -0.587  1.00  0.00    -0.268 OA
BRANCH  16  19
HETATM   19  C   UNL     1      43.196 -17.351   0.980  1.00  0.00     0.161 C 
BRANCH  19  20
HETATM   20  C   UNL     1      43.522 -17.969   2.323  1.00  0.00    -0.038 A 
HETATM   21  C   UNL     1      44.026 -19.285   2.331  1.00  0.00     0.048 A 
HETATM   22  C   UNL     1      44.291 -19.886   3.543  1.00  0.00     0.105 A 
HETATM   23  C   UNL     1      44.080 -19.236   4.734  1.00  0.00     0.105 A 
HETATM   24  O   UNL     1      44.764 -21.149   3.718  1.00  0.00    -0.323 OA
HETATM   25  O   UNL     1      44.397 -20.004   5.809  1.00  0.00    -0.323 OA
HETATM   26  C   UNL     1      43.591 -17.950   4.775  1.00  0.00     0.040 A 
HETATM   27  C   UNL     1      44.808 -21.225   5.158  1.00  0.00     0.352 A 
HETATM   28  C   UNL     1      43.301 -17.317   3.559  1.00  0.00     0.012 A 
ENDBRANCH  19  20
ENDBRANCH  16  19
ENDBRANCH   2  15
BRANCH   1  29
HETATM   29  C   UNL     1      39.936 -13.638   2.407  1.00  0.00     0.043 A 
HETATM   30  C   UNL     1      40.129 -14.667   3.333  1.00  0.00     0.030 A 
HETATM   31  C   UNL     1      40.012 -14.424   4.709  1.00  0.00     0.009 A 
HETATM   32  C   UNL     1      39.674 -13.152   5.185  1.00  0.00    -0.058 A 
HETATM   33  C   UNL     1      39.445 -12.131   4.259  1.00  0.00     0.009 A 
HETATM   34  C   UNL     1      39.572 -12.373   2.891  1.00  0.00     0.030 A 
BRANCH  32  35
HETATM   35  C   UNL     1      39.525 -12.888   6.662  1.00  0.00     0.034 C 
HETATM   36  C   UNL     1      39.753 -11.424   7.013  1.00  0.00     0.010 C 
ENDBRANCH  32  35
ENDBRANCH   1  29
TORSDOF 6
ENDMDL
MODEL 8
REMARK VINA RESULT:      -9.1      3.196      7.258
REMARK  6 active torsions:
REMARK  status: ('A' for Active; 'I' for Inactive)
REMARK    1  A    between atoms: C_2  and  C_3 
REMARK    2  A    between atoms: C_6  and  N_7 
REMARK    3  A    between atoms: C_8  and  O_9 
REMARK    4  A    between atoms: C_8  and  C_10 
REMARK       I    between atoms: C_10  and  N_11 
REMARK    5  A    between atoms: N_11  and  C_12 
REMARK    6  A    between atoms: C_12  and  C_13 
ROOT
HETATM    1  N   UNL     1      41.966 -14.725   4.280  1.00  0.00    -0.254 N 
HETATM    2  C   UNL     1      42.340 -14.540   2.867  1.00  0.00     0.256 C 
HETATM    3  C   UNL     1      41.122 -14.264   2.010  1.00  0.00     0.034 A 
HETATM    4  C   UNL     1      39.927 -14.867   2.387  1.00  0.00     0.048 A 
HETATM    5  N   UNL     1      39.892 -15.581   3.583  1.00  0.00    -0.308 N 
HETATM    6  C   UNL     1      40.840 -15.492   4.569  1.00  0.00     0.330 C 
HETATM    7  O   UNL     1      40.612 -16.056   5.638  1.00  0.00    -0.246 OA
HETATM    8  C   UNL     1      41.161 -13.518   0.822  1.00  0.00     0.015 A 
HETATM    9  C   UNL     1      40.012 -13.376   0.042  1.00  0.00     0.001 A 
HETATM   10  C   UNL     1      38.825 -13.994   0.431  1.00  0.00     0.002 A 
HETATM   11  C   UNL     1      38.782 -14.751   1.602  1.00  0.00     0.030 A 
HETATM   12  H   UNL     1      39.036 -16.043   3.863  1.00  0.00     0.170 HD
ENDROOT
BRANCH   2  13
HETATM   13  O   UNL     1      43.231 -13.432   2.700  1.00  0.00    -0.359 OA
HETATM   14  H   UNL     1      42.728 -12.759   2.211  1.00  0.00     0.213 HD
ENDBRANCH   2  13
BRANCH   2  15
HETATM   15  C   UNL     1      43.083 -15.833   2.286  1.00  0.00     0.279 C 
HETATM   16  N   UNL     1      42.319 -16.967   2.067  1.00  0.00    -0.352 N 
HETATM   17  H   UNL     1      41.491 -17.083   2.637  1.00  0.00     0.162 HD
HETATM   18  O   UNL     1      44.285 -15.814   2.007  1.00  0.00    -0.268 OA
BRANCH  16  19
HETATM   19  C   UNL     1      42.928 -18.160   1.524  1.00  0.00     0.161 C 
BRANCH  19  20
HETATM   20  C   UNL     1      43.529 -19.095   2.551  1.00  0.00    -0.038 A 
HETATM   21  C   UNL     1      43.763 -20.429   2.162  1.00  0.00     0.048 A 
HETATM   22  C   UNL     1      44.270 -21.312   3.092  1.00  0.00     0.105 A 
HETATM   23  C   UNL     1      44.554 -20.923   4.377  1.00  0.00     0.105 A 
HETATM   24  O   UNL     1      44.535 -22.628   2.877  1.00  0.00    -0.323 OA
HETATM   25  O   UNL     1      45.037 -21.943   5.134  1.00  0.00    -0.323 OA
HETATM   26  C   UNL     1      44.343 -19.631   4.802  1.00  0.00     0.040 A 
HETATM   27  C   UNL     1      45.001 -23.027   4.183  1.00  0.00     0.352 A 
HETATM   28  C   UNL     1      43.818 -18.713   3.882  1.00  0.00     0.012 A 
ENDBRANCH  19  20
ENDBRANCH  16  19
ENDBRANCH   2  15
BRANCH   1  29
HETATM   29  C   UNL     1      42.824 -14.276   5.330  1.00  0.00     0.043 A 
HETATM   30  C   UNL     1      43.894 -15.046   5.795  1.00  0.00     0.030 A 
HETATM   31  C   UNL     1      44.696 -14.594   6.852  1.00  0.00     0.009 A 
HETATM   32  C   UNL     1      44.428 -13.375   7.484  1.00  0.00    -0.058 A 
HETATM   33  C   UNL     1      43.336 -12.620   7.045  1.00  0.00     0.009 A 
HETATM   34  C   UNL     1      42.546 -13.068   5.986  1.00  0.00     0.030 A 
BRANCH  32  35
HETATM   35  C   UNL     1      45.273 -12.892   8.635  1.00  0.00     0.034 C 
HETATM   36  C   UNL     1      46.510 -12.137   8.168  1.00  0.00     0.010 C 
ENDBRANCH  32  35
ENDBRANCH   1  29
TORSDOF 6
ENDMDL
MODEL 9
REMARK VINA RESULT:      -8.9      2.211      7.404
REMARK  6 active torsions:
REMARK  status: ('A' for Active; 'I' for Inactive)
REMARK    1  A    between atoms: C_2  and  C_3 
REMARK    2  A    between atoms: C_6  and  N_7 
REMARK    3  A    between atoms: C_8  and  O_9 
REMARK    4  A    between atoms: C_8  and  C_10 
REMARK       I    between atoms: C_10  and  N_11 
REMARK    5  A    between atoms: N_11  and  C_12 
REMARK    6  A    between atoms: C_12  and  C_13 
ROOT
HETATM    1  N   UNL     1      40.696 -13.887   0.870  1.00  0.00    -0.254 N 
HETATM    2  C   UNL     1      40.492 -15.000   1.815  1.00  0.00     0.256 C 
HETATM    3  C   UNL     1      40.841 -14.588   3.229  1.00  0.00     0.034 A 
HETATM    4  C   UNL     1      41.864 -13.659   3.388  1.00  0.00     0.048 A 
HETATM    5  N   UNL     1      42.417 -13.078   2.250  1.00  0.00    -0.308 N 
HETATM    6  C   UNL     1      41.844 -13.111   1.005  1.00  0.00     0.330 C 
HETATM    7  O   UNL     1      42.356 -12.429   0.119  1.00  0.00    -0.246 OA
HETATM    8  C   UNL     1      40.258 -15.158   4.371  1.00  0.00     0.015 A 
HETATM    9  C   UNL     1      40.691 -14.785   5.644  1.00  0.00     0.001 A 
HETATM   10  C   UNL     1      41.723 -13.858   5.786  1.00  0.00     0.002 A 
HETATM   11  C   UNL     1      42.320 -13.299   4.655  1.00  0.00     0.030 A 
HETATM   12  H   UNL     1      43.176 -12.415   2.346  1.00  0.00     0.170 HD
ENDROOT
BRANCH   2  13
HETATM   13  O   UNL     1      39.127 -15.434   1.828  1.00  0.00    -0.359 OA
HETATM   14  H   UNL     1      38.720 -15.050   1.034  1.00  0.00     0.213 HD
ENDBRANCH   2  13
BRANCH   2  15
HETATM   15  C   UNL     1      41.384 -16.269   1.423  1.00  0.00     0.279 C 
HETATM   16  N   UNL     1      42.760 -16.139   1.520  1.00  0.00    -0.352 N 
HETATM   17  H   UNL     1      43.144 -15.209   1.415  1.00  0.00     0.162 HD
HETATM   18  O   UNL     1      40.871 -17.338   1.082  1.00  0.00    -0.268 OA
BRANCH  16  19
HETATM   19  C   UNL     1      43.620 -17.256   1.200  1.00  0.00     0.161 C 
BRANCH  19  20
HETATM   20  C   UNL     1      43.840 -18.237   2.331  1.00  0.00    -0.038 A 
HETATM   21  C   UNL     1      43.641 -17.773   3.647  1.00  0.00     0.048 A 
HETATM   22  C   UNL     1      43.876 -18.635   4.697  1.00  0.00     0.105 A 
HETATM   23  C   UNL     1      44.293 -19.927   4.492  1.00  0.00     0.105 A 
HETATM   24  O   UNL     1      43.745 -18.334   6.017  1.00  0.00    -0.323 OA
HETATM   25  O   UNL     1      44.474 -20.605   5.656  1.00  0.00    -0.323 OA
HETATM   26  C   UNL     1      44.499 -20.425   3.226  1.00  0.00     0.040 A 
HETATM   27  C   UNL     1      44.146 -19.582   6.620  1.00  0.00     0.352 A 
HETATM   28  C   UNL     1      44.279 -19.568   2.138  1.00  0.00     0.012 A 
ENDBRANCH  19  20
ENDBRANCH  16  19
ENDBRANCH   2  15
BRANCH   1  29
HETATM   29  C   UNL     1      39.832 -13.713  -0.255  1.00  0.00     0.043 A 
HETATM   30  C   UNL     1      38.720 -12.866  -0.212  1.00  0.00     0.030 A 
HETATM   31  C   UNL     1      37.870 -12.745  -1.320  1.00  0.00     0.009 A 
HETATM   32  C   UNL     1      38.099 -13.487  -2.483  1.00  0.00    -0.058 A 
HETATM   33  C   UNL     1      39.189 -14.361  -2.515  1.00  0.00     0.009 A 
HETATM   34  C   UNL     1      40.040 -14.472  -1.414  1.00  0.00     0.030 A 
BRANCH  32  35
HETATM   35  C   UNL     1      37.177 -13.377  -3.671  1.00  0.00     0.034 C 
HETATM   36  C   UNL     1      36.853 -14.735  -4.279  1.00  0.00     0.010 C 
ENDBRANCH  32  35
ENDBRANCH   1  29
TORSDOF 6
ENDMDL
MODEL 10
REMARK VINA RESULT:      -8.7      3.239      7.309
REMARK  6 active torsions:
REMARK  status: ('A' for Active; 'I' for Inactive)
REMARK    1  A    between atoms: C_2  and  C_3 
REMARK    2  A    between atoms: C_6  and  N_7 
REMARK    3  A    between atoms: C_8  and  O_9 
REMARK    4  A    between atoms: C_8  and  C_10 
REMARK       I    between atoms: C_10  and  N_11 
REMARK    5  A    between atoms: N_11  and  C_12 
REMARK    6  A    between atoms: C_12  and  C_13 
ROOT
HETATM    1  N   UNL     1      42.134 -15.088   2.978  1.00  0.00    -0.254 N 
HETATM    2  C   UNL     1      40.686 -14.871   3.147  1.00  0.00     0.256 C 
HETATM    3  C   UNL     1      40.208 -13.699   2.315  1.00  0.00     0.034 A 
HETATM    4  C   UNL     1      41.097 -12.648   2.124  1.00  0.00     0.048 A 
HETATM    5  N   UNL     1      42.400 -12.784   2.598  1.00  0.00    -0.308 N 
HETATM    6  C   UNL     1      42.971 -13.974   2.968  1.00  0.00     0.330 C 
HETATM    7  O   UNL     1      44.174 -13.981   3.221  1.00  0.00    -0.246 OA
HETATM    8  C   UNL     1      38.902 -13.583   1.816  1.00  0.00     0.015 A 
HETATM    9  C   UNL     1      38.511 -12.435   1.127  1.00  0.00     0.001 A 
HETATM   10  C   UNL     1      39.413 -11.387   0.950  1.00  0.00     0.002 A 
HETATM   11  C   UNL     1      40.709 -11.487   1.458  1.00  0.00     0.030 A 
HETATM   12  H   UNL     1      43.055 -12.022   2.485  1.00  0.00     0.170 HD
ENDROOT
BRANCH   2  13
HETATM   13  O   UNL     1      39.932 -16.015   2.736  1.00  0.00    -0.359 OA
HETATM   14  H   UNL     1      40.505 -16.783   2.898  1.00  0.00     0.213 HD
ENDBRANCH   2  13
BRANCH   2  15
HETATM   15  C   UNL     1      40.314 -14.588   4.678  1.00  0.00     0.279 C 
HETATM   16  N   UNL     1      39.883 -13.313   5.008  1.00  0.00    -0.352 N 
HETATM   17  H   UNL     1      40.207 -12.552   4.425  1.00  0.00     0.162 HD
HETATM   18  O   UNL     1      40.371 -15.478   5.531  1.00  0.00    -0.268 OA
BRANCH  16  19
HETATM   19  C   UNL     1      39.512 -13.001   6.369  1.00  0.00     0.161 C 
BRANCH  19  20
HETATM   20  C   UNL     1      40.043 -11.684   6.891  1.00  0.00    -0.038 A 
HETATM   21  C   UNL     1      39.522 -11.207   8.110  1.00  0.00     0.048 A 
HETATM   22  C   UNL     1      39.959  -9.988   8.586  1.00  0.00     0.105 A 
HETATM   23  C   UNL     1      40.884  -9.236   7.907  1.00  0.00     0.105 A 
HETATM   24  O   UNL     1      39.543  -9.388   9.734  1.00  0.00    -0.323 OA
HETATM   25  O   UNL     1      41.172  -8.069   8.540  1.00  0.00    -0.323 OA
HETATM   26  C   UNL     1      41.421  -9.662   6.713  1.00  0.00     0.040 A 
HETATM   27  C   UNL     1      40.301  -8.161   9.687  1.00  0.00     0.352 A 
HETATM   28  C   UNL     1      40.988 -10.892   6.198  1.00  0.00     0.012 A 
ENDBRANCH  19  20
ENDBRANCH  16  19
ENDBRANCH   2  15
BRANCH   1  29
HETATM   29  C   UNL     1      42.684 -16.406   2.995  1.00  0.00     0.043 A 
HETATM   30  C   UNL     1      42.990 -17.069   4.187  1.00  0.00     0.030 A 
HETATM   31  C   UNL     1      43.563 -18.347   4.169  1.00  0.00     0.009 A 
HETATM   32  C   UNL     1      43.867 -18.979   2.959  1.00  0.00    -0.058 A 
HETATM   33  C   UNL     1      43.596 -18.305   1.766  1.00  0.00     0.009 A 
HETATM   34  C   UNL     1      43.016 -17.035   1.786  1.00  0.00     0.030 A 
BRANCH  32  35
HETATM   35  C   UNL     1      44.503 -20.346   2.932  1.00  0.00     0.034 C 
HETATM   36  C   UNL     1      43.871 -21.258   1.890  1.00  0.00     0.010 C 
ENDBRANCH  32  35
ENDBRANCH   1  29
TORSDOF 6
ENDMDL
