MODEL 1
REMARK VINA RESULT:      -8.5      0.000      0.000
REMARK  7 active torsions:
REMARK  status: ('A' for Active; 'I' for Inactive)
REMARK    1  A    between atoms: O_2  and  C_3 
REMARK    2  A    between atoms: C_6  and  N_7 
REMARK       I    between atoms: N_7  and  C_8 
REMARK    3  A    between atoms: C_8  and  C_9 
REMARK    4  A    between atoms: C_9  and  C_10 
REMARK    5  A    between atoms: C_10  and  N_11 
REMARK    6  A    between atoms: C_10  and  C_20 
REMARK       I    between atoms: N_11  and  C_12 
REMARK    7  A    between atoms: C_12  and  C_13 
ROOT
HETATM    1  C   UNL     1      43.057 -16.006   3.363  1.00  0.00     0.126 C 
ENDROOT
BRANCH   1   2
HETATM    2  C   UNL     1      41.703 -15.425   2.967  1.00  0.00     0.133 C 
BRANCH   2   3
HETATM    3  C   UNL     1      41.167 -15.771   1.587  1.00  0.00     0.224 C 
HETATM    4  N   UNL     1      41.243 -14.791   0.621  1.00  0.00    -0.326 N 
HETATM    5  H   UNL     1      41.895 -14.025   0.756  1.00  0.00     0.169 HD
HETATM    6  O   UNL     1      40.623 -16.864   1.428  1.00  0.00    -0.273 OA
BRANCH   4   7
HETATM    7  C   UNL     1      40.581 -14.805  -0.629  1.00  0.00     0.052 A 
HETATM    8  C   UNL     1      41.001 -15.518  -1.750  1.00  0.00     0.149 A 
HETATM    9  N   UNL     1      40.327 -15.565  -2.929  1.00  0.00    -0.235 NA
HETATM   10  C   UNL     1      39.180 -14.862  -2.999  1.00  0.00     0.163 A 
HETATM   11  C   UNL     1      38.679 -14.111  -1.948  1.00  0.00     0.060 A 
HETATM   12  C   UNL     1      39.389 -14.088  -0.747  1.00  0.00     0.035 A 
BRANCH  10  13
HETATM   13  O   UNL     1      38.436 -14.870  -4.161  1.00  0.00    -0.339 OA
HETATM   14  C   UNL     1      37.032 -14.813  -3.920  1.00  0.00     0.211 C 
ENDBRANCH  10  13
ENDBRANCH   4   7
ENDBRANCH   2   3
ENDBRANCH   1   2
BRANCH   1  15
HETATM   15  N   UNL     1      43.061 -17.459   3.311  1.00  0.00    -0.348 N 
HETATM   16  C   UNL     1      43.871 -18.135   2.422  1.00  0.00     0.252 C 
HETATM   17  O   UNL     1      44.431 -17.603   1.472  1.00  0.00    -0.268 OA
HETATM   18  H   UNL     1      42.797 -17.950   4.156  1.00  0.00     0.163 HD
BRANCH  16  19
HETATM   19  C   UNL     1      44.059 -19.576   2.713  1.00  0.00     0.032 A 
HETATM   20  C   UNL     1      44.596 -19.998   3.936  1.00  0.00     0.017 A 
HETATM   21  C   UNL     1      44.791 -21.359   4.172  1.00  0.00     0.001 A 
HETATM   22  C   UNL     1      44.456 -22.294   3.190  1.00  0.00     0.000 A 
HETATM   23  C   UNL     1      43.912 -21.872   1.975  1.00  0.00     0.001 A 
HETATM   24  C   UNL     1      43.705 -20.513   1.737  1.00  0.00     0.017 A 
ENDBRANCH  16  19
ENDBRANCH   1  15
BRANCH   1  25
HETATM   25  C   UNL     1      43.474 -15.550   4.756  1.00  0.00    -0.035 A 
HETATM   26  C   UNL     1      43.672 -16.498   5.772  1.00  0.00     0.009 A 
HETATM   27  C   UNL     1      44.056 -16.102   7.054  1.00  0.00     0.001 A 
HETATM   28  C   UNL     1      44.240 -14.751   7.340  1.00  0.00     0.000 A 
HETATM   29  C   UNL     1      44.036 -13.796   6.348  1.00  0.00     0.001 A 
HETATM   30  C   UNL     1      43.655 -14.191   5.065  1.00  0.00     0.009 A 
ENDBRANCH   1  25
TORSDOF 7
ENDMDL
MODEL 2
REMARK VINA RESULT:      -8.4      1.521      2.083
REMARK  7 active torsions:
REMARK  status: ('A' for Active; 'I' for Inactive)
REMARK    1  A    between atoms: O_2  and  C_3 
REMARK    2  A    between atoms: C_6  and  N_7 
REMARK       I    between atoms: N_7  and  C_8 
REMARK    3  A    between atoms: C_8  and  C_9 
REMARK    4  A    between atoms: C_9  and  C_10 
REMARK    5  A    between atoms: C_10  and  N_11 
REMARK    6  A    between atoms: C_10  and  C_20 
REMARK       I    between atoms: N_11  and  C_12 
REMARK    7  A    between atoms: C_12  and  C_13 
ROOT
HETATM    1  C   UNL     1      42.580 -16.440   3.611  1.00  0.00     0.126 C 
ENDROOT
BRANCH   1   2
HETATM    2  C   UNL     1      41.111 -16.054   3.462  1.00  0.00     0.133 C 
BRANCH   2   3
HETATM    3  C   UNL     1      40.647 -15.566   2.099  1.00  0.00     0.224 C 
HETATM    4  N   UNL     1      41.576 -15.578   1.080  1.00  0.00    -0.326 N 
HETATM    5  H   UNL     1      42.397 -16.166   1.178  1.00  0.00     0.169 HD
HETATM    6  O   UNL     1      39.508 -15.112   1.997  1.00  0.00    -0.273 OA
BRANCH   4   7
HETATM    7  C   UNL     1      41.440 -14.935  -0.173  1.00  0.00     0.052 A 
HETATM    8  C   UNL     1      41.661 -13.578  -0.404  1.00  0.00     0.149 A 
HETATM    9  N   UNL     1      41.577 -12.983  -1.623  1.00  0.00    -0.235 NA
HETATM   10  C   UNL     1      41.250 -13.775  -2.662  1.00  0.00     0.163 A 
HETATM   11  C   UNL     1      40.999 -15.131  -2.540  1.00  0.00     0.060 A 
HETATM   12  C   UNL     1      41.100 -15.717  -1.277  1.00  0.00     0.035 A 
BRANCH  10  13
HETATM   13  O   UNL     1      41.157 -13.243  -3.932  1.00  0.00    -0.339 OA
HETATM   14  C   UNL     1      40.463 -11.999  -3.961  1.00  0.00     0.211 C 
ENDBRANCH  10  13
ENDBRANCH   4   7
ENDBRANCH   2   3
ENDBRANCH   1   2
BRANCH   1  15
HETATM   15  N   UNL     1      42.770 -17.881   3.573  1.00  0.00    -0.348 N 
HETATM   16  C   UNL     1      43.445 -18.481   2.531  1.00  0.00     0.252 C 
HETATM   17  O   UNL     1      43.700 -17.919   1.472  1.00  0.00    -0.268 OA
HETATM   18  H   UNL     1      42.772 -18.367   4.462  1.00  0.00     0.163 HD
BRANCH  16  19
HETATM   19  C   UNL     1      43.889 -19.872   2.785  1.00  0.00     0.032 A 
HETATM   20  C   UNL     1      43.748 -20.861   1.803  1.00  0.00     0.017 A 
HETATM   21  C   UNL     1      44.146 -22.170   2.080  1.00  0.00     0.001 A 
HETATM   22  C   UNL     1      44.678 -22.489   3.331  1.00  0.00     0.000 A 
HETATM   23  C   UNL     1      44.825 -21.500   4.305  1.00  0.00     0.001 A 
HETATM   24  C   UNL     1      44.438 -20.187   4.031  1.00  0.00     0.017 A 
ENDBRANCH  16  19
ENDBRANCH   1  15
BRANCH   1  25
HETATM   25  C   UNL     1      43.175 -15.885   4.900  1.00  0.00    -0.035 A 
HETATM   26  C   UNL     1      43.477 -14.518   4.999  1.00  0.00     0.009 A 
HETATM   27  C   UNL     1      44.020 -13.990   6.172  1.00  0.00     0.001 A 
HETATM   28  C   UNL     1      44.275 -14.823   7.259  1.00  0.00     0.000 A 
HETATM   29  C   UNL     1      43.993 -16.184   7.173  1.00  0.00     0.001 A 
HETATM   30  C   UNL     1      43.447 -16.713   6.002  1.00  0.00     0.009 A 
ENDBRANCH   1  25
TORSDOF 7
ENDMDL
MODEL 3
REMARK VINA RESULT:      -8.2      4.758      8.663
REMARK  7 active torsions:
REMARK  status: ('A' for Active; 'I' for Inactive)
REMARK    1  A    between atoms: O_2  and  C_3 
REMARK    2  A    between atoms: C_6  and  N_7 
REMARK       I    between atoms: N_7  and  C_8 
REMARK    3  A    between atoms: C_8  and  C_9 
REMARK    4  A    between atoms: C_9  and  C_10 
REMARK    5  A    between atoms: C_10  and  N_11 
REMARK    6  A    between atoms: C_10  and  C_20 
REMARK       I    between atoms: N_11  and  C_12 
REMARK    7  A    between atoms: C_12  and  C_13 
ROOT
HETATM    1  C   UNL     1      44.249 -14.619   6.888  1.00  0.00     0.126 C 
ENDROOT
BRANCH   1   2
HETATM    2  C   UNL     1      43.795 -16.053   7.147  1.00  0.00     0.133 C 
BRANCH   2   3
HETATM    3  C   UNL     1      44.449 -17.155   6.327  1.00  0.00     0.224 C 
HETATM    4  N   UNL     1      43.722 -17.667   5.274  1.00  0.00    -0.326 N 
HETATM    5  H   UNL     1      42.953 -17.120   4.903  1.00  0.00     0.169 HD
HETATM    6  O   UNL     1      45.543 -17.584   6.693  1.00  0.00    -0.273 OA
BRANCH   4   7
HETATM    7  C   UNL     1      44.021 -18.851   4.559  1.00  0.00     0.052 A 
HETATM    8  C   UNL     1      44.492 -20.033   5.129  1.00  0.00     0.149 A 
HETATM    9  N   UNL     1      44.726 -21.179   4.437  1.00  0.00    -0.235 NA
HETATM   10  C   UNL     1      44.486 -21.147   3.112  1.00  0.00     0.163 A 
HETATM   11  C   UNL     1      44.028 -20.022   2.446  1.00  0.00     0.060 A 
HETATM   12  C   UNL     1      43.789 -18.861   3.183  1.00  0.00     0.035 A 
BRANCH  10  13
HETATM   13  O   UNL     1      44.690 -22.276   2.346  1.00  0.00    -0.339 OA
HETATM   14  C   UNL     1      44.040 -22.212   1.080  1.00  0.00     0.211 C 
ENDBRANCH  10  13
ENDBRANCH   4   7
ENDBRANCH   2   3
ENDBRANCH   1   2
BRANCH   1  15
HETATM   15  N   UNL     1      44.083 -13.777   8.062  1.00  0.00    -0.348 N 
HETATM   16  C   UNL     1      44.998 -12.790   8.362  1.00  0.00     0.252 C 
HETATM   17  O   UNL     1      46.107 -12.709   7.846  1.00  0.00    -0.268 OA
HETATM   18  H   UNL     1      43.139 -13.648   8.406  1.00  0.00     0.163 HD
BRANCH  16  19
HETATM   19  C   UNL     1      44.537 -11.781   9.345  1.00  0.00     0.032 A 
HETATM   20  C   UNL     1      45.298 -11.488  10.484  1.00  0.00     0.017 A 
HETATM   21  C   UNL     1      44.826 -10.556  11.409  1.00  0.00     0.001 A 
HETATM   22  C   UNL     1      43.599  -9.923  11.199  1.00  0.00     0.000 A 
HETATM   23  C   UNL     1      42.847 -10.208  10.058  1.00  0.00     0.001 A 
HETATM   24  C   UNL     1      43.319 -11.133   9.125  1.00  0.00     0.017 A 
ENDBRANCH  16  19
ENDBRANCH   1  15
BRANCH   1  25
HETATM   25  C   UNL     1      43.500 -14.001   5.714  1.00  0.00    -0.035 A 
HETATM   26  C   UNL     1      43.969 -14.196   4.405  1.00  0.00     0.009 A 
HETATM   27  C   UNL     1      43.295 -13.640   3.316  1.00  0.00     0.001 A 
HETATM   28  C   UNL     1      42.150 -12.874   3.520  1.00  0.00     0.000 A 
HETATM   29  C   UNL     1      41.678 -12.660   4.813  1.00  0.00     0.001 A 
HETATM   30  C   UNL     1      42.348 -13.218   5.903  1.00  0.00     0.009 A 
ENDBRANCH   1  25
TORSDOF 7
ENDMDL
MODEL 4
REMARK VINA RESULT:      -8.1      1.639      4.957
REMARK  7 active torsions:
REMARK  status: ('A' for Active; 'I' for Inactive)
REMARK    1  A    between atoms: O_2  and  C_3 
REMARK    2  A    between atoms: C_6  and  N_7 
REMARK       I    between atoms: N_7  and  C_8 
REMARK    3  A    between atoms: C_8  and  C_9 
REMARK    4  A    between atoms: C_9  and  C_10 
REMARK    5  A    between atoms: C_10  and  N_11 
REMARK    6  A    between atoms: C_10  and  C_20 
REMARK       I    between atoms: N_11  and  C_12 
REMARK    7  A    between atoms: C_12  and  C_13 
ROOT
HETATM    1  C   UNL     1      42.652 -17.879   2.252  1.00  0.00     0.126 C 
ENDROOT
BRANCH   1   2
HETATM    2  C   UNL     1      42.831 -17.418   0.808  1.00  0.00     0.133 C 
BRANCH   2   3
HETATM    3  C   UNL     1      42.085 -16.167   0.373  1.00  0.00     0.224 C 
HETATM    4  N   UNL     1      41.327 -16.256  -0.774  1.00  0.00    -0.326 N 
HETATM    5  H   UNL     1      41.050 -17.175  -1.103  1.00  0.00     0.169 HD
HETATM    6  O   UNL     1      42.263 -15.129   1.012  1.00  0.00    -0.273 OA
BRANCH   4   7
HETATM    7  C   UNL     1      40.775 -15.168  -1.490  1.00  0.00     0.052 A 
HETATM    8  C   UNL     1      39.830 -14.276  -0.987  1.00  0.00     0.149 A 
HETATM    9  N   UNL     1      39.347 -13.203  -1.668  1.00  0.00    -0.235 NA
HETATM   10  C   UNL     1      39.823 -13.012  -2.914  1.00  0.00     0.163 A 
HETATM   11  C   UNL     1      40.755 -13.844  -3.511  1.00  0.00     0.060 A 
HETATM   12  C   UNL     1      41.239 -14.934  -2.786  1.00  0.00     0.035 A 
BRANCH  10  13
HETATM   13  O   UNL     1      39.387 -11.937  -3.661  1.00  0.00    -0.339 OA
HETATM   14  C   UNL     1      40.442 -11.290  -4.368  1.00  0.00     0.211 C 
ENDBRANCH  10  13
ENDBRANCH   4   7
ENDBRANCH   2   3
ENDBRANCH   1   2
BRANCH   1  15
HETATM   15  N   UNL     1      43.177 -16.908   3.201  1.00  0.00    -0.348 N 
HETATM   16  C   UNL     1      42.358 -16.326   4.145  1.00  0.00     0.252 C 
HETATM   17  O   UNL     1      41.134 -16.371   4.107  1.00  0.00    -0.268 OA
HETATM   18  H   UNL     1      44.163 -16.969   3.421  1.00  0.00     0.163 HD
BRANCH  16  19
HETATM   19  C   UNL     1      43.064 -15.656   5.263  1.00  0.00     0.032 A 
HETATM   20  C   UNL     1      43.527 -14.340   5.134  1.00  0.00     0.017 A 
HETATM   21  C   UNL     1      44.215 -13.743   6.190  1.00  0.00     0.001 A 
HETATM   22  C   UNL     1      44.443 -14.457   7.368  1.00  0.00     0.000 A 
HETATM   23  C   UNL     1      43.972 -15.765   7.499  1.00  0.00     0.001 A 
HETATM   24  C   UNL     1      43.275 -16.364   6.449  1.00  0.00     0.017 A 
ENDBRANCH  16  19
ENDBRANCH   1  15
BRANCH   1  25
HETATM   25  C   UNL     1      43.316 -19.229   2.494  1.00  0.00    -0.035 A 
HETATM   26  C   UNL     1      44.187 -19.395   3.582  1.00  0.00     0.009 A 
HETATM   27  C   UNL     1      44.803 -20.625   3.822  1.00  0.00     0.001 A 
HETATM   28  C   UNL     1      44.563 -21.703   2.972  1.00  0.00     0.000 A 
HETATM   29  C   UNL     1      43.711 -21.552   1.881  1.00  0.00     0.001 A 
HETATM   30  C   UNL     1      43.093 -20.324   1.642  1.00  0.00     0.009 A 
ENDBRANCH   1  25
TORSDOF 7
ENDMDL
MODEL 5
REMARK VINA RESULT:      -7.9      1.176      1.801
REMARK  7 active torsions:
REMARK  status: ('A' for Active; 'I' for Inactive)
REMARK    1  A    between atoms: O_2  and  C_3 
REMARK    2  A    between atoms: C_6  and  N_7 
REMARK       I    between atoms: N_7  and  C_8 
REMARK    3  A    between atoms: C_8  and  C_9 
REMARK    4  A    between atoms: C_9  and  C_10 
REMARK    5  A    between atoms: C_10  and  N_11 
REMARK    6  A    between atoms: C_10  and  C_20 
REMARK       I    between atoms: N_11  and  C_12 
REMARK    7  A    between atoms: C_12  and  C_13 
ROOT
HETATM    1  C   UNL     1      42.577 -16.204   3.617  1.00  0.00     0.126 C 
ENDROOT
BRANCH   1   2
HETATM    2  C   UNL     1      41.114 -15.781   3.519  1.00  0.00     0.133 C 
BRANCH   2   3
HETATM    3  C   UNL     1      40.745 -14.776   2.440  1.00  0.00     0.224 C 
HETATM    4  N   UNL     1      39.752 -15.142   1.556  1.00  0.00    -0.326 N 
HETATM    5  H   UNL     1      39.118 -15.888   1.821  1.00  0.00     0.169 HD
HETATM    6  O   UNL     1      41.400 -13.737   2.360  1.00  0.00    -0.273 OA
BRANCH   4   7
HETATM    7  C   UNL     1      39.440 -14.486   0.342  1.00  0.00     0.052 A 
HETATM    8  C   UNL     1      40.254 -14.466  -0.789  1.00  0.00     0.149 A 
HETATM    9  N   UNL     1      39.919 -13.876  -1.967  1.00  0.00    -0.235 NA
HETATM   10  C   UNL     1      38.718 -13.269  -2.020  1.00  0.00     0.163 A 
HETATM   11  C   UNL     1      37.839 -13.220  -0.951  1.00  0.00     0.060 A 
HETATM   12  C   UNL     1      38.206 -13.842   0.244  1.00  0.00     0.035 A 
BRANCH  10  13
HETATM   13  O   UNL     1      38.305 -12.657  -3.186  1.00  0.00    -0.339 OA
HETATM   14  C   UNL     1      37.152 -13.271  -3.755  1.00  0.00     0.211 C 
ENDBRANCH  10  13
ENDBRANCH   4   7
ENDBRANCH   2   3
ENDBRANCH   1   2
BRANCH   1  15
HETATM   15  N   UNL     1      42.737 -17.643   3.475  1.00  0.00    -0.348 N 
HETATM   16  C   UNL     1      43.619 -18.172   2.556  1.00  0.00     0.252 C 
HETATM   17  O   UNL     1      44.124 -17.525   1.647  1.00  0.00    -0.268 OA
HETATM   18  H   UNL     1      42.522 -18.211   4.286  1.00  0.00     0.163 HD
BRANCH  16  19
HETATM   19  C   UNL     1      43.959 -19.600   2.760  1.00  0.00     0.032 A 
HETATM   20  C   UNL     1      43.725 -20.545   1.752  1.00  0.00     0.017 A 
HETATM   21  C   UNL     1      44.026 -21.888   1.981  1.00  0.00     0.001 A 
HETATM   22  C   UNL     1      44.555 -22.286   3.210  1.00  0.00     0.000 A 
HETATM   23  C   UNL     1      44.796 -21.342   4.210  1.00  0.00     0.001 A 
HETATM   24  C   UNL     1      44.506 -19.995   3.983  1.00  0.00     0.017 A 
ENDBRANCH  16  19
ENDBRANCH   1  15
BRANCH   1  25
HETATM   25  C   UNL     1      43.202 -15.755   4.932  1.00  0.00    -0.035 A 
HETATM   26  C   UNL     1      43.585 -14.415   5.101  1.00  0.00     0.009 A 
HETATM   27  C   UNL     1      44.157 -13.982   6.300  1.00  0.00     0.001 A 
HETATM   28  C   UNL     1      44.360 -14.884   7.341  1.00  0.00     0.000 A 
HETATM   29  C   UNL     1      43.997 -16.220   7.186  1.00  0.00     0.001 A 
HETATM   30  C   UNL     1      43.422 -16.653   5.989  1.00  0.00     0.009 A 
ENDBRANCH   1  25
TORSDOF 7
ENDMDL
MODEL 6
REMARK VINA RESULT:      -7.6      2.362      2.920
REMARK  7 active torsions:
REMARK  status: ('A' for Active; 'I' for Inactive)
REMARK    1  A    between atoms: O_2  and  C_3 
REMARK    2  A    between atoms: C_6  and  N_7 
REMARK       I    between atoms: N_7  and  C_8 
REMARK    3  A    between atoms: C_8  and  C_9 
REMARK    4  A    between atoms: C_9  and  C_10 
REMARK    5  A    between atoms: C_10  and  N_11 
REMARK    6  A    between atoms: C_10  and  C_20 
REMARK       I    between atoms: N_11  and  C_12 
REMARK    7  A    between atoms: C_12  and  C_13 
ROOT
HETATM    1  C   UNL     1      41.815 -16.655   2.317  1.00  0.00     0.126 C 
ENDROOT
BRANCH   1   2
HETATM    2  C   UNL     1      40.775 -16.516   1.208  1.00  0.00     0.133 C 
BRANCH   2   3
HETATM    3  C   UNL     1      41.147 -15.673  -0.001  1.00  0.00     0.224 C 
HETATM    4  N   UNL     1      41.124 -14.304   0.158  1.00  0.00    -0.326 N 
HETATM    5  H   UNL     1      41.164 -13.924   1.098  1.00  0.00     0.169 HD
HETATM    6  O   UNL     1      41.364 -16.246  -1.069  1.00  0.00    -0.273 OA
BRANCH   4   7
HETATM    7  C   UNL     1      41.176 -13.347  -0.883  1.00  0.00     0.052 A 
HETATM    8  C   UNL     1      42.346 -12.809  -1.417  1.00  0.00     0.149 A 
HETATM    9  N   UNL     1      42.383 -11.929  -2.453  1.00  0.00    -0.235 NA
HETATM   10  C   UNL     1      41.199 -11.562  -2.979  1.00  0.00     0.163 A 
HETATM   11  C   UNL     1      39.980 -12.029  -2.517  1.00  0.00     0.060 A 
HETATM   12  C   UNL     1      39.972 -12.937  -1.457  1.00  0.00     0.035 A 
BRANCH  10  13
HETATM   13  O   UNL     1      41.160 -10.681  -4.040  1.00  0.00    -0.339 OA
HETATM   14  C   UNL     1      42.397 -10.606  -4.743  1.00  0.00     0.211 C 
ENDBRANCH  10  13
ENDBRANCH   4   7
ENDBRANCH   2   3
ENDBRANCH   1   2
BRANCH   1  15
HETATM   15  N   UNL     1      42.244 -18.033   2.490  1.00  0.00    -0.348 N 
HETATM   16  C   UNL     1      43.502 -18.439   2.096  1.00  0.00     0.252 C 
HETATM   17  O   UNL     1      44.234 -17.779   1.368  1.00  0.00    -0.268 OA
HETATM   18  H   UNL     1      41.801 -18.563   3.231  1.00  0.00     0.163 HD
BRANCH  16  19
HETATM   19  C   UNL     1      43.946 -19.740   2.650  1.00  0.00     0.032 A 
HETATM   20  C   UNL     1      43.848 -20.914   1.892  1.00  0.00     0.017 A 
HETATM   21  C   UNL     1      44.245 -22.131   2.449  1.00  0.00     0.001 A 
HETATM   22  C   UNL     1      44.733 -22.175   3.756  1.00  0.00     0.000 A 
HETATM   23  C   UNL     1      44.839 -21.003   4.507  1.00  0.00     0.001 A 
HETATM   24  C   UNL     1      44.452 -19.781   3.952  1.00  0.00     0.017 A 
ENDBRANCH  16  19
ENDBRANCH   1  15
BRANCH   1  25
HETATM   25  C   UNL     1      41.290 -16.119   3.644  1.00  0.00    -0.035 A 
HETATM   26  C   UNL     1      41.597 -16.790   4.838  1.00  0.00     0.009 A 
HETATM   27  C   UNL     1      41.129 -16.315   6.065  1.00  0.00     0.001 A 
HETATM   28  C   UNL     1      40.340 -15.167   6.113  1.00  0.00     0.000 A 
HETATM   29  C   UNL     1      40.016 -14.496   4.936  1.00  0.00     0.001 A 
HETATM   30  C   UNL     1      40.487 -14.969   3.710  1.00  0.00     0.009 A 
ENDBRANCH   1  25
TORSDOF 7
ENDMDL
MODEL 7
REMARK VINA RESULT:      -7.5      1.978      5.172
REMARK  7 active torsions:
REMARK  status: ('A' for Active; 'I' for Inactive)
REMARK    1  A    between atoms: O_2  and  C_3 
REMARK    2  A    between atoms: C_6  and  N_7 
REMARK       I    between atoms: N_7  and  C_8 
REMARK    3  A    between atoms: C_8  and  C_9 
REMARK    4  A    between atoms: C_9  and  C_10 
REMARK    5  A    between atoms: C_10  and  N_11 
REMARK    6  A    between atoms: C_10  and  C_20 
REMARK       I    between atoms: N_11  and  C_12 
REMARK    7  A    between atoms: C_12  and  C_13 
ROOT
HETATM    1  C   UNL     1      42.921 -18.121   2.472  1.00  0.00     0.126 C 
ENDROOT
BRANCH   1   2
HETATM    2  C   UNL     1      43.099 -17.668   1.025  1.00  0.00     0.133 C 
BRANCH   2   3
HETATM    3  C   UNL     1      42.052 -16.727   0.450  1.00  0.00     0.224 C 
HETATM    4  N   UNL     1      42.425 -15.413   0.262  1.00  0.00    -0.326 N 
HETATM    5  H   UNL     1      43.414 -15.191   0.219  1.00  0.00     0.169 HD
HETATM    6  O   UNL     1      40.916 -17.161   0.264  1.00  0.00    -0.273 OA
BRANCH   4   7
HETATM    7  C   UNL     1      41.551 -14.334  -0.006  1.00  0.00     0.052 A 
HETATM    8  C   UNL     1      40.879 -13.589   0.961  1.00  0.00     0.149 A 
HETATM    9  N   UNL     1      40.082 -12.521   0.692  1.00  0.00    -0.235 NA
HETATM   10  C   UNL     1      39.942 -12.181  -0.604  1.00  0.00     0.163 A 
HETATM   11  C   UNL     1      40.556 -12.861  -1.643  1.00  0.00     0.060 A 
HETATM   12  C   UNL     1      41.375 -13.949  -1.336  1.00  0.00     0.035 A 
BRANCH  10  13
HETATM   13  O   UNL     1      39.157 -11.101  -0.953  1.00  0.00    -0.339 OA
HETATM   14  C   UNL     1      38.787 -10.301   0.167  1.00  0.00     0.211 C 
ENDBRANCH  10  13
ENDBRANCH   4   7
ENDBRANCH   2   3
ENDBRANCH   1   2
BRANCH   1  15
HETATM   15  N   UNL     1      43.486 -17.167   3.413  1.00  0.00    -0.348 N 
HETATM   16  C   UNL     1      42.680 -16.270   4.083  1.00  0.00     0.252 C 
HETATM   17  O   UNL     1      41.520 -16.030   3.771  1.00  0.00    -0.268 OA
HETATM   18  H   UNL     1      44.358 -17.423   3.859  1.00  0.00     0.163 HD
BRANCH  16  19
HETATM   19  C   UNL     1      43.305 -15.620   5.260  1.00  0.00     0.032 A 
HETATM   20  C   UNL     1      43.506 -16.332   6.450  1.00  0.00     0.017 A 
HETATM   21  C   UNL     1      44.068 -15.688   7.553  1.00  0.00     0.001 A 
HETATM   22  C   UNL     1      44.423 -14.340   7.469  1.00  0.00     0.000 A 
HETATM   23  C   UNL     1      44.231 -13.635   6.280  1.00  0.00     0.001 A 
HETATM   24  C   UNL     1      43.678 -14.277   5.170  1.00  0.00     0.017 A 
ENDBRANCH  16  19
ENDBRANCH   1  15
BRANCH   1  25
HETATM   25  C   UNL     1      43.543 -19.491   2.708  1.00  0.00    -0.035 A 
HETATM   26  C   UNL     1      43.363 -20.513   1.762  1.00  0.00     0.009 A 
HETATM   27  C   UNL     1      43.928 -21.775   1.958  1.00  0.00     0.001 A 
HETATM   28  C   UNL     1      44.673 -22.035   3.106  1.00  0.00     0.000 A 
HETATM   29  C   UNL     1      44.851 -21.037   4.061  1.00  0.00     0.001 A 
HETATM   30  C   UNL     1      44.290 -19.773   3.864  1.00  0.00     0.009 A 
ENDBRANCH   1  25
TORSDOF 7
ENDMDL
MODEL 8
REMARK VINA RESULT:      -7.4      3.880      7.397
REMARK  7 active torsions:
REMARK  status: ('A' for Active; 'I' for Inactive)
REMARK    1  A    between atoms: O_2  and  C_3 
REMARK    2  A    between atoms: C_6  and  N_7 
REMARK       I    between atoms: N_7  and  C_8 
REMARK    3  A    between atoms: C_8  and  C_9 
REMARK    4  A    between atoms: C_9  and  C_10 
REMARK    5  A    between atoms: C_10  and  N_11 
REMARK    6  A    between atoms: C_10  and  C_20 
REMARK       I    between atoms: N_11  and  C_12 
REMARK    7  A    between atoms: C_12  and  C_13 
ROOT
HETATM    1  C   UNL     1      41.588 -15.546   2.932  1.00  0.00     0.126 C 
ENDROOT
BRANCH   1   2
HETATM    2  C   UNL     1      42.154 -14.324   3.651  1.00  0.00     0.133 C 
BRANCH   2   3
HETATM    3  C   UNL     1      41.540 -13.952   4.991  1.00  0.00     0.224 C 
HETATM    4  N   UNL     1      41.018 -12.682   5.110  1.00  0.00    -0.326 N 
HETATM    5  H   UNL     1      40.788 -12.170   4.265  1.00  0.00     0.169 HD
HETATM    6  O   UNL     1      41.616 -14.763   5.914  1.00  0.00    -0.273 OA
BRANCH   4   7
HETATM    7  C   UNL     1      40.645 -12.049   6.320  1.00  0.00     0.052 A 
HETATM    8  C   UNL     1      39.434 -12.239   6.982  1.00  0.00     0.149 A 
HETATM    9  N   UNL     1      39.110 -11.664   8.171  1.00  0.00    -0.235 NA
HETATM   10  C   UNL     1      40.034 -10.855   8.724  1.00  0.00     0.163 A 
HETATM   11  C   UNL     1      41.263 -10.590   8.144  1.00  0.00     0.060 A 
HETATM   12  C   UNL     1      41.572 -11.200   6.927  1.00  0.00     0.035 A 
BRANCH  10  13
HETATM   13  O   UNL     1      39.779 -10.245   9.935  1.00  0.00    -0.339 OA
HETATM   14  C   UNL     1      40.320 -10.963  11.041  1.00  0.00     0.211 C 
ENDBRANCH  10  13
ENDBRANCH   4   7
ENDBRANCH   2   3
ENDBRANCH   1   2
BRANCH   1  15
HETATM   15  N   UNL     1      42.536 -16.648   2.905  1.00  0.00    -0.348 N 
HETATM   16  C   UNL     1      42.367 -17.748   3.720  1.00  0.00     0.252 C 
HETATM   17  O   UNL     1      41.597 -17.780   4.672  1.00  0.00    -0.268 OA
HETATM   18  H   UNL     1      43.055 -16.787   2.047  1.00  0.00     0.163 HD
BRANCH  16  19
HETATM   19  C   UNL     1      43.167 -18.939   3.344  1.00  0.00     0.032 A 
HETATM   20  C   UNL     1      42.982 -19.566   2.105  1.00  0.00     0.017 A 
HETATM   21  C   UNL     1      43.726 -20.703   1.789  1.00  0.00     0.001 A 
HETATM   22  C   UNL     1      44.648 -21.212   2.706  1.00  0.00     0.000 A 
HETATM   23  C   UNL     1      44.838 -20.580   3.936  1.00  0.00     0.001 A 
HETATM   24  C   UNL     1      44.103 -19.437   4.254  1.00  0.00     0.017 A 
ENDBRANCH  16  19
ENDBRANCH   1  15
BRANCH   1  25
HETATM   25  C   UNL     1      41.166 -15.208   1.507  1.00  0.00    -0.035 A 
HETATM   26  C   UNL     1      40.258 -14.163   1.275  1.00  0.00     0.009 A 
HETATM   27  C   UNL     1      39.862 -13.837  -0.023  1.00  0.00     0.001 A 
HETATM   28  C   UNL     1      40.361 -14.556  -1.107  1.00  0.00     0.000 A 
HETATM   29  C   UNL     1      41.254 -15.603  -0.894  1.00  0.00     0.001 A 
HETATM   30  C   UNL     1      41.654 -15.929   0.403  1.00  0.00     0.009 A 
ENDBRANCH   1  25
TORSDOF 7
ENDMDL
MODEL 9
REMARK VINA RESULT:      -7.4      4.103      8.296
REMARK  7 active torsions:
REMARK  status: ('A' for Active; 'I' for Inactive)
REMARK    1  A    between atoms: O_2  and  C_3 
REMARK    2  A    between atoms: C_6  and  N_7 
REMARK       I    between atoms: N_7  and  C_8 
REMARK    3  A    between atoms: C_8  and  C_9 
REMARK    4  A    between atoms: C_9  and  C_10 
REMARK    5  A    between atoms: C_10  and  N_11 
REMARK    6  A    between atoms: C_10  and  C_20 
REMARK       I    between atoms: N_11  and  C_12 
REMARK    7  A    between atoms: C_12  and  C_13 
ROOT
HETATM    1  C   UNL     1      42.531 -15.720   4.641  1.00  0.00     0.126 C 
ENDROOT
BRANCH   1   2
HETATM    2  C   UNL     1      43.531 -14.608   4.947  1.00  0.00     0.133 C 
BRANCH   2   3
HETATM    3  C   UNL     1      43.698 -14.196   6.401  1.00  0.00     0.224 C 
HETATM    4  N   UNL     1      43.336 -12.907   6.733  1.00  0.00    -0.326 N 
HETATM    5  H   UNL     1      42.716 -12.401   6.109  1.00  0.00     0.169 HD
HETATM    6  O   UNL     1      44.219 -14.994   7.179  1.00  0.00    -0.273 OA
BRANCH   4   7
HETATM    7  C   UNL     1      43.648 -12.244   7.943  1.00  0.00     0.052 A 
HETATM    8  C   UNL     1      42.867 -11.256   8.538  1.00  0.00     0.149 A 
HETATM    9  N   UNL     1      43.152 -10.664   9.728  1.00  0.00    -0.235 NA
HETATM   10  C   UNL     1      44.274 -11.070  10.353  1.00  0.00     0.163 A 
HETATM   11  C   UNL     1      45.125 -12.036   9.843  1.00  0.00     0.060 A 
HETATM   12  C   UNL     1      44.803 -12.633   8.623  1.00  0.00     0.035 A 
BRANCH  10  13
HETATM   13  O   UNL     1      44.623 -10.522  11.570  1.00  0.00    -0.339 OA
HETATM   14  C   UNL     1      43.499 -10.044  12.304  1.00  0.00     0.211 C 
ENDBRANCH  10  13
ENDBRANCH   4   7
ENDBRANCH   2   3
ENDBRANCH   1   2
BRANCH   1  15
HETATM   15  N   UNL     1      43.164 -16.855   3.989  1.00  0.00    -0.348 N 
HETATM   16  C   UNL     1      43.546 -17.966   4.711  1.00  0.00     0.252 C 
HETATM   17  O   UNL     1      43.622 -17.990   5.934  1.00  0.00    -0.268 OA
HETATM   18  H   UNL     1      42.959 -16.994   3.007  1.00  0.00     0.163 HD
BRANCH  16  19
HETATM   19  C   UNL     1      43.830 -19.176   3.903  1.00  0.00     0.032 A 
HETATM   20  C   UNL     1      43.348 -19.293   2.593  1.00  0.00     0.017 A 
HETATM   21  C   UNL     1      43.604 -20.456   1.865  1.00  0.00     0.001 A 
HETATM   22  C   UNL     1      44.334 -21.496   2.443  1.00  0.00     0.000 A 
HETATM   23  C   UNL     1      44.821 -21.374   3.746  1.00  0.00     0.001 A 
HETATM   24  C   UNL     1      44.576 -20.209   4.475  1.00  0.00     0.017 A 
ENDBRANCH  16  19
ENDBRANCH   1  15
BRANCH   1  25
HETATM   25  C   UNL     1      41.384 -15.215   3.774  1.00  0.00    -0.035 A 
HETATM   26  C   UNL     1      40.992 -13.869   3.847  1.00  0.00     0.009 A 
HETATM   27  C   UNL     1      39.946 -13.386   3.058  1.00  0.00     0.001 A 
HETATM   28  C   UNL     1      39.271 -14.245   2.193  1.00  0.00     0.000 A 
HETATM   29  C   UNL     1      39.639 -15.586   2.117  1.00  0.00     0.001 A 
HETATM   30  C   UNL     1      40.687 -16.069   2.902  1.00  0.00     0.009 A 
ENDBRANCH   1  25
TORSDOF 7
ENDMDL
MODEL 10
REMARK VINA RESULT:      -7.3      3.673      6.963
REMARK  7 active torsions:
REMARK  status: ('A' for Active; 'I' for Inactive)
REMARK    1  A    between atoms: O_2  and  C_3 
REMARK    2  A    between atoms: C_6  and  N_7 
REMARK       I    between atoms: N_7  and  C_8 
REMARK    3  A    between atoms: C_8  and  C_9 
REMARK    4  A    between atoms: C_9  and  C_10 
REMARK    5  A    between atoms: C_10  and  N_11 
REMARK    6  A    between atoms: C_10  and  C_20 
REMARK       I    between atoms: N_11  and  C_12 
REMARK    7  A    between atoms: C_12  and  C_13 
ROOT
HETATM    1  C   UNL     1      41.993 -15.072   2.142  1.00  0.00     0.126 C 
ENDROOT
BRANCH   1   2
HETATM    2  C   UNL     1      42.793 -13.839   2.555  1.00  0.00     0.133 C 
BRANCH   2   3
HETATM    3  C   UNL     1      42.141 -12.874   3.532  1.00  0.00     0.224 C 
HETATM    4  N   UNL     1      42.067 -13.272   4.850  1.00  0.00    -0.326 N 
HETATM    5  H   UNL     1      42.687 -14.008   5.170  1.00  0.00     0.169 HD
HETATM    6  O   UNL     1      41.645 -11.839   3.088  1.00  0.00    -0.273 OA
BRANCH   4   7
HETATM    7  C   UNL     1      41.284 -12.661   5.857  1.00  0.00     0.052 A 
HETATM    8  C   UNL     1      41.693 -11.590   6.650  1.00  0.00     0.149 A 
HETATM    9  N   UNL     1      40.911 -10.978   7.579  1.00  0.00    -0.235 NA
HETATM   10  C   UNL     1      39.662 -11.460   7.731  1.00  0.00     0.163 A 
HETATM   11  C   UNL     1      39.161 -12.526   7.003  1.00  0.00     0.060 A 
HETATM   12  C   UNL     1      39.984 -13.130   6.051  1.00  0.00     0.035 A 
BRANCH  10  13
HETATM   13  O   UNL     1      38.808 -10.883   8.647  1.00  0.00    -0.339 OA
HETATM   14  C   UNL     1      39.492 -10.124   9.641  1.00  0.00     0.211 C 
ENDBRANCH  10  13
ENDBRANCH   4   7
ENDBRANCH   2   3
ENDBRANCH   1   2
BRANCH   1  15
HETATM   15  N   UNL     1      42.790 -16.286   2.218  1.00  0.00    -0.348 N 
HETATM   16  C   UNL     1      42.839 -17.032   3.377  1.00  0.00     0.252 C 
HETATM   17  O   UNL     1      42.451 -16.625   4.465  1.00  0.00    -0.268 OA
HETATM   18  H   UNL     1      42.964 -16.776   1.349  1.00  0.00     0.163 HD
BRANCH  16  19
HETATM   19  C   UNL     1      43.368 -18.407   3.219  1.00  0.00     0.032 A 
HETATM   20  C   UNL     1      44.216 -18.966   4.184  1.00  0.00     0.017 A 
HETATM   21  C   UNL     1      44.725 -20.251   3.997  1.00  0.00     0.001 A 
HETATM   22  C   UNL     1      44.391 -20.974   2.849  1.00  0.00     0.000 A 
HETATM   23  C   UNL     1      43.538 -20.420   1.893  1.00  0.00     0.001 A 
HETATM   24  C   UNL     1      43.019 -19.138   2.080  1.00  0.00     0.017 A 
ENDBRANCH  16  19
ENDBRANCH   1  15
BRANCH   1  25
HETATM   25  C   UNL     1      41.429 -14.925   0.734  1.00  0.00    -0.035 A 
HETATM   26  C   UNL     1      41.584 -15.968  -0.193  1.00  0.00     0.009 A 
HETATM   27  C   UNL     1      41.071 -15.855  -1.486  1.00  0.00     0.001 A 
HETATM   28  C   UNL     1      40.405 -14.694  -1.874  1.00  0.00     0.000 A 
HETATM   29  C   UNL     1      40.253 -13.646  -0.970  1.00  0.00     0.001 A 
HETATM   30  C   UNL     1      40.762 -13.759   0.325  1.00  0.00     0.009 A 
ENDBRANCH   1  25
TORSDOF 7
ENDMDL
