MODEL 1
REMARK VINA RESULT:      -8.4      0.000      0.000
REMARK  6 active torsions:
REMARK  status: ('A' for Active; 'I' for Inactive)
REMARK    1  A    between atoms: C_2  and  C_3 
REMARK    2  A    between atoms: C_3  and  C_4 
REMARK    3  A    between atoms: C_3  and  C_10 
REMARK    4  A    between atoms: C_10  and  C_11 
REMARK       I    between atoms: C_11  and  N_12 
REMARK    5  A    between atoms: N_12  and  C_13 
REMARK    6  A    between atoms: C_20  and  C_21 
REMARK       I    between atoms: C_21  and  N_22 
ROOT
HETATM    1  C   UNL     1      39.993 -15.565   1.488  1.00  0.00     0.035 A 
HETATM    2  C   UNL     1      40.626 -15.361   0.253  1.00  0.00     0.046 A 
HETATM    3  C   UNL     1      40.086 -14.430  -0.662  1.00  0.00     0.030 A 
HETATM    4  C   UNL     1      38.938 -13.731  -0.309  1.00  0.00     0.063 A 
HETATM    5  N   UNL     1      38.664 -12.920  -1.374  1.00  0.00    -0.277 N 
HETATM    6  H   UNL     1      37.895 -12.267  -1.467  1.00  0.00     0.189 HD
HETATM    7  N   UNL     1      39.528 -13.033  -2.397  1.00  0.00    -0.168 NA
HETATM    8  C   UNL     1      40.414 -13.964  -1.971  1.00  0.00     0.156 A 
HETATM    9  C   UNL     1      38.284 -13.906   0.911  1.00  0.00     0.034 A 
HETATM   10  C   UNL     1      38.834 -14.839   1.798  1.00  0.00     0.032 A 
ENDROOT
BRANCH   1  11
HETATM   11  N   UNL     1      40.439 -16.488   2.456  1.00  0.00    -0.327 N 
HETATM   12  C   UNL     1      41.249 -16.240   3.550  1.00  0.00     0.222 C 
HETATM   13  O   UNL     1      41.670 -15.152   3.923  1.00  0.00    -0.273 OA
HETATM   14  H   UNL     1      40.113 -17.440   2.343  1.00  0.00     0.169 HD
BRANCH  12  15
HETATM   15  C   UNL     1      41.628 -17.508   4.294  1.00  0.00     0.112 C 
BRANCH  15  16
HETATM   16  C   UNL     1      43.155 -17.715   4.313  1.00  0.00     0.027 C 
BRANCH  16  17
HETATM   17  C   UNL     1      43.795 -17.521   5.708  1.00  0.00     0.005 C 
HETATM   18  C   UNL     1      42.823 -17.433   6.877  1.00  0.00     0.006 C 
ENDBRANCH  16  17
BRANCH  16  19
HETATM   19  C   UNL     1      43.588 -19.030   3.677  1.00  0.00    -0.054 A 
HETATM   20  C   UNL     1      43.188 -19.412   2.388  1.00  0.00     0.007 A 
HETATM   21  C   UNL     1      43.600 -20.633   1.846  1.00  0.00     0.001 A 
HETATM   22  C   UNL     1      44.412 -21.489   2.584  1.00  0.00     0.000 A 
HETATM   23  C   UNL     1      44.811 -21.128   3.869  1.00  0.00     0.001 A 
HETATM   24  C   UNL     1      44.399 -19.910   4.412  1.00  0.00     0.007 A 
ENDBRANCH  16  19
ENDBRANCH  15  16
ENDBRANCH  12  15
ENDBRANCH   1  11
BRANCH   8  25
HETATM   25  C   UNL     1      41.537 -14.385  -2.819  1.00  0.00     0.270 C 
HETATM   26  N   UNL     1      42.623 -13.554  -2.761  1.00  0.00    -0.365 N 
HETATM   27  H   UNL     1      42.576 -12.737  -2.164  1.00  0.00     0.159 HD
HETATM   28  H   UNL     1      43.439 -13.761  -3.315  1.00  0.00     0.159 HD
HETATM   29  O   UNL     1      41.540 -15.383  -3.533  1.00  0.00    -0.266 OA
ENDBRANCH   8  25
TORSDOF 6
ENDMDL
MODEL 2
REMARK VINA RESULT:      -8.3      1.865      3.250
REMARK  6 active torsions:
REMARK  status: ('A' for Active; 'I' for Inactive)
REMARK    1  A    between atoms: C_2  and  C_3 
REMARK    2  A    between atoms: C_3  and  C_4 
REMARK    3  A    between atoms: C_3  and  C_10 
REMARK    4  A    between atoms: C_10  and  C_11 
REMARK       I    between atoms: C_11  and  N_12 
REMARK    5  A    between atoms: N_12  and  C_13 
REMARK    6  A    between atoms: C_20  and  C_21 
REMARK       I    between atoms: C_21  and  N_22 
ROOT
HETATM    1  C   UNL     1      41.755 -15.364   0.157  1.00  0.00     0.035 A 
HETATM    2  C   UNL     1      41.086 -15.454  -1.072  1.00  0.00     0.046 A 
HETATM    3  C   UNL     1      40.102 -14.494  -1.403  1.00  0.00     0.030 A 
HETATM    4  C   UNL     1      39.829 -13.476  -0.498  1.00  0.00     0.063 A 
HETATM    5  N   UNL     1      38.855 -12.719  -1.087  1.00  0.00    -0.277 N 
HETATM    6  H   UNL     1      38.411 -11.889  -0.711  1.00  0.00     0.189 HD
HETATM    7  N   UNL     1      38.463 -13.157  -2.295  1.00  0.00    -0.168 NA
HETATM    8  C   UNL     1      39.226 -14.256  -2.504  1.00  0.00     0.156 A 
HETATM    9  C   UNL     1      40.476 -13.354   0.732  1.00  0.00     0.034 A 
HETATM   10  C   UNL     1      41.442 -14.321   1.040  1.00  0.00     0.032 A 
ENDROOT
BRANCH   1  11
HETATM   11  N   UNL     1      42.732 -16.285   0.588  1.00  0.00    -0.327 N 
HETATM   12  C   UNL     1      42.529 -17.495   1.229  1.00  0.00     0.222 C 
HETATM   13  O   UNL     1      41.453 -18.024   1.477  1.00  0.00    -0.273 OA
HETATM   14  H   UNL     1      43.693 -16.038   0.387  1.00  0.00     0.169 HD
BRANCH  12  15
HETATM   15  C   UNL     1      43.828 -18.152   1.659  1.00  0.00     0.112 C 
BRANCH  15  16
HETATM   16  C   UNL     1      43.621 -19.059   2.887  1.00  0.00     0.027 C 
BRANCH  16  17
HETATM   17  C   UNL     1      44.356 -20.416   2.794  1.00  0.00     0.005 C 
HETATM   18  C   UNL     1      43.807 -21.399   1.767  1.00  0.00     0.006 C 
ENDBRANCH  16  17
BRANCH  16  19
HETATM   19  C   UNL     1      43.913 -18.354   4.206  1.00  0.00    -0.054 A 
HETATM   20  C   UNL     1      43.342 -17.118   4.544  1.00  0.00     0.007 A 
HETATM   21  C   UNL     1      43.645 -16.500   5.760  1.00  0.00     0.001 A 
HETATM   22  C   UNL     1      44.524 -17.107   6.654  1.00  0.00     0.000 A 
HETATM   23  C   UNL     1      45.106 -18.329   6.330  1.00  0.00     0.001 A 
HETATM   24  C   UNL     1      44.806 -18.946   5.114  1.00  0.00     0.007 A 
ENDBRANCH  16  19
ENDBRANCH  15  16
ENDBRANCH  12  15
ENDBRANCH   1  11
BRANCH   8  25
HETATM   25  C   UNL     1      39.096 -15.046  -3.736  1.00  0.00     0.270 C 
HETATM   26  N   UNL     1      37.859 -14.973  -4.318  1.00  0.00    -0.365 N 
HETATM   27  H   UNL     1      37.147 -14.407  -3.873  1.00  0.00     0.159 HD
HETATM   28  H   UNL     1      37.676 -15.489  -5.164  1.00  0.00     0.159 HD
HETATM   29  O   UNL     1      39.990 -15.725  -4.230  1.00  0.00    -0.266 OA
ENDBRANCH   8  25
TORSDOF 6
ENDMDL
MODEL 3
REMARK VINA RESULT:      -8.2      3.901      5.638
REMARK  6 active torsions:
REMARK  status: ('A' for Active; 'I' for Inactive)
REMARK    1  A    between atoms: C_2  and  C_3 
REMARK    2  A    between atoms: C_3  and  C_4 
REMARK    3  A    between atoms: C_3  and  C_10 
REMARK    4  A    between atoms: C_10  and  C_11 
REMARK       I    between atoms: C_11  and  N_12 
REMARK    5  A    between atoms: N_12  and  C_13 
REMARK    6  A    between atoms: C_20  and  C_21 
REMARK       I    between atoms: C_21  and  N_22 
ROOT
HETATM    1  C   UNL     1      40.353 -14.848   4.781  1.00  0.00     0.035 A 
HETATM    2  C   UNL     1      40.193 -14.031   5.909  1.00  0.00     0.046 A 
HETATM    3  C   UNL     1      39.686 -12.720   5.755  1.00  0.00     0.030 A 
HETATM    4  C   UNL     1      39.350 -12.278   4.482  1.00  0.00     0.063 A 
HETATM    5  N   UNL     1      38.896 -11.000   4.651  1.00  0.00    -0.277 N 
HETATM    6  H   UNL     1      38.562 -10.366   3.933  1.00  0.00     0.189 HD
HETATM    7  N   UNL     1      38.911 -10.566   5.922  1.00  0.00    -0.168 NA
HETATM    8  C   UNL     1      39.399 -11.620   6.617  1.00  0.00     0.156 A 
HETATM    9  C   UNL     1      39.493 -13.064   3.338  1.00  0.00     0.034 A 
HETATM   10  C   UNL     1      40.004 -14.355   3.516  1.00  0.00     0.032 A 
ENDROOT
BRANCH   1  11
HETATM   11  N   UNL     1      40.874 -16.158   4.828  1.00  0.00    -0.327 N 
HETATM   12  C   UNL     1      42.176 -16.559   4.584  1.00  0.00     0.222 C 
HETATM   13  O   UNL     1      43.137 -15.837   4.352  1.00  0.00    -0.273 OA
HETATM   14  H   UNL     1      40.220 -16.885   5.088  1.00  0.00     0.169 HD
BRANCH  12  15
HETATM   15  C   UNL     1      42.333 -18.069   4.599  1.00  0.00     0.112 C 
BRANCH  15  16
HETATM   16  C   UNL     1      43.812 -18.483   4.480  1.00  0.00     0.027 C 
BRANCH  16  17
HETATM   17  C   UNL     1      44.558 -18.533   5.835  1.00  0.00     0.005 C 
HETATM   18  C   UNL     1      43.690 -18.786   7.061  1.00  0.00     0.006 C 
ENDBRANCH  16  17
BRANCH  16  19
HETATM   19  C   UNL     1      44.012 -19.766   3.684  1.00  0.00    -0.054 A 
HETATM   20  C   UNL     1      43.570 -19.909   2.359  1.00  0.00     0.007 A 
HETATM   21  C   UNL     1      43.765 -21.108   1.668  1.00  0.00     0.001 A 
HETATM   22  C   UNL     1      44.399 -22.180   2.289  1.00  0.00     0.000 A 
HETATM   23  C   UNL     1      44.835 -22.058   3.606  1.00  0.00     0.001 A 
HETATM   24  C   UNL     1      44.640 -20.862   4.299  1.00  0.00     0.007 A 
ENDBRANCH  16  19
ENDBRANCH  15  16
ENDBRANCH  12  15
ENDBRANCH   1  11
BRANCH   8  25
HETATM   25  C   UNL     1      39.582 -11.548   8.074  1.00  0.00     0.270 C 
HETATM   26  N   UNL     1      38.858 -12.475   8.774  1.00  0.00    -0.365 N 
HETATM   27  H   UNL     1      38.267 -13.117   8.259  1.00  0.00     0.159 HD
HETATM   28  H   UNL     1      38.915 -12.496   9.779  1.00  0.00     0.159 HD
HETATM   29  O   UNL     1      40.305 -10.742   8.650  1.00  0.00    -0.266 OA
ENDBRANCH   8  25
TORSDOF 6
ENDMDL
MODEL 4
REMARK VINA RESULT:      -8.0      2.354      3.243
REMARK  6 active torsions:
REMARK  status: ('A' for Active; 'I' for Inactive)
REMARK    1  A    between atoms: C_2  and  C_3 
REMARK    2  A    between atoms: C_3  and  C_4 
REMARK    3  A    between atoms: C_3  and  C_10 
REMARK    4  A    between atoms: C_10  and  C_11 
REMARK       I    between atoms: C_11  and  N_12 
REMARK    5  A    between atoms: N_12  and  C_13 
REMARK    6  A    between atoms: C_20  and  C_21 
REMARK       I    between atoms: C_21  and  N_22 
ROOT
HETATM    1  C   UNL     1      41.267 -15.165  -0.897  1.00  0.00     0.035 A 
HETATM    2  C   UNL     1      41.734 -13.851  -0.747  1.00  0.00     0.046 A 
HETATM    3  C   UNL     1      41.942 -13.050  -1.893  1.00  0.00     0.030 A 
HETATM    4  C   UNL     1      41.668 -13.588  -3.145  1.00  0.00     0.063 A 
HETATM    5  N   UNL     1      41.959 -12.594  -4.037  1.00  0.00    -0.277 N 
HETATM    6  H   UNL     1      41.876 -12.632  -5.047  1.00  0.00     0.189 HD
HETATM    7  N   UNL     1      42.405 -11.457  -3.479  1.00  0.00    -0.168 NA
HETATM    8  C   UNL     1      42.401 -11.724  -2.152  1.00  0.00     0.156 A 
HETATM    9  C   UNL     1      41.200 -14.889  -3.331  1.00  0.00     0.034 A 
HETATM   10  C   UNL     1      41.008 -15.665  -2.181  1.00  0.00     0.032 A 
ENDROOT
BRANCH   1  11
HETATM   11  N   UNL     1      41.052 -16.049   0.181  1.00  0.00    -0.327 N 
HETATM   12  C   UNL     1      41.995 -16.556   1.058  1.00  0.00     0.222 C 
HETATM   13  O   UNL     1      43.185 -16.272   1.105  1.00  0.00    -0.273 OA
HETATM   14  H   UNL     1      40.093 -16.329   0.339  1.00  0.00     0.169 HD
BRANCH  12  15
HETATM   15  C   UNL     1      41.411 -17.586   2.009  1.00  0.00     0.112 C 
BRANCH  15  16
HETATM   16  C   UNL     1      42.336 -17.825   3.217  1.00  0.00     0.027 C 
BRANCH  16  17
HETATM   17  C   UNL     1      41.612 -17.764   4.583  1.00  0.00     0.005 C 
HETATM   18  C   UNL     1      41.166 -16.380   5.035  1.00  0.00     0.006 C 
ENDBRANCH  16  17
BRANCH  16  19
HETATM   19  C   UNL     1      43.176 -19.089   3.086  1.00  0.00    -0.054 A 
HETATM   20  C   UNL     1      44.098 -19.488   4.065  1.00  0.00     0.007 A 
HETATM   21  C   UNL     1      44.857 -20.651   3.900  1.00  0.00     0.001 A 
HETATM   22  C   UNL     1      44.707 -21.428   2.755  1.00  0.00     0.000 A 
HETATM   23  C   UNL     1      43.802 -21.042   1.769  1.00  0.00     0.001 A 
HETATM   24  C   UNL     1      43.045 -19.880   1.932  1.00  0.00     0.007 A 
ENDBRANCH  16  19
ENDBRANCH  15  16
ENDBRANCH  12  15
ENDBRANCH   1  11
BRANCH   8  25
HETATM   25  C   UNL     1      42.836 -10.717  -1.175  1.00  0.00     0.270 C 
HETATM   26  N   UNL     1      41.808 -10.047  -0.568  1.00  0.00    -0.365 N 
HETATM   27  H   UNL     1      40.858 -10.280  -0.828  1.00  0.00     0.159 HD
HETATM   28  H   UNL     1      42.012  -9.332   0.112  1.00  0.00     0.159 HD
HETATM   29  O   UNL     1      44.005 -10.466  -0.902  1.00  0.00    -0.266 OA
ENDBRANCH   8  25
TORSDOF 6
ENDMDL
MODEL 5
REMARK VINA RESULT:      -7.9      1.762      2.384
REMARK  6 active torsions:
REMARK  status: ('A' for Active; 'I' for Inactive)
REMARK    1  A    between atoms: C_2  and  C_3 
REMARK    2  A    between atoms: C_3  and  C_4 
REMARK    3  A    between atoms: C_3  and  C_10 
REMARK    4  A    between atoms: C_10  and  C_11 
REMARK       I    between atoms: C_11  and  N_12 
REMARK    5  A    between atoms: N_12  and  C_13 
REMARK    6  A    between atoms: C_20  and  C_21 
REMARK       I    between atoms: C_21  and  N_22 
ROOT
HETATM    1  C   UNL     1      41.201 -14.943   0.516  1.00  0.00     0.035 A 
HETATM    2  C   UNL     1      40.498 -15.266  -0.653  1.00  0.00     0.046 A 
HETATM    3  C   UNL     1      40.320 -14.283  -1.654  1.00  0.00     0.030 A 
HETATM    4  C   UNL     1      40.859 -13.018  -1.453  1.00  0.00     0.063 A 
HETATM    5  N   UNL     1      40.532 -12.304  -2.571  1.00  0.00    -0.277 N 
HETATM    6  H   UNL     1      40.763 -11.337  -2.772  1.00  0.00     0.189 HD
HETATM    7  N   UNL     1      39.821 -12.988  -3.483  1.00  0.00    -0.168 NA
HETATM    8  C   UNL     1      39.682 -14.215  -2.928  1.00  0.00     0.156 A 
HETATM    9  C   UNL     1      41.567 -12.664  -0.304  1.00  0.00     0.034 A 
HETATM   10  C   UNL     1      41.723 -13.652   0.675  1.00  0.00     0.032 A 
ENDROOT
BRANCH   1  11
HETATM   11  N   UNL     1      41.409 -15.845   1.581  1.00  0.00    -0.327 N 
HETATM   12  C   UNL     1      42.411 -16.792   1.703  1.00  0.00     0.222 C 
HETATM   13  O   UNL     1      43.350 -16.973   0.939  1.00  0.00    -0.273 OA
HETATM   14  H   UNL     1      40.757 -15.777   2.351  1.00  0.00     0.169 HD
BRANCH  12  15
HETATM   15  C   UNL     1      42.234 -17.673   2.928  1.00  0.00     0.112 C 
BRANCH  15  16
HETATM   16  C   UNL     1      43.592 -18.067   3.539  1.00  0.00     0.027 C 
BRANCH  16  17
HETATM   17  C   UNL     1      43.759 -17.644   5.017  1.00  0.00     0.005 C 
HETATM   18  C   UNL     1      43.493 -16.175   5.321  1.00  0.00     0.006 C 
ENDBRANCH  16  17
BRANCH  16  19
HETATM   19  C   UNL     1      43.934 -19.537   3.336  1.00  0.00    -0.054 A 
HETATM   20  C   UNL     1      44.557 -20.311   4.327  1.00  0.00     0.007 A 
HETATM   21  C   UNL     1      44.862 -21.655   4.095  1.00  0.00     0.001 A 
HETATM   22  C   UNL     1      44.554 -22.244   2.872  1.00  0.00     0.000 A 
HETATM   23  C   UNL     1      43.944 -21.487   1.874  1.00  0.00     0.001 A 
HETATM   24  C   UNL     1      43.639 -20.144   2.104  1.00  0.00     0.007 A 
ENDBRANCH  16  19
ENDBRANCH  15  16
ENDBRANCH  12  15
ENDBRANCH   1  11
BRANCH   8  25
HETATM   25  C   UNL     1      38.944 -15.281  -3.621  1.00  0.00     0.270 C 
HETATM   26  N   UNL     1      37.664 -15.458  -3.171  1.00  0.00    -0.365 N 
HETATM   27  H   UNL     1      37.329 -14.868  -2.419  1.00  0.00     0.159 HD
HETATM   28  H   UNL     1      37.085 -16.171  -3.584  1.00  0.00     0.159 HD
HETATM   29  O   UNL     1      39.400 -15.975  -4.524  1.00  0.00    -0.266 OA
ENDBRANCH   8  25
TORSDOF 6
ENDMDL
MODEL 6
REMARK VINA RESULT:      -7.9      3.152      4.958
REMARK  6 active torsions:
REMARK  status: ('A' for Active; 'I' for Inactive)
REMARK    1  A    between atoms: C_2  and  C_3 
REMARK    2  A    between atoms: C_3  and  C_4 
REMARK    3  A    between atoms: C_3  and  C_10 
REMARK    4  A    between atoms: C_10  and  C_11 
REMARK       I    between atoms: C_11  and  N_12 
REMARK    5  A    between atoms: N_12  and  C_13 
REMARK    6  A    between atoms: C_20  and  C_21 
REMARK       I    between atoms: C_21  and  N_22 
ROOT
HETATM    1  C   UNL     1      40.513 -15.068   3.300  1.00  0.00     0.035 A 
HETATM    2  C   UNL     1      40.397 -14.343   4.494  1.00  0.00     0.046 A 
HETATM    3  C   UNL     1      39.662 -13.136   4.509  1.00  0.00     0.030 A 
HETATM    4  C   UNL     1      39.064 -12.701   3.332  1.00  0.00     0.063 A 
HETATM    5  N   UNL     1      38.436 -11.531   3.655  1.00  0.00    -0.277 N 
HETATM    6  H   UNL     1      37.896 -10.934   3.040  1.00  0.00     0.189 HD
HETATM    7  N   UNL     1      38.577 -11.159   4.938  1.00  0.00    -0.168 NA
HETATM    8  C   UNL     1      39.334 -12.142   5.479  1.00  0.00     0.156 A 
HETATM    9  C   UNL     1      39.157 -13.398   2.127  1.00  0.00     0.034 A 
HETATM   10  C   UNL     1      39.896 -14.588   2.136  1.00  0.00     0.032 A 
ENDROOT
BRANCH   1  11
HETATM   11  N   UNL     1      41.244 -16.269   3.178  1.00  0.00    -0.327 N 
HETATM   12  C   UNL     1      42.612 -16.413   3.029  1.00  0.00     0.222 C 
HETATM   13  O   UNL     1      43.453 -15.522   3.048  1.00  0.00    -0.273 OA
HETATM   14  H   UNL     1      40.703 -17.123   3.223  1.00  0.00     0.169 HD
BRANCH  12  15
HETATM   15  C   UNL     1      43.024 -17.856   2.795  1.00  0.00     0.112 C 
BRANCH  15  16
HETATM   16  C   UNL     1      43.894 -18.387   3.949  1.00  0.00     0.027 C 
BRANCH  16  17
HETATM   17  C   UNL     1      43.365 -18.016   5.355  1.00  0.00     0.005 C 
HETATM   18  C   UNL     1      44.341 -17.272   6.257  1.00  0.00     0.006 C 
ENDBRANCH  16  17
BRANCH  16  19
HETATM   19  C   UNL     1      44.189 -19.877   3.838  1.00  0.00    -0.054 A 
HETATM   20  C   UNL     1      44.612 -20.647   4.933  1.00  0.00     0.007 A 
HETATM   21  C   UNL     1      44.882 -22.010   4.785  1.00  0.00     0.001 A 
HETATM   22  C   UNL     1      44.736 -22.623   3.543  1.00  0.00     0.000 A 
HETATM   23  C   UNL     1      44.325 -21.872   2.445  1.00  0.00     0.001 A 
HETATM   24  C   UNL     1      44.057 -20.510   2.591  1.00  0.00     0.007 A 
ENDBRANCH  16  19
ENDBRANCH  15  16
ENDBRANCH  12  15
ENDBRANCH   1  11
BRANCH   8  25
HETATM   25  C   UNL     1      39.725 -12.106   6.895  1.00  0.00     0.270 C 
HETATM   26  N   UNL     1      41.057 -11.864   7.101  1.00  0.00    -0.365 N 
HETATM   27  H   UNL     1      41.656 -11.737   6.294  1.00  0.00     0.159 HD
HETATM   28  H   UNL     1      41.417 -11.828   8.040  1.00  0.00     0.159 HD
HETATM   29  O   UNL     1      38.959 -12.275   7.838  1.00  0.00    -0.266 OA
ENDBRANCH   8  25
TORSDOF 6
ENDMDL
MODEL 7
REMARK VINA RESULT:      -7.9      1.830      2.705
REMARK  6 active torsions:
REMARK  status: ('A' for Active; 'I' for Inactive)
REMARK    1  A    between atoms: C_2  and  C_3 
REMARK    2  A    between atoms: C_3  and  C_4 
REMARK    3  A    between atoms: C_3  and  C_10 
REMARK    4  A    between atoms: C_10  and  C_11 
REMARK       I    between atoms: C_11  and  N_12 
REMARK    5  A    between atoms: N_12  and  C_13 
REMARK    6  A    between atoms: C_20  and  C_21 
REMARK       I    between atoms: C_21  and  N_22 
ROOT
HETATM    1  C   UNL     1      40.838 -16.086   1.437  1.00  0.00     0.035 A 
HETATM    2  C   UNL     1      39.865 -15.079   1.508  1.00  0.00     0.046 A 
HETATM    3  C   UNL     1      39.579 -14.303   0.362  1.00  0.00     0.030 A 
HETATM    4  C   UNL     1      40.270 -14.567  -0.814  1.00  0.00     0.063 A 
HETATM    5  N   UNL     1      39.783 -13.674  -1.728  1.00  0.00    -0.277 N 
HETATM    6  H   UNL     1      40.059 -13.577  -2.699  1.00  0.00     0.189 HD
HETATM    7  N   UNL     1      38.840 -12.845  -1.250  1.00  0.00    -0.168 NA
HETATM    8  C   UNL     1      38.704 -13.222   0.043  1.00  0.00     0.156 A 
HETATM    9  C   UNL     1      41.241 -15.562  -0.922  1.00  0.00     0.034 A 
HETATM   10  C   UNL     1      41.512 -16.312   0.229  1.00  0.00     0.032 A 
ENDROOT
BRANCH   1  11
HETATM   11  N   UNL     1      41.212 -16.895   2.531  1.00  0.00    -0.327 N 
HETATM   12  C   UNL     1      42.085 -16.578   3.557  1.00  0.00     0.222 C 
HETATM   13  O   UNL     1      42.642 -15.504   3.744  1.00  0.00    -0.273 OA
HETATM   14  H   UNL     1      40.774 -17.806   2.577  1.00  0.00     0.169 HD
BRANCH  12  15
HETATM   15  C   UNL     1      42.344 -17.752   4.485  1.00  0.00     0.112 C 
BRANCH  15  16
HETATM   16  C   UNL     1      43.812 -18.213   4.415  1.00  0.00     0.027 C 
BRANCH  16  17
HETATM   17  C   UNL     1      44.537 -18.203   5.781  1.00  0.00     0.005 C 
HETATM   18  C   UNL     1      44.405 -16.921   6.593  1.00  0.00     0.006 C 
ENDBRANCH  16  17
BRANCH  16  19
HETATM   19  C   UNL     1      43.986 -19.546   3.699  1.00  0.00    -0.054 A 
HETATM   20  C   UNL     1      43.518 -19.769   2.394  1.00  0.00     0.007 A 
HETATM   21  C   UNL     1      43.690 -21.012   1.778  1.00  0.00     0.001 A 
HETATM   22  C   UNL     1      44.327 -22.048   2.455  1.00  0.00     0.000 A 
HETATM   23  C   UNL     1      44.788 -21.846   3.754  1.00  0.00     0.001 A 
HETATM   24  C   UNL     1      44.616 -20.606   4.371  1.00  0.00     0.007 A 
ENDBRANCH  16  19
ENDBRANCH  15  16
ENDBRANCH  12  15
ENDBRANCH   1  11
BRANCH   8  25
HETATM   25  C   UNL     1      37.753 -12.543   0.934  1.00  0.00     0.270 C 
HETATM   26  N   UNL     1      38.319 -12.036   2.072  1.00  0.00    -0.365 N 
HETATM   27  H   UNL     1      39.313 -12.163   2.217  1.00  0.00     0.159 HD
HETATM   28  H   UNL     1      37.741 -11.559   2.746  1.00  0.00     0.159 HD
HETATM   29  O   UNL     1      36.552 -12.423   0.715  1.00  0.00    -0.266 OA
ENDBRANCH   8  25
TORSDOF 6
ENDMDL
MODEL 8
REMARK VINA RESULT:      -7.8      2.423      3.606
REMARK  6 active torsions:
REMARK  status: ('A' for Active; 'I' for Inactive)
REMARK    1  A    between atoms: C_2  and  C_3 
REMARK    2  A    between atoms: C_3  and  C_4 
REMARK    3  A    between atoms: C_3  and  C_10 
REMARK    4  A    between atoms: C_10  and  C_11 
REMARK       I    between atoms: C_11  and  N_12 
REMARK    5  A    between atoms: N_12  and  C_13 
REMARK    6  A    between atoms: C_20  and  C_21 
REMARK       I    between atoms: C_21  and  N_22 
ROOT
HETATM    1  C   UNL     1      40.773 -14.850   4.024  1.00  0.00     0.035 A 
HETATM    2  C   UNL     1      40.217 -14.472   2.793  1.00  0.00     0.046 A 
HETATM    3  C   UNL     1      39.394 -13.325   2.723  1.00  0.00     0.030 A 
HETATM    4  C   UNL     1      39.164 -12.593   3.881  1.00  0.00     0.063 A 
HETATM    5  N   UNL     1      38.351 -11.562   3.504  1.00  0.00    -0.277 N 
HETATM    6  H   UNL     1      37.979 -10.825   4.093  1.00  0.00     0.189 HD
HETATM    7  N   UNL     1      38.023 -11.559   2.201  1.00  0.00    -0.168 NA
HETATM    8  C   UNL     1      38.661 -12.645   1.704  1.00  0.00     0.156 A 
HETATM    9  C   UNL     1      39.703 -12.938   5.121  1.00  0.00     0.034 A 
HETATM   10  C   UNL     1      40.509 -14.082   5.167  1.00  0.00     0.032 A 
ENDROOT
BRANCH   1  11
HETATM   11  N   UNL     1      41.585 -15.990   4.201  1.00  0.00    -0.327 N 
HETATM   12  C   UNL     1      42.964 -16.038   4.304  1.00  0.00     0.222 C 
HETATM   13  O   UNL     1      43.733 -15.086   4.333  1.00  0.00    -0.273 OA
HETATM   14  H   UNL     1      41.096 -16.873   4.279  1.00  0.00     0.169 HD
BRANCH  12  15
HETATM   15  C   UNL     1      43.495 -17.459   4.354  1.00  0.00     0.112 C 
BRANCH  15  16
HETATM   16  C   UNL     1      43.320 -18.174   3.000  1.00  0.00     0.027 C 
BRANCH  16  17
HETATM   17  C   UNL     1      43.944 -17.414   1.806  1.00  0.00     0.005 C 
HETATM   18  C   UNL     1      42.961 -16.900   0.762  1.00  0.00     0.006 C 
ENDBRANCH  16  17
BRANCH  16  19
HETATM   19  C   UNL     1      43.767 -19.630   3.031  1.00  0.00    -0.054 A 
HETATM   20  C   UNL     1      44.455 -20.185   4.121  1.00  0.00     0.007 A 
HETATM   21  C   UNL     1      44.856 -21.524   4.104  1.00  0.00     0.001 A 
HETATM   22  C   UNL     1      44.579 -22.325   2.999  1.00  0.00     0.000 A 
HETATM   23  C   UNL     1      43.905 -21.787   1.906  1.00  0.00     0.001 A 
HETATM   24  C   UNL     1      43.505 -20.450   1.921  1.00  0.00     0.007 A 
ENDBRANCH  16  19
ENDBRANCH  15  16
ENDBRANCH  12  15
ENDBRANCH   1  11
BRANCH   8  25
HETATM   25  C   UNL     1      38.552 -13.005   0.284  1.00  0.00     0.270 C 
HETATM   26  N   UNL     1      37.833 -14.146   0.051  1.00  0.00    -0.365 N 
HETATM   27  H   UNL     1      37.447 -14.645   0.843  1.00  0.00     0.159 HD
HETATM   28  H   UNL     1      37.711 -14.474  -0.894  1.00  0.00     0.159 HD
HETATM   29  O   UNL     1      39.048 -12.368  -0.640  1.00  0.00    -0.266 OA
ENDBRANCH   8  25
TORSDOF 6
ENDMDL
MODEL 9
REMARK VINA RESULT:      -7.7      4.196      6.267
REMARK  6 active torsions:
REMARK  status: ('A' for Active; 'I' for Inactive)
REMARK    1  A    between atoms: C_2  and  C_3 
REMARK    2  A    between atoms: C_3  and  C_4 
REMARK    3  A    between atoms: C_3  and  C_10 
REMARK    4  A    between atoms: C_10  and  C_11 
REMARK       I    between atoms: C_11  and  N_12 
REMARK    5  A    between atoms: N_12  and  C_13 
REMARK    6  A    between atoms: C_20  and  C_21 
REMARK       I    between atoms: C_21  and  N_22 
ROOT
HETATM    1  C   UNL     1      42.098 -13.892   4.684  1.00  0.00     0.035 A 
HETATM    2  C   UNL     1      42.264 -13.156   5.866  1.00  0.00     0.046 A 
HETATM    3  C   UNL     1      41.490 -11.992   6.077  1.00  0.00     0.030 A 
HETATM    4  C   UNL     1      40.575 -11.611   5.104  1.00  0.00     0.063 A 
HETATM    5  N   UNL     1      39.989 -10.473   5.584  1.00  0.00    -0.277 N 
HETATM    6  H   UNL     1      39.269  -9.917   5.136  1.00  0.00     0.189 HD
HETATM    7  N   UNL     1      40.445 -10.074   6.782  1.00  0.00    -0.168 NA
HETATM    8  C   UNL     1      41.376 -11.004   7.100  1.00  0.00     0.156 A 
HETATM    9  C   UNL     1      40.382 -12.320   3.918  1.00  0.00     0.034 A 
HETATM   10  C   UNL     1      41.165 -13.465   3.728  1.00  0.00     0.032 A 
ENDROOT
BRANCH   1  11
HETATM   11  N   UNL     1      42.839 -15.051   4.370  1.00  0.00    -0.327 N 
HETATM   12  C   UNL     1      42.491 -16.368   4.611  1.00  0.00     0.222 C 
HETATM   13  O   UNL     1      41.435 -16.776   5.079  1.00  0.00    -0.273 OA
HETATM   14  H   UNL     1      43.721 -14.897   3.897  1.00  0.00     0.169 HD
BRANCH  12  15
HETATM   15  C   UNL     1      43.602 -17.339   4.255  1.00  0.00     0.112 C 
BRANCH  15  16
HETATM   16  C   UNL     1      43.289 -18.099   2.952  1.00  0.00     0.027 C 
BRANCH  16  17
HETATM   17  C   UNL     1      43.786 -17.383   1.675  1.00  0.00     0.005 C 
HETATM   18  C   UNL     1      42.713 -16.694   0.840  1.00  0.00     0.006 C 
ENDBRANCH  16  17
BRANCH  16  19
HETATM   19  C   UNL     1      43.737 -19.555   2.987  1.00  0.00    -0.054 A 
HETATM   20  C   UNL     1      44.415 -20.110   4.084  1.00  0.00     0.007 A 
HETATM   21  C   UNL     1      44.818 -21.448   4.070  1.00  0.00     0.001 A 
HETATM   22  C   UNL     1      44.553 -22.249   2.963  1.00  0.00     0.000 A 
HETATM   23  C   UNL     1      43.889 -21.711   1.863  1.00  0.00     0.001 A 
HETATM   24  C   UNL     1      43.488 -20.374   1.874  1.00  0.00     0.007 A 
ENDBRANCH  16  19
ENDBRANCH  15  16
ENDBRANCH  12  15
ENDBRANCH   1  11
BRANCH   8  25
HETATM   25  C   UNL     1      42.129 -10.923   8.359  1.00  0.00     0.270 C 
HETATM   26  N   UNL     1      41.362 -11.089   9.481  1.00  0.00    -0.365 N 
HETATM   27  H   UNL     1      40.368 -11.245   9.368  1.00  0.00     0.159 HD
HETATM   28  H   UNL     1      41.793 -11.042  10.390  1.00  0.00     0.159 HD
HETATM   29  O   UNL     1      43.337 -10.722   8.441  1.00  0.00    -0.266 OA
ENDBRANCH   8  25
TORSDOF 6
ENDMDL
MODEL 10
REMARK VINA RESULT:      -7.4      3.200      7.913
REMARK  6 active torsions:
REMARK  status: ('A' for Active; 'I' for Inactive)
REMARK    1  A    between atoms: C_2  and  C_3 
REMARK    2  A    between atoms: C_3  and  C_4 
REMARK    3  A    between atoms: C_3  and  C_10 
REMARK    4  A    between atoms: C_10  and  C_11 
REMARK       I    between atoms: C_11  and  N_12 
REMARK    5  A    between atoms: N_12  and  C_13 
REMARK    6  A    between atoms: C_20  and  C_21 
REMARK       I    between atoms: C_21  and  N_22 
ROOT
HETATM    1  C   UNL     1      43.126 -17.914   2.506  1.00  0.00     0.035 A 
HETATM    2  C   UNL     1      43.391 -18.048   3.876  1.00  0.00     0.046 A 
HETATM    3  C   UNL     1      43.934 -19.257   4.366  1.00  0.00     0.030 A 
HETATM    4  C   UNL     1      44.200 -20.284   3.470  1.00  0.00     0.063 A 
HETATM    5  N   UNL     1      44.712 -21.302   4.225  1.00  0.00    -0.277 N 
HETATM    6  H   UNL     1      45.019 -22.212   3.901  1.00  0.00     0.189 HD
HETATM    7  N   UNL     1      44.797 -21.033   5.538  1.00  0.00    -0.168 NA
HETATM    8  C   UNL     1      44.318 -19.771   5.641  1.00  0.00     0.156 A 
HETATM    9  C   UNL     1      43.953 -20.184   2.100  1.00  0.00     0.034 A 
HETATM   10  C   UNL     1      43.407 -18.979   1.640  1.00  0.00     0.032 A 
ENDROOT
BRANCH   1  11
HETATM   11  N   UNL     1      42.562 -16.758   1.925  1.00  0.00    -0.327 N 
HETATM   12  C   UNL     1      41.223 -16.496   1.695  1.00  0.00     0.222 C 
HETATM   13  O   UNL     1      40.270 -17.193   2.021  1.00  0.00    -0.273 OA
HETATM   14  H   UNL     1      43.215 -16.031   1.664  1.00  0.00     0.169 HD
BRANCH  12  15
HETATM   15  C   UNL     1      41.005 -15.204   0.928  1.00  0.00     0.112 C 
BRANCH  15  16
HETATM   16  C   UNL     1      40.695 -14.031   1.878  1.00  0.00     0.027 C 
BRANCH  16  17
HETATM   17  C   UNL     1      39.193 -13.877   2.212  1.00  0.00     0.005 C 
HETATM   18  C   UNL     1      38.223 -14.276   1.107  1.00  0.00     0.006 C 
ENDBRANCH  16  17
BRANCH  16  19
HETATM   19  C   UNL     1      41.550 -14.042   3.139  1.00  0.00    -0.054 A 
HETATM   20  C   UNL     1      42.914 -13.709   3.129  1.00  0.00     0.007 A 
HETATM   21  C   UNL     1      43.664 -13.741   4.307  1.00  0.00     0.001 A 
HETATM   22  C   UNL     1      43.066 -14.109   5.509  1.00  0.00     0.000 A 
HETATM   23  C   UNL     1      41.717 -14.451   5.535  1.00  0.00     0.001 A 
HETATM   24  C   UNL     1      40.966 -14.420   4.359  1.00  0.00     0.007 A 
ENDBRANCH  16  19
ENDBRANCH  15  16
ENDBRANCH  12  15
ENDBRANCH   1  11
BRANCH   8  25
HETATM   25  C   UNL     1      44.236 -19.096   6.944  1.00  0.00     0.270 C 
HETATM   26  N   UNL     1      43.642 -19.844   7.924  1.00  0.00    -0.365 N 
HETATM   27  H   UNL     1      43.309 -20.771   7.691  1.00  0.00     0.159 HD
HETATM   28  H   UNL     1      43.535 -19.458   8.849  1.00  0.00     0.159 HD
HETATM   29  O   UNL     1      44.648 -17.963   7.173  1.00  0.00    -0.266 OA
ENDBRANCH   8  25
TORSDOF 6
ENDMDL
