MODEL 1
REMARK VINA RESULT:      -8.3      0.000      0.000
REMARK  2 active torsions:
REMARK  status: ('A' for Active; 'I' for Inactive)
REMARK    1  A    between atoms: C_12  and  C_13 
REMARK    2  A    between atoms: C_16  and  O_17 
ROOT
HETATM    1  C   UNL     1      44.700 -20.708   2.869  1.00  0.00     0.002 A 
HETATM    2  C   UNL     1      43.770 -19.788   2.388  1.00  0.00     0.026 A 
HETATM    3  C   UNL     1      43.268 -18.783   3.221  1.00  0.00     0.036 A 
HETATM    4  C   UNL     1      43.734 -18.674   4.552  1.00  0.00     0.053 A 
HETATM    5  N   UNL     1      43.328 -17.615   5.409  1.00  0.00    -0.356 N 
HETATM    6  C   UNL     1      43.300 -16.302   4.971  1.00  0.00     0.041 A 
HETATM    7  C   UNL     1      43.074 -15.838   3.730  1.00  0.00     0.056 A 
HETATM    8  C   UNL     1      43.371 -14.395   3.760  1.00  0.00     0.251 A 
HETATM    9  O   UNL     1      43.426 -13.642   2.808  1.00  0.00    -0.268 OA
HETATM   10  N   UNL     1      43.630 -14.056   5.062  1.00  0.00    -0.351 N 
HETATM   11  C   UNL     1      43.636 -15.187   5.925  1.00  0.00     0.180 A 
HETATM   12  C   UNL     1      42.678 -16.533   2.471  1.00  0.00     0.134 C 
HETATM   13  N   UNL     1      42.261 -17.932   2.713  1.00  0.00    -0.278 NA
HETATM   14  C   UNL     1      44.654 -19.622   5.027  1.00  0.00     0.031 A 
HETATM   15  C   UNL     1      45.134 -20.632   4.190  1.00  0.00     0.002 A 
HETATM   16  H   UNL     1      43.695 -17.725   6.351  1.00  0.00     0.166 HD
HETATM   17  H   UNL     1      43.917 -13.118   5.306  1.00  0.00     0.163 HD
HETATM   18  H   UNL     1      41.537 -17.908   3.432  1.00  0.00     0.128 HD
ENDROOT
BRANCH  12  19
HETATM   19  C   UNL     1      41.495 -15.857   1.770  1.00  0.00    -0.035 A 
HETATM   20  C   UNL     1      40.266 -15.718   2.438  1.00  0.00     0.012 A 
HETATM   21  C   UNL     1      39.175 -15.110   1.811  1.00  0.00     0.037 A 
HETATM   22  C   UNL     1      39.309 -14.630   0.513  1.00  0.00     0.065 A 
HETATM   23  C   UNL     1      40.512 -14.751  -0.169  1.00  0.00     0.037 A 
HETATM   24  C   UNL     1      41.602 -15.364   0.455  1.00  0.00     0.012 A 
BRANCH  22  25
HETATM   25  O   UNL     1      38.270 -14.030  -0.135  1.00  0.00    -0.361 OA
HETATM   26  H   UNL     1      38.627 -13.316  -0.687  1.00  0.00     0.217 HD
ENDBRANCH  22  25
ENDBRANCH  12  19
TORSDOF 2
ENDMDL
MODEL 2
REMARK VINA RESULT:      -8.2      2.519      4.834
REMARK  2 active torsions:
REMARK  status: ('A' for Active; 'I' for Inactive)
REMARK    1  A    between atoms: C_12  and  C_13 
REMARK    2  A    between atoms: C_16  and  O_17 
ROOT
HETATM    1  C   UNL     1      44.778 -22.091   3.741  1.00  0.00     0.002 A 
HETATM    2  C   UNL     1      44.767 -20.840   4.358  1.00  0.00     0.026 A 
HETATM    3  C   UNL     1      44.272 -19.720   3.682  1.00  0.00     0.036 A 
HETATM    4  C   UNL     1      43.744 -19.860   2.378  1.00  0.00     0.053 A 
HETATM    5  N   UNL     1      43.142 -18.773   1.687  1.00  0.00    -0.356 N 
HETATM    6  C   UNL     1      42.236 -17.933   2.310  1.00  0.00     0.041 A 
HETATM    7  C   UNL     1      42.172 -17.585   3.608  1.00  0.00     0.056 A 
HETATM    8  C   UNL     1      40.905 -16.855   3.785  1.00  0.00     0.251 A 
HETATM    9  O   UNL     1      40.410 -16.497   4.835  1.00  0.00    -0.268 OA
HETATM   10  N   UNL     1      40.348 -16.692   2.543  1.00  0.00    -0.351 N 
HETATM   11  C   UNL     1      41.090 -17.353   1.526  1.00  0.00     0.180 A 
HETATM   12  C   UNL     1      43.080 -17.875   4.756  1.00  0.00     0.134 C 
HETATM   13  N   UNL     1      44.366 -18.461   4.316  1.00  0.00    -0.278 NA
HETATM   14  C   UNL     1      43.782 -21.122   1.764  1.00  0.00     0.031 A 
HETATM   15  C   UNL     1      44.296 -22.230   2.442  1.00  0.00     0.002 A 
HETATM   16  H   UNL     1      42.882 -19.023   0.736  1.00  0.00     0.166 HD
HETATM   17  H   UNL     1      39.438 -16.264   2.437  1.00  0.00     0.163 HD
HETATM   18  H   UNL     1      44.756 -17.831   3.614  1.00  0.00     0.128 HD
ENDROOT
BRANCH  12  19
HETATM   19  C   UNL     1      43.440 -16.620   5.555  1.00  0.00    -0.035 A 
HETATM   20  C   UNL     1      43.596 -16.694   6.951  1.00  0.00     0.012 A 
HETATM   21  C   UNL     1      43.919 -15.556   7.696  1.00  0.00     0.037 A 
HETATM   22  C   UNL     1      44.094 -14.338   7.049  1.00  0.00     0.065 A 
HETATM   23  C   UNL     1      43.948 -14.238   5.672  1.00  0.00     0.037 A 
HETATM   24  C   UNL     1      43.621 -15.373   4.926  1.00  0.00     0.012 A 
BRANCH  22  25
HETATM   25  O   UNL     1      44.408 -13.205   7.739  1.00  0.00    -0.361 OA
HETATM   26  H   UNL     1      44.575 -12.494   7.098  1.00  0.00     0.217 HD
ENDBRANCH  22  25
ENDBRANCH  12  19
TORSDOF 2
ENDMDL
MODEL 3
REMARK VINA RESULT:      -7.9      2.911      6.722
REMARK  2 active torsions:
REMARK  status: ('A' for Active; 'I' for Inactive)
REMARK    1  A    between atoms: C_12  and  C_13 
REMARK    2  A    between atoms: C_16  and  O_17 
ROOT
HETATM    1  C   UNL     1      38.768 -12.082   2.465  1.00  0.00     0.002 A 
HETATM    2  C   UNL     1      39.464 -12.796   3.440  1.00  0.00     0.026 A 
HETATM    3  C   UNL     1      39.636 -14.179   3.320  1.00  0.00     0.036 A 
HETATM    4  C   UNL     1      39.134 -14.856   2.184  1.00  0.00     0.053 A 
HETATM    5  N   UNL     1      39.366 -16.241   1.968  1.00  0.00    -0.356 N 
HETATM    6  C   UNL     1      40.619 -16.801   2.146  1.00  0.00     0.041 A 
HETATM    7  C   UNL     1      41.591 -16.425   2.995  1.00  0.00     0.056 A 
HETATM    8  C   UNL     1      42.789 -17.203   2.634  1.00  0.00     0.251 A 
HETATM    9  O   UNL     1      43.914 -17.054   3.069  1.00  0.00    -0.268 OA
HETATM   10  N   UNL     1      42.418 -18.103   1.670  1.00  0.00    -0.351 N 
HETATM   11  C   UNL     1      41.067 -17.932   1.260  1.00  0.00     0.180 A 
HETATM   12  C   UNL     1      41.618 -15.394   4.074  1.00  0.00     0.134 C 
HETATM   13  N   UNL     1      40.268 -14.869   4.378  1.00  0.00    -0.278 NA
HETATM   14  C   UNL     1      38.418 -14.125   1.223  1.00  0.00     0.031 A 
HETATM   15  C   UNL     1      38.237 -12.747   1.362  1.00  0.00     0.002 A 
HETATM   16  H   UNL     1      38.876 -16.587   1.146  1.00  0.00     0.166 HD
HETATM   17  H   UNL     1      43.104 -18.704   1.232  1.00  0.00     0.163 HD
HETATM   18  H   UNL     1      39.672 -15.674   4.573  1.00  0.00     0.128 HD
ENDROOT
BRANCH  12  19
HETATM   19  C   UNL     1      42.166 -15.938   5.396  1.00  0.00    -0.035 A 
HETATM   20  C   UNL     1      43.267 -15.317   6.012  1.00  0.00     0.012 A 
HETATM   21  C   UNL     1      43.784 -15.805   7.216  1.00  0.00     0.037 A 
HETATM   22  C   UNL     1      43.197 -16.914   7.815  1.00  0.00     0.065 A 
HETATM   23  C   UNL     1      42.107 -17.544   7.231  1.00  0.00     0.037 A 
HETATM   24  C   UNL     1      41.593 -17.061   6.025  1.00  0.00     0.012 A 
BRANCH  22  25
HETATM   25  O   UNL     1      43.670 -17.421   8.989  1.00  0.00    -0.361 OA
HETATM   26  H   UNL     1      43.413 -16.819   9.706  1.00  0.00     0.217 HD
ENDBRANCH  22  25
ENDBRANCH  12  19
TORSDOF 2
ENDMDL
MODEL 4
REMARK VINA RESULT:      -7.8      1.763      2.206
REMARK  2 active torsions:
REMARK  status: ('A' for Active; 'I' for Inactive)
REMARK    1  A    between atoms: C_12  and  C_13 
REMARK    2  A    between atoms: C_16  and  O_17 
ROOT
HETATM    1  C   UNL     1      44.772 -20.657   3.095  1.00  0.00     0.002 A 
HETATM    2  C   UNL     1      44.019 -19.503   2.883  1.00  0.00     0.026 A 
HETATM    3  C   UNL     1      43.443 -18.823   3.962  1.00  0.00     0.036 A 
HETATM    4  C   UNL     1      43.655 -19.286   5.281  1.00  0.00     0.053 A 
HETATM    5  N   UNL     1      43.173 -18.579   6.415  1.00  0.00    -0.356 N 
HETATM    6  C   UNL     1      43.323 -17.208   6.530  1.00  0.00     0.041 A 
HETATM    7  C   UNL     1      43.369 -16.286   5.552  1.00  0.00     0.056 A 
HETATM    8  C   UNL     1      43.759 -15.017   6.189  1.00  0.00     0.251 A 
HETATM    9  O   UNL     1      44.047 -13.977   5.629  1.00  0.00    -0.268 OA
HETATM   10  N   UNL     1      43.790 -15.230   7.543  1.00  0.00    -0.351 N 
HETATM   11  C   UNL     1      43.551 -16.590   7.883  1.00  0.00     0.180 A 
HETATM   12  C   UNL     1      43.169 -16.397   4.078  1.00  0.00     0.134 C 
HETATM   13  N   UNL     1      42.614 -17.713   3.687  1.00  0.00    -0.278 NA
HETATM   14  C   UNL     1      44.398 -20.461   5.474  1.00  0.00     0.031 A 
HETATM   15  C   UNL     1      44.953 -21.142   4.388  1.00  0.00     0.002 A 
HETATM   16  H   UNL     1      43.345 -19.084   7.282  1.00  0.00     0.166 HD
HETATM   17  H   UNL     1      44.093 -14.500   8.175  1.00  0.00     0.163 HD
HETATM   18  H   UNL     1      41.771 -17.858   4.243  1.00  0.00     0.128 HD
ENDROOT
BRANCH  12  19
HETATM   19  C   UNL     1      42.192 -15.350   3.534  1.00  0.00    -0.035 A 
HETATM   20  C   UNL     1      42.619 -14.423   2.567  1.00  0.00     0.012 A 
HETATM   21  C   UNL     1      41.742 -13.457   2.065  1.00  0.00     0.037 A 
HETATM   22  C   UNL     1      40.430 -13.417   2.523  1.00  0.00     0.065 A 
HETATM   23  C   UNL     1      39.982 -14.322   3.476  1.00  0.00     0.037 A 
HETATM   24  C   UNL     1      40.858 -15.284   3.982  1.00  0.00     0.012 A 
BRANCH  22  25
HETATM   25  O   UNL     1      39.543 -12.490   2.060  1.00  0.00    -0.361 OA
HETATM   26  H   UNL     1      39.821 -11.617   2.380  1.00  0.00     0.217 HD
ENDBRANCH  22  25
ENDBRANCH  12  19
TORSDOF 2
ENDMDL
MODEL 5
REMARK VINA RESULT:      -7.7      2.330      4.126
REMARK  2 active torsions:
REMARK  status: ('A' for Active; 'I' for Inactive)
REMARK    1  A    between atoms: C_12  and  C_13 
REMARK    2  A    between atoms: C_16  and  O_17 
ROOT
HETATM    1  C   UNL     1      44.005 -21.311   6.610  1.00  0.00     0.002 A 
HETATM    2  C   UNL     1      43.587 -19.981   6.597  1.00  0.00     0.026 A 
HETATM    3  C   UNL     1      43.819 -19.174   5.478  1.00  0.00     0.036 A 
HETATM    4  C   UNL     1      44.450 -19.718   4.336  1.00  0.00     0.053 A 
HETATM    5  N   UNL     1      44.623 -18.969   3.140  1.00  0.00    -0.356 N 
HETATM    6  C   UNL     1      43.595 -18.211   2.608  1.00  0.00     0.041 A 
HETATM    7  C   UNL     1      42.590 -17.592   3.252  1.00  0.00     0.056 A 
HETATM    8  C   UNL     1      41.657 -17.117   2.216  1.00  0.00     0.251 A 
HETATM    9  O   UNL     1      40.556 -16.634   2.392  1.00  0.00    -0.268 OA
HETATM   10  N   UNL     1      42.234 -17.364   0.998  1.00  0.00    -0.351 N 
HETATM   11  C   UNL     1      43.460 -18.076   1.114  1.00  0.00     0.180 A 
HETATM   12  C   UNL     1      42.308 -17.415   4.706  1.00  0.00     0.134 C 
HETATM   13  N   UNL     1      43.458 -17.810   5.550  1.00  0.00    -0.278 NA
HETATM   14  C   UNL     1      44.884 -21.053   4.374  1.00  0.00     0.031 A 
HETATM   15  C   UNL     1      44.662 -21.844   5.504  1.00  0.00     0.002 A 
HETATM   16  H   UNL     1      45.159 -19.481   2.443  1.00  0.00     0.166 HD
HETATM   17  H   UNL     1      41.736 -17.169   0.140  1.00  0.00     0.163 HD
HETATM   18  H   UNL     1      44.270 -17.295   5.209  1.00  0.00     0.128 HD
ENDROOT
BRANCH  12  19
HETATM   19  C   UNL     1      41.995 -15.962   5.074  1.00  0.00    -0.035 A 
HETATM   20  C   UNL     1      42.978 -14.968   4.919  1.00  0.00     0.012 A 
HETATM   21  C   UNL     1      42.711 -13.638   5.256  1.00  0.00     0.037 A 
HETATM   22  C   UNL     1      41.455 -13.293   5.745  1.00  0.00     0.065 A 
HETATM   23  C   UNL     1      40.466 -14.253   5.904  1.00  0.00     0.037 A 
HETATM   24  C   UNL     1      40.733 -15.583   5.573  1.00  0.00     0.012 A 
BRANCH  22  25
HETATM   25  O   UNL     1      41.155 -12.007   6.086  1.00  0.00    -0.361 OA
HETATM   26  H   UNL     1      41.777 -11.418   5.629  1.00  0.00     0.217 HD
ENDBRANCH  22  25
ENDBRANCH  12  19
TORSDOF 2
ENDMDL
MODEL 6
REMARK VINA RESULT:      -7.7      2.394      4.192
REMARK  2 active torsions:
REMARK  status: ('A' for Active; 'I' for Inactive)
REMARK    1  A    between atoms: C_12  and  C_13 
REMARK    2  A    between atoms: C_16  and  O_17 
ROOT
HETATM    1  C   UNL     1      44.235 -19.847   4.259  1.00  0.00     0.002 A 
HETATM    2  C   UNL     1      43.697 -18.608   4.608  1.00  0.00     0.026 A 
HETATM    3  C   UNL     1      43.447 -17.641   3.629  1.00  0.00     0.036 A 
HETATM    4  C   UNL     1      43.707 -17.932   2.269  1.00  0.00     0.053 A 
HETATM    5  N   UNL     1      43.381 -17.021   1.228  1.00  0.00    -0.356 N 
HETATM    6  C   UNL     1      42.158 -16.374   1.190  1.00  0.00     0.041 A 
HETATM    7  C   UNL     1      41.372 -16.007   2.217  1.00  0.00     0.056 A 
HETATM    8  C   UNL     1      40.097 -15.559   1.631  1.00  0.00     0.251 A 
HETATM    9  O   UNL     1      39.077 -15.282   2.230  1.00  0.00    -0.268 OA
HETATM   10  N   UNL     1      40.249 -15.558   0.269  1.00  0.00    -0.351 N 
HETATM   11  C   UNL     1      41.510 -16.076  -0.136  1.00  0.00     0.180 A 
HETATM   12  C   UNL     1      41.584 -16.060   3.693  1.00  0.00     0.134 C 
HETATM   13  N   UNL     1      42.988 -16.372   4.044  1.00  0.00    -0.278 NA
HETATM   14  C   UNL     1      44.268 -19.175   1.938  1.00  0.00     0.031 A 
HETATM   15  C   UNL     1      44.529 -20.126   2.927  1.00  0.00     0.002 A 
HETATM   16  H   UNL     1      43.699 -17.350   0.320  1.00  0.00     0.166 HD
HETATM   17  H   UNL     1      39.471 -15.337  -0.338  1.00  0.00     0.163 HD
HETATM   18  H   UNL     1      43.575 -15.696   3.554  1.00  0.00     0.128 HD
ENDROOT
BRANCH  12  19
HETATM   19  C   UNL     1      41.262 -14.733   4.384  1.00  0.00    -0.035 A 
HETATM   20  C   UNL     1      41.991 -13.574   4.061  1.00  0.00     0.012 A 
HETATM   21  C   UNL     1      41.713 -12.356   4.687  1.00  0.00     0.037 A 
HETATM   22  C   UNL     1      40.699 -12.287   5.636  1.00  0.00     0.065 A 
HETATM   23  C   UNL     1      39.962 -13.414   5.972  1.00  0.00     0.037 A 
HETATM   24  C   UNL     1      40.242 -14.634   5.350  1.00  0.00     0.012 A 
BRANCH  22  25
HETATM   25  O   UNL     1      40.397 -11.118   6.270  1.00  0.00    -0.361 OA
HETATM   26  H   UNL     1      40.783 -10.387   5.761  1.00  0.00     0.217 HD
ENDBRANCH  22  25
ENDBRANCH  12  19
TORSDOF 2
ENDMDL
MODEL 7
REMARK VINA RESULT:      -7.7      1.455      1.849
REMARK  2 active torsions:
REMARK  status: ('A' for Active; 'I' for Inactive)
REMARK    1  A    between atoms: C_12  and  C_13 
REMARK    2  A    between atoms: C_16  and  O_17 
ROOT
HETATM    1  C   UNL     1      43.827 -19.574   2.411  1.00  0.00     0.002 A 
HETATM    2  C   UNL     1      42.940 -18.723   1.753  1.00  0.00     0.026 A 
HETATM    3  C   UNL     1      42.374 -17.633   2.422  1.00  0.00     0.036 A 
HETATM    4  C   UNL     1      42.730 -17.368   3.765  1.00  0.00     0.053 A 
HETATM    5  N   UNL     1      42.258 -16.220   4.458  1.00  0.00    -0.356 N 
HETATM    6  C   UNL     1      42.267 -14.967   3.871  1.00  0.00     0.041 A 
HETATM    7  C   UNL     1      42.143 -14.650   2.570  1.00  0.00     0.056 A 
HETATM    8  C   UNL     1      42.438 -13.212   2.458  1.00  0.00     0.251 A 
HETATM    9  O   UNL     1      42.572 -12.572   1.433  1.00  0.00    -0.268 OA
HETATM   10  N   UNL     1      42.591 -12.723   3.729  1.00  0.00    -0.351 N 
HETATM   11  C   UNL     1      42.525 -13.747   4.714  1.00  0.00     0.180 A 
HETATM   12  C   UNL     1      41.849 -15.489   1.372  1.00  0.00     0.134 C 
HETATM   13  N   UNL     1      41.413 -16.854   1.740  1.00  0.00    -0.278 NA
HETATM   14  C   UNL     1      43.607 -18.247   4.419  1.00  0.00     0.031 A 
HETATM   15  C   UNL     1      44.152 -19.343   3.745  1.00  0.00     0.002 A 
HETATM   16  H   UNL     1      42.546 -16.218   5.434  1.00  0.00     0.166 HD
HETATM   17  H   UNL     1      42.858 -11.760   3.885  1.00  0.00     0.163 HD
HETATM   18  H   UNL     1      40.632 -16.754   2.390  1.00  0.00     0.128 HD
ENDROOT
BRANCH  12  19
HETATM   19  C   UNL     1      40.728 -14.908   0.505  1.00  0.00    -0.035 A 
HETATM   20  C   UNL     1      39.508 -14.528   1.091  1.00  0.00     0.012 A 
HETATM   21  C   UNL     1      38.473 -14.002   0.314  1.00  0.00     0.037 A 
HETATM   22  C   UNL     1      38.655 -13.846  -1.057  1.00  0.00     0.065 A 
HETATM   23  C   UNL     1      39.850 -14.210  -1.661  1.00  0.00     0.037 A 
HETATM   24  C   UNL     1      40.883 -14.741  -0.885  1.00  0.00     0.012 A 
BRANCH  22  25
HETATM   25  O   UNL     1      37.670 -13.338  -1.851  1.00  0.00    -0.361 OA
HETATM   26  H   UNL     1      37.292 -14.066  -2.370  1.00  0.00     0.217 HD
ENDBRANCH  22  25
ENDBRANCH  12  19
TORSDOF 2
ENDMDL
MODEL 8
REMARK VINA RESULT:      -7.6      2.516      2.971
REMARK  2 active torsions:
REMARK  status: ('A' for Active; 'I' for Inactive)
REMARK    1  A    between atoms: C_12  and  C_13 
REMARK    2  A    between atoms: C_16  and  O_17 
ROOT
HETATM    1  C   UNL     1      43.499 -18.890   1.584  1.00  0.00     0.002 A 
HETATM    2  C   UNL     1      42.718 -17.802   1.974  1.00  0.00     0.026 A 
HETATM    3  C   UNL     1      42.481 -17.547   3.329  1.00  0.00     0.036 A 
HETATM    4  C   UNL     1      43.066 -18.375   4.314  1.00  0.00     0.053 A 
HETATM    5  N   UNL     1      42.936 -18.103   5.703  1.00  0.00    -0.356 N 
HETATM    6  C   UNL     1      43.115 -16.828   6.209  1.00  0.00     0.041 A 
HETATM    7  C   UNL     1      42.877 -15.648   5.610  1.00  0.00     0.056 A 
HETATM    8  C   UNL     1      43.438 -14.609   6.491  1.00  0.00     0.251 A 
HETATM    9  O   UNL     1      43.553 -13.425   6.242  1.00  0.00    -0.268 OA
HETATM   10  N   UNL     1      43.860 -15.228   7.639  1.00  0.00    -0.351 N 
HETATM   11  C   UNL     1      43.728 -16.642   7.572  1.00  0.00     0.180 A 
HETATM   12  C   UNL     1      42.258 -15.313   4.295  1.00  0.00     0.134 C 
HETATM   13  N   UNL     1      41.611 -16.488   3.668  1.00  0.00    -0.278 NA
HETATM   14  C   UNL     1      43.831 -19.478   3.904  1.00  0.00     0.031 A 
HETATM   15  C   UNL     1      44.046 -19.733   2.547  1.00  0.00     0.002 A 
HETATM   16  H   UNL     1      43.351 -18.834   6.276  1.00  0.00     0.166 HD
HETATM   17  H   UNL     1      44.335 -14.706   8.364  1.00  0.00     0.163 HD
HETATM   18  H   UNL     1      40.965 -16.876   4.356  1.00  0.00     0.128 HD
ENDROOT
BRANCH  12  19
HETATM   19  C   UNL     1      41.167 -14.244   4.411  1.00  0.00    -0.035 A 
HETATM   20  C   UNL     1      40.229 -14.305   5.457  1.00  0.00     0.012 A 
HETATM   21  C   UNL     1      39.223 -13.341   5.574  1.00  0.00     0.037 A 
HETATM   22  C   UNL     1      39.155 -12.305   4.648  1.00  0.00     0.065 A 
HETATM   23  C   UNL     1      40.070 -12.220   3.608  1.00  0.00     0.037 A 
HETATM   24  C   UNL     1      41.072 -13.185   3.487  1.00  0.00     0.012 A 
BRANCH  22  25
HETATM   25  O   UNL     1      38.190 -11.345   4.726  1.00  0.00    -0.361 OA
HETATM   26  H   UNL     1      38.349 -10.817   5.525  1.00  0.00     0.217 HD
ENDBRANCH  22  25
ENDBRANCH  12  19
TORSDOF 2
ENDMDL
MODEL 9
REMARK VINA RESULT:      -7.4      2.637      5.826
REMARK  2 active torsions:
REMARK  status: ('A' for Active; 'I' for Inactive)
REMARK    1  A    between atoms: C_12  and  C_13 
REMARK    2  A    between atoms: C_16  and  O_17 
ROOT
HETATM    1  C   UNL     1      40.781 -14.433  -0.497  1.00  0.00     0.002 A 
HETATM    2  C   UNL     1      41.365 -15.648  -0.139  1.00  0.00     0.026 A 
HETATM    3  C   UNL     1      42.229 -15.724   0.958  1.00  0.00     0.036 A 
HETATM    4  C   UNL     1      42.487 -14.571   1.734  1.00  0.00     0.053 A 
HETATM    5  N   UNL     1      43.280 -14.616   2.913  1.00  0.00    -0.356 N 
HETATM    6  C   UNL     1      43.108 -15.608   3.862  1.00  0.00     0.041 A 
HETATM    7  C   UNL     1      42.697 -16.876   3.683  1.00  0.00     0.056 A 
HETATM    8  C   UNL     1      42.476 -17.439   5.026  1.00  0.00     0.251 A 
HETATM    9  O   UNL     1      41.969 -18.511   5.294  1.00  0.00    -0.268 OA
HETATM   10  N   UNL     1      42.903 -16.509   5.937  1.00  0.00    -0.351 N 
HETATM   11  C   UNL     1      43.308 -15.293   5.320  1.00  0.00     0.180 A 
HETATM   12  C   UNL     1      42.406 -17.656   2.445  1.00  0.00     0.134 C 
HETATM   13  N   UNL     1      42.865 -16.957   1.224  1.00  0.00    -0.278 NA
HETATM   14  C   UNL     1      41.908 -13.352   1.347  1.00  0.00     0.031 A 
HETATM   15  C   UNL     1      41.060 -13.284   0.239  1.00  0.00     0.002 A 
HETATM   16  H   UNL     1      43.428 -13.691   3.309  1.00  0.00     0.166 HD
HETATM   17  H   UNL     1      42.789 -16.666   6.930  1.00  0.00     0.163 HD
HETATM   18  H   UNL     1      43.851 -16.731   1.362  1.00  0.00     0.128 HD
ENDROOT
BRANCH  12  19
HETATM   19  C   UNL     1      43.096 -19.023   2.433  1.00  0.00    -0.035 A 
HETATM   20  C   UNL     1      42.498 -20.109   1.769  1.00  0.00     0.012 A 
HETATM   21  C   UNL     1      43.111 -21.365   1.753  1.00  0.00     0.037 A 
HETATM   22  C   UNL     1      44.331 -21.541   2.398  1.00  0.00     0.065 A 
HETATM   23  C   UNL     1      44.944 -20.486   3.059  1.00  0.00     0.037 A 
HETATM   24  C   UNL     1      44.330 -19.231   3.079  1.00  0.00     0.012 A 
BRANCH  22  25
HETATM   25  O   UNL     1      44.962 -22.750   2.407  1.00  0.00    -0.361 OA
HETATM   26  H   UNL     1      45.913 -22.597   2.282  1.00  0.00     0.217 HD
ENDBRANCH  22  25
ENDBRANCH  12  19
TORSDOF 2
ENDMDL
MODEL 10
REMARK VINA RESULT:      -7.3      2.703      6.151
REMARK  2 active torsions:
REMARK  status: ('A' for Active; 'I' for Inactive)
REMARK    1  A    between atoms: C_12  and  C_13 
REMARK    2  A    between atoms: C_16  and  O_17 
ROOT
HETATM    1  C   UNL     1      44.353 -14.258   6.902  1.00  0.00     0.002 A 
HETATM    2  C   UNL     1      44.479 -15.582   6.483  1.00  0.00     0.026 A 
HETATM    3  C   UNL     1      43.477 -16.180   5.712  1.00  0.00     0.036 A 
HETATM    4  C   UNL     1      42.344 -15.429   5.322  1.00  0.00     0.053 A 
HETATM    5  N   UNL     1      41.347 -15.961   4.460  1.00  0.00    -0.356 N 
HETATM    6  C   UNL     1      41.680 -16.656   3.311  1.00  0.00     0.041 A 
HETATM    7  C   UNL     1      42.767 -17.411   3.075  1.00  0.00     0.056 A 
HETATM    8  C   UNL     1      42.746 -17.741   1.640  1.00  0.00     0.251 A 
HETATM    9  O   UNL     1      43.626 -18.287   1.003  1.00  0.00    -0.268 OA
HETATM   10  N   UNL     1      41.565 -17.271   1.128  1.00  0.00    -0.351 N 
HETATM   11  C   UNL     1      40.810 -16.544   2.088  1.00  0.00     0.180 A 
HETATM   12  C   UNL     1      43.886 -17.840   3.964  1.00  0.00     0.134 C 
HETATM   13  N   UNL     1      43.609 -17.549   5.389  1.00  0.00    -0.278 NA
HETATM   14  C   UNL     1      42.224 -14.105   5.771  1.00  0.00     0.031 A 
HETATM   15  C   UNL     1      43.222 -13.523   6.556  1.00  0.00     0.002 A 
HETATM   16  H   UNL     1      40.566 -15.320   4.339  1.00  0.00     0.166 HD
HETATM   17  H   UNL     1      41.366 -17.339   0.138  1.00  0.00     0.163 HD
HETATM   18  H   UNL     1      42.706 -17.970   5.610  1.00  0.00     0.128 HD
ENDROOT
BRANCH  12  19
HETATM   19  C   UNL     1      44.159 -19.345   3.886  1.00  0.00    -0.035 A 
HETATM   20  C   UNL     1      44.461 -20.068   5.054  1.00  0.00     0.012 A 
HETATM   21  C   UNL     1      44.719 -21.440   5.000  1.00  0.00     0.037 A 
HETATM   22  C   UNL     1      44.668 -22.101   3.777  1.00  0.00     0.065 A 
HETATM   23  C   UNL     1      44.369 -21.412   2.610  1.00  0.00     0.037 A 
HETATM   24  C   UNL     1      44.117 -20.039   2.662  1.00  0.00     0.012 A 
BRANCH  22  25
HETATM   25  O   UNL     1      44.913 -23.439   3.681  1.00  0.00    -0.361 OA
HETATM   26  H   UNL     1      44.080 -23.912   3.836  1.00  0.00     0.217 HD
ENDBRANCH  22  25
ENDBRANCH  12  19
TORSDOF 2
ENDMDL
