MODEL 1
REMARK VINA RESULT:      -9.5      0.000      0.000
REMARK  7 active torsions:
REMARK  status: ('A' for Active; 'I' for Inactive)
REMARK    1  A    between atoms: C_2  and  O_3 
REMARK    2  A    between atoms: O_3  and  C_4 
REMARK    3  A    between atoms: C_5  and  O_6 
REMARK    4  A    between atoms: C_9  and  C_10 
REMARK    5  A    between atoms: N_11  and  N_12 
REMARK       I    between atoms: N_12  and  C_13 
REMARK    6  A    between atoms: C_13  and  C_14 
REMARK    7  A    between atoms: C_18  and  C_19 
ROOT
HETATM    1  C   UNL     1      42.330 -13.261   5.327  1.00  0.00     0.121 A 
HETATM    2  N   UNL     1      42.824 -12.866   4.116  1.00  0.00    -0.272 N 
HETATM    3  H   UNL     1      42.895 -11.913   3.771  1.00  0.00     0.189 HD
HETATM    4  N   UNL     1      43.182 -13.874   3.313  1.00  0.00    -0.174 NA
HETATM    5  C   UNL     1      42.944 -14.988   4.022  1.00  0.00     0.090 A 
HETATM    6  C   UNL     1      42.448 -14.638   5.316  1.00  0.00     0.071 A 
ENDROOT
BRANCH   1   7
HETATM    7  C   UNL     1      41.775 -12.312   6.259  1.00  0.00     0.289 C 
HETATM    8  N   UNL     1      42.679 -11.841   7.204  1.00  0.00    -0.242 N 
HETATM    9  H   UNL     1      43.669 -11.909   7.000  1.00  0.00     0.192 HD
HETATM   10  O   UNL     1      40.591 -11.994   6.205  1.00  0.00    -0.264 OA
BRANCH   8  11
HETATM   11  N   UNL     1      42.390 -11.054   8.295  1.00  0.00    -0.184 NA
HETATM   12  C   UNL     1      43.184 -11.136   9.316  1.00  0.00     0.150 C 
BRANCH  12  13
HETATM   13  C   UNL     1      42.990 -10.322  10.534  1.00  0.00    -0.014 A 
HETATM   14  C   UNL     1      43.840 -10.555  11.623  1.00  0.00     0.016 A 
HETATM   15  C   UNL     1      43.724  -9.773  12.769  1.00  0.00     0.040 A 
HETATM   16  C   UNL     1      42.760  -8.773  12.811  1.00  0.00     0.099 A 
HETATM   17  C   UNL     1      41.891  -8.539  11.737  1.00  0.00     0.102 A 
HETATM   18  C   UNL     1      42.011  -9.320  10.588  1.00  0.00     0.052 A 
BRANCH  16  19
HETATM   19  O   UNL     1      42.675  -8.010  13.943  1.00  0.00    -0.358 OA
HETATM   20  H   UNL     1      42.820  -7.092  13.640  1.00  0.00     0.218 HD
ENDBRANCH  16  19
BRANCH  17  21
HETATM   21  O   UNL     1      40.996  -7.520  11.936  1.00  0.00    -0.349 OA
BRANCH  21  22
HETATM   22  C   UNL     1      39.638  -7.778  11.581  1.00  0.00     0.171 C 
HETATM   23  C   UNL     1      39.002  -8.553  12.721  1.00  0.00     0.034 C 
ENDBRANCH  21  22
ENDBRANCH  17  21
ENDBRANCH  12  13
ENDBRANCH   8  11
ENDBRANCH   1   7
BRANCH   5  24
HETATM   24  C   UNL     1      43.105 -16.341   3.462  1.00  0.00     0.005 A 
HETATM   25  C   UNL     1      43.663 -17.431   4.203  1.00  0.00    -0.012 A 
HETATM   26  C   UNL     1      43.797 -18.618   3.518  1.00  0.00    -0.012 A 
HETATM   27  C   UNL     1      44.106 -17.481   5.551  1.00  0.00     0.013 A 
HETATM   28  C   UNL     1      44.333 -19.776   4.051  1.00  0.00    -0.046 A 
HETATM   29  C   UNL     1      43.420 -18.808   2.202  1.00  0.00    -0.046 A 
HETATM   30  C   UNL     1      44.783 -19.831   5.361  1.00  0.00     0.008 A 
HETATM   31  C   UNL     1      44.346 -20.863   3.034  1.00  0.00     0.044 A 
HETATM   32  C   UNL     1      44.655 -18.654   6.109  1.00  0.00     0.001 A 
HETATM   33  C   UNL     1      43.711 -20.204   1.772  1.00  0.00     0.044 A 
HETATM   34  C   UNL     1      42.866 -17.785   1.455  1.00  0.00     0.009 A 
HETATM   35  C   UNL     1      42.721 -16.550   2.107  1.00  0.00     0.015 A 
ENDBRANCH   5  24
TORSDOF 7
ENDMDL
MODEL 2
REMARK VINA RESULT:      -9.3      1.087      1.874
REMARK  7 active torsions:
REMARK  status: ('A' for Active; 'I' for Inactive)
REMARK    1  A    between atoms: C_2  and  O_3 
REMARK    2  A    between atoms: O_3  and  C_4 
REMARK    3  A    between atoms: C_5  and  O_6 
REMARK    4  A    between atoms: C_9  and  C_10 
REMARK    5  A    between atoms: N_11  and  N_12 
REMARK       I    between atoms: N_12  and  C_13 
REMARK    6  A    between atoms: C_13  and  C_14 
REMARK    7  A    between atoms: C_18  and  C_19 
ROOT
HETATM    1  C   UNL     1      42.204 -13.176   4.608  1.00  0.00     0.121 A 
HETATM    2  N   UNL     1      42.886 -12.878   3.462  1.00  0.00    -0.272 N 
HETATM    3  H   UNL     1      43.001 -11.958   3.046  1.00  0.00     0.189 HD
HETATM    4  N   UNL     1      43.382 -13.944   2.824  1.00  0.00    -0.174 NA
HETATM    5  C   UNL     1      43.043 -14.996   3.586  1.00  0.00     0.090 A 
HETATM    6  C   UNL     1      42.338 -14.544   4.744  1.00  0.00     0.071 A 
ENDROOT
BRANCH   1   7
HETATM    7  C   UNL     1      41.494 -12.161   5.346  1.00  0.00     0.289 C 
HETATM    8  N   UNL     1      42.021 -11.892   6.604  1.00  0.00    -0.242 N 
HETATM    9  H   UNL     1      42.986 -12.140   6.786  1.00  0.00     0.192 HD
HETATM   10  O   UNL     1      40.495 -11.624   4.877  1.00  0.00    -0.264 OA
BRANCH   8  11
HETATM   11  N   UNL     1      41.462 -11.091   7.572  1.00  0.00    -0.184 NA
HETATM   12  C   UNL     1      42.164 -10.868   8.639  1.00  0.00     0.150 C 
BRANCH  12  13
HETATM   13  C   UNL     1      41.680 -10.004   9.736  1.00  0.00    -0.014 A 
HETATM   14  C   UNL     1      41.191  -8.734   9.406  1.00  0.00     0.016 A 
HETATM   15  C   UNL     1      40.678  -7.911  10.404  1.00  0.00     0.040 A 
HETATM   16  C   UNL     1      40.661  -8.367  11.716  1.00  0.00     0.099 A 
HETATM   17  C   UNL     1      41.162  -9.629  12.065  1.00  0.00     0.102 A 
HETATM   18  C   UNL     1      41.672 -10.454  11.064  1.00  0.00     0.052 A 
BRANCH  16  19
HETATM   19  O   UNL     1      40.138  -7.546  12.676  1.00  0.00    -0.358 OA
HETATM   20  H   UNL     1      40.319  -7.998  13.523  1.00  0.00     0.218 HD
ENDBRANCH  16  19
BRANCH  17  21
HETATM   21  O   UNL     1      41.075  -9.930  13.400  1.00  0.00    -0.349 OA
BRANCH  21  22
HETATM   22  C   UNL     1      42.266 -10.401  14.031  1.00  0.00     0.171 C 
HETATM   23  C   UNL     1      43.263  -9.255  14.049  1.00  0.00     0.034 C 
ENDBRANCH  21  22
ENDBRANCH  17  21
ENDBRANCH  12  13
ENDBRANCH   8  11
ENDBRANCH   1   7
BRANCH   5  24
HETATM   24  C   UNL     1      43.310 -16.389   3.188  1.00  0.00     0.005 A 
HETATM   25  C   UNL     1      43.692 -17.407   4.118  1.00  0.00    -0.012 A 
HETATM   26  C   UNL     1      43.959 -18.645   3.579  1.00  0.00    -0.012 A 
HETATM   27  C   UNL     1      43.841 -17.339   5.529  1.00  0.00     0.013 A 
HETATM   28  C   UNL     1      44.363 -19.750   4.308  1.00  0.00    -0.046 A 
HETATM   29  C   UNL     1      43.866 -18.949   2.234  1.00  0.00    -0.046 A 
HETATM   30  C   UNL     1      44.527 -19.690   5.683  1.00  0.00     0.008 A 
HETATM   31  C   UNL     1      44.583 -20.917   3.411  1.00  0.00     0.044 A 
HETATM   32  C   UNL     1      44.252 -18.456   6.286  1.00  0.00     0.001 A 
HETATM   33  C   UNL     1      44.231 -20.373   1.994  1.00  0.00     0.044 A 
HETATM   34  C   UNL     1      43.488 -17.997   1.304  1.00  0.00     0.009 A 
HETATM   35  C   UNL     1      43.218 -16.715   1.805  1.00  0.00     0.015 A 
ENDBRANCH   5  24
TORSDOF 7
ENDMDL
MODEL 3
REMARK VINA RESULT:      -9.3      3.032     11.617
REMARK  7 active torsions:
REMARK  status: ('A' for Active; 'I' for Inactive)
REMARK    1  A    between atoms: C_2  and  O_3 
REMARK    2  A    between atoms: O_3  and  C_4 
REMARK    3  A    between atoms: C_5  and  O_6 
REMARK    4  A    between atoms: C_9  and  C_10 
REMARK    5  A    between atoms: N_11  and  N_12 
REMARK       I    between atoms: N_12  and  C_13 
REMARK    6  A    between atoms: C_13  and  C_14 
REMARK    7  A    between atoms: C_18  and  C_19 
ROOT
HETATM    1  C   UNL     1      44.639 -11.688   9.383  1.00  0.00     0.121 A 
HETATM    2  N   UNL     1      45.227 -11.430  10.589  1.00  0.00    -0.272 N 
HETATM    3  H   UNL     1      46.107 -11.806  10.929  1.00  0.00     0.189 HD
HETATM    4  N   UNL     1      44.503 -10.645  11.396  1.00  0.00    -0.174 NA
HETATM    5  C   UNL     1      43.400 -10.344  10.694  1.00  0.00     0.090 A 
HETATM    6  C   UNL     1      43.473 -10.948   9.401  1.00  0.00     0.071 A 
ENDROOT
BRANCH   1   7
HETATM    7  C   UNL     1      45.220 -12.620   8.449  1.00  0.00     0.289 C 
HETATM    8  N   UNL     1      44.355 -13.624   8.028  1.00  0.00    -0.242 N 
HETATM    9  H   UNL     1      43.358 -13.468   8.113  1.00  0.00     0.192 HD
HETATM   10  O   UNL     1      46.392 -12.516   8.101  1.00  0.00    -0.264 OA
BRANCH   8  11
HETATM   11  N   UNL     1      44.682 -14.722   7.267  1.00  0.00    -0.184 NA
HETATM   12  C   UNL     1      43.726 -15.544   6.965  1.00  0.00     0.150 C 
BRANCH  12  13
HETATM   13  C   UNL     1      43.951 -16.744   6.133  1.00  0.00    -0.014 A 
HETATM   14  C   UNL     1      44.883 -17.689   6.581  1.00  0.00     0.016 A 
HETATM   15  C   UNL     1      45.085 -18.859   5.853  1.00  0.00     0.040 A 
HETATM   16  C   UNL     1      44.355 -19.065   4.689  1.00  0.00     0.099 A 
HETATM   17  C   UNL     1      43.432 -18.122   4.218  1.00  0.00     0.102 A 
HETATM   18  C   UNL     1      43.227 -16.953   4.951  1.00  0.00     0.052 A 
BRANCH  16  19
HETATM   19  O   UNL     1      44.561 -20.229   3.999  1.00  0.00    -0.358 OA
HETATM   20  H   UNL     1      43.667 -20.563   3.794  1.00  0.00     0.218 HD
ENDBRANCH  16  19
BRANCH  17  21
HETATM   21  O   UNL     1      42.795 -18.473   3.056  1.00  0.00    -0.349 OA
BRANCH  21  22
HETATM   22  C   UNL     1      42.725 -17.478   2.035  1.00  0.00     0.171 C 
HETATM   23  C   UNL     1      44.062 -17.460   1.315  1.00  0.00     0.034 C 
ENDBRANCH  21  22
ENDBRANCH  17  21
ENDBRANCH  12  13
ENDBRANCH   8  11
ENDBRANCH   1   7
BRANCH   5  24
HETATM   24  C   UNL     1      42.278  -9.575  11.260  1.00  0.00     0.005 A 
HETATM   25  C   UNL     1      42.095  -9.382  12.666  1.00  0.00    -0.012 A 
HETATM   26  C   UNL     1      40.966  -8.685  13.035  1.00  0.00    -0.012 A 
HETATM   27  C   UNL     1      42.905  -9.801  13.754  1.00  0.00     0.013 A 
HETATM   28  C   UNL     1      40.602  -8.416  14.343  1.00  0.00    -0.046 A 
HETATM   29  C   UNL     1      40.041  -8.169  12.149  1.00  0.00    -0.046 A 
HETATM   30  C   UNL     1      41.378  -8.835  15.413  1.00  0.00     0.008 A 
HETATM   31  C   UNL     1      39.319  -7.662  14.383  1.00  0.00     0.044 A 
HETATM   32  C   UNL     1      42.548  -9.534  15.092  1.00  0.00     0.001 A 
HETATM   33  C   UNL     1      38.941  -7.482  12.882  1.00  0.00     0.044 A 
HETATM   34  C   UNL     1      40.187  -8.322  10.782  1.00  0.00     0.009 A 
HETATM   35  C   UNL     1      41.318  -9.037  10.357  1.00  0.00     0.015 A 
ENDBRANCH   5  24
TORSDOF 7
ENDMDL
MODEL 4
REMARK VINA RESULT:      -9.3      2.893     11.887
REMARK  7 active torsions:
REMARK  status: ('A' for Active; 'I' for Inactive)
REMARK    1  A    between atoms: C_2  and  O_3 
REMARK    2  A    between atoms: O_3  and  C_4 
REMARK    3  A    between atoms: C_5  and  O_6 
REMARK    4  A    between atoms: C_9  and  C_10 
REMARK    5  A    between atoms: N_11  and  N_12 
REMARK       I    between atoms: N_12  and  C_13 
REMARK    6  A    between atoms: C_13  and  C_14 
REMARK    7  A    between atoms: C_18  and  C_19 
ROOT
HETATM    1  C   UNL     1      43.890 -11.872   9.366  1.00  0.00     0.121 A 
HETATM    2  N   UNL     1      43.358 -10.752   8.794  1.00  0.00    -0.272 N 
HETATM    3  H   UNL     1      43.399 -10.493   7.812  1.00  0.00     0.189 HD
HETATM    4  N   UNL     1      42.789  -9.908   9.662  1.00  0.00    -0.174 NA
HETATM    5  C   UNL     1      42.920 -10.498  10.860  1.00  0.00     0.090 A 
HETATM    6  C   UNL     1      43.570 -11.761  10.706  1.00  0.00     0.071 A 
ENDROOT
BRANCH   1   7
HETATM    7  C   UNL     1      44.656 -12.820   8.595  1.00  0.00     0.289 C 
HETATM    8  N   UNL     1      43.899 -13.592   7.722  1.00  0.00    -0.242 N 
HETATM    9  H   UNL     1      42.990 -13.248   7.438  1.00  0.00     0.192 HD
HETATM   10  O   UNL     1      45.869 -12.923   8.748  1.00  0.00    -0.264 OA
BRANCH   8  11
HETATM   11  N   UNL     1      44.341 -14.666   6.984  1.00  0.00    -0.184 NA
HETATM   12  C   UNL     1      43.509 -15.643   6.797  1.00  0.00     0.150 C 
BRANCH  12  13
HETATM   13  C   UNL     1      43.861 -16.837   6.001  1.00  0.00    -0.014 A 
HETATM   14  C   UNL     1      44.904 -17.651   6.464  1.00  0.00     0.016 A 
HETATM   15  C   UNL     1      45.230 -18.814   5.771  1.00  0.00     0.040 A 
HETATM   16  C   UNL     1      44.514 -19.145   4.628  1.00  0.00     0.099 A 
HETATM   17  C   UNL     1      43.480 -18.333   4.143  1.00  0.00     0.102 A 
HETATM   18  C   UNL     1      43.150 -17.171   4.840  1.00  0.00     0.052 A 
BRANCH  16  19
HETATM   19  O   UNL     1      44.845 -20.300   3.974  1.00  0.00    -0.358 OA
HETATM   20  H   UNL     1      44.035 -20.560   3.494  1.00  0.00     0.218 HD
ENDBRANCH  16  19
BRANCH  17  21
HETATM   21  O   UNL     1      42.873 -18.796   3.005  1.00  0.00    -0.349 OA
BRANCH  21  22
HETATM   22  C   UNL     1      42.595 -17.835   1.987  1.00  0.00     0.171 C 
HETATM   23  C   UNL     1      43.880 -17.597   1.214  1.00  0.00     0.034 C 
ENDBRANCH  21  22
ENDBRANCH  17  21
ENDBRANCH  12  13
ENDBRANCH   8  11
ENDBRANCH   1   7
BRANCH   5  24
HETATM   24  C   UNL     1      42.514  -9.849  12.119  1.00  0.00     0.005 A 
HETATM   25  C   UNL     1      41.195  -9.342  12.346  1.00  0.00    -0.012 A 
HETATM   26  C   UNL     1      40.992  -8.714  13.554  1.00  0.00    -0.012 A 
HETATM   27  C   UNL     1      40.049  -9.386  11.509  1.00  0.00     0.013 A 
HETATM   28  C   UNL     1      39.797  -8.140  13.950  1.00  0.00    -0.046 A 
HETATM   29  C   UNL     1      41.958  -8.566  14.531  1.00  0.00    -0.046 A 
HETATM   30  C   UNL     1      38.676  -8.164  13.134  1.00  0.00     0.008 A 
HETATM   31  C   UNL     1      39.931  -7.532  15.301  1.00  0.00     0.044 A 
HETATM   32  C   UNL     1      38.823  -8.806  11.899  1.00  0.00     0.001 A 
HETATM   33  C   UNL     1      41.406  -7.833  15.704  1.00  0.00     0.044 A 
HETATM   34  C   UNL     1      43.241  -9.052  14.356  1.00  0.00     0.009 A 
HETATM   35  C   UNL     1      43.500  -9.690  13.133  1.00  0.00     0.015 A 
ENDBRANCH   5  24
TORSDOF 7
ENDMDL
MODEL 5
REMARK VINA RESULT:      -9.1      8.085     11.572
REMARK  7 active torsions:
REMARK  status: ('A' for Active; 'I' for Inactive)
REMARK    1  A    between atoms: C_2  and  O_3 
REMARK    2  A    between atoms: O_3  and  C_4 
REMARK    3  A    between atoms: C_5  and  O_6 
REMARK    4  A    between atoms: C_9  and  C_10 
REMARK    5  A    between atoms: N_11  and  N_12 
REMARK       I    between atoms: N_12  and  C_13 
REMARK    6  A    between atoms: C_13  and  C_14 
REMARK    7  A    between atoms: C_18  and  C_19 
ROOT
HETATM    1  C   UNL     1      41.171 -15.158  -0.578  1.00  0.00     0.121 A 
HETATM    2  N   UNL     1      41.323 -15.660  -1.840  1.00  0.00    -0.272 N 
HETATM    3  H   UNL     1      41.458 -16.635  -2.093  1.00  0.00     0.189 HD
HETATM    4  N   UNL     1      41.353 -14.731  -2.802  1.00  0.00    -0.174 NA
HETATM    5  C   UNL     1      41.187 -13.562  -2.164  1.00  0.00     0.090 A 
HETATM    6  C   UNL     1      41.024 -13.797  -0.764  1.00  0.00     0.071 A 
ENDROOT
BRANCH   1   7
HETATM    7  C   UNL     1      41.251 -16.006   0.584  1.00  0.00     0.289 C 
HETATM    8  N   UNL     1      42.266 -16.953   0.534  1.00  0.00    -0.242 N 
HETATM    9  H   UNL     1      43.046 -16.792  -0.092  1.00  0.00     0.192 HD
HETATM   10  O   UNL     1      40.451 -15.887   1.507  1.00  0.00    -0.264 OA
BRANCH   8  11
HETATM   11  N   UNL     1      42.475 -17.980   1.425  1.00  0.00    -0.184 NA
HETATM   12  C   UNL     1      43.546 -18.695   1.272  1.00  0.00     0.150 C 
BRANCH  12  13
HETATM   13  C   UNL     1      43.889 -19.808   2.181  1.00  0.00    -0.014 A 
HETATM   14  C   UNL     1      43.975 -21.097   1.638  1.00  0.00     0.016 A 
HETATM   15  C   UNL     1      44.348 -22.164   2.451  1.00  0.00     0.040 A 
HETATM   16  C   UNL     1      44.626 -21.929   3.792  1.00  0.00     0.099 A 
HETATM   17  C   UNL     1      44.527 -20.649   4.353  1.00  0.00     0.102 A 
HETATM   18  C   UNL     1      44.159 -19.580   3.537  1.00  0.00     0.052 A 
BRANCH  16  19
HETATM   19  O   UNL     1      45.003 -22.992   4.566  1.00  0.00    -0.358 OA
HETATM   20  H   UNL     1      44.291 -23.651   4.456  1.00  0.00     0.218 HD
ENDBRANCH  16  19
BRANCH  17  21
HETATM   21  O   UNL     1      44.832 -20.583   5.688  1.00  0.00    -0.349 OA
BRANCH  21  22
HETATM   22  C   UNL     1      43.877 -19.946   6.535  1.00  0.00     0.171 C 
HETATM   23  C   UNL     1      43.505 -20.928   7.633  1.00  0.00     0.034 C 
ENDBRANCH  21  22
ENDBRANCH  17  21
ENDBRANCH  12  13
ENDBRANCH   8  11
ENDBRANCH   1   7
BRANCH   5  24
HETATM   24  C   UNL     1      41.262 -12.260  -2.851  1.00  0.00     0.005 A 
HETATM   25  C   UNL     1      42.103 -11.191  -2.407  1.00  0.00    -0.012 A 
HETATM   26  C   UNL     1      42.016 -10.020  -3.126  1.00  0.00    -0.012 A 
HETATM   27  C   UNL     1      43.023 -11.148  -1.327  1.00  0.00     0.013 A 
HETATM   28  C   UNL     1      42.729  -8.869  -2.840  1.00  0.00    -0.046 A 
HETATM   29  C   UNL     1      41.199  -9.835  -4.224  1.00  0.00    -0.046 A 
HETATM   30  C   UNL     1      43.619  -8.811  -1.779  1.00  0.00     0.008 A 
HETATM   31  C   UNL     1      42.382  -7.787  -3.802  1.00  0.00     0.044 A 
HETATM   32  C   UNL     1      43.758  -9.982  -1.024  1.00  0.00     0.001 A 
HETATM   33  C   UNL     1      41.345  -8.452  -4.757  1.00  0.00     0.044 A 
HETATM   34  C   UNL     1      40.381 -10.847  -4.693  1.00  0.00     0.009 A 
HETATM   35  C   UNL     1      40.425 -12.058  -3.984  1.00  0.00     0.015 A 
ENDBRANCH   5  24
TORSDOF 7
ENDMDL
MODEL 6
REMARK VINA RESULT:      -9.0      3.130     11.773
REMARK  7 active torsions:
REMARK  status: ('A' for Active; 'I' for Inactive)
REMARK    1  A    between atoms: C_2  and  O_3 
REMARK    2  A    between atoms: O_3  and  C_4 
REMARK    3  A    between atoms: C_5  and  O_6 
REMARK    4  A    between atoms: C_9  and  C_10 
REMARK    5  A    between atoms: N_11  and  N_12 
REMARK       I    between atoms: N_12  and  C_13 
REMARK    6  A    between atoms: C_13  and  C_14 
REMARK    7  A    between atoms: C_18  and  C_19 
ROOT
HETATM    1  C   UNL     1      44.339 -12.453   8.760  1.00  0.00     0.121 A 
HETATM    2  N   UNL     1      44.638 -12.649  10.079  1.00  0.00    -0.272 N 
HETATM    3  H   UNL     1      45.258 -13.356  10.463  1.00  0.00     0.189 HD
HETATM    4  N   UNL     1      43.975 -11.844  10.919  1.00  0.00    -0.174 NA
HETATM    5  C   UNL     1      43.223 -11.061  10.131  1.00  0.00     0.090 A 
HETATM    6  C   UNL     1      43.461 -11.386   8.760  1.00  0.00     0.071 A 
ENDROOT
BRANCH   1   7
HETATM    7  C   UNL     1      44.861 -13.320   7.734  1.00  0.00     0.289 C 
HETATM    8  N   UNL     1      43.966 -14.285   7.288  1.00  0.00    -0.242 N 
HETATM    9  H   UNL     1      42.976 -14.128   7.434  1.00  0.00     0.192 HD
HETATM   10  O   UNL     1      46.016 -13.200   7.336  1.00  0.00    -0.264 OA
BRANCH   8  11
HETATM   11  N   UNL     1      44.242 -15.328   6.436  1.00  0.00    -0.184 NA
HETATM   12  C   UNL     1      43.239 -16.026   6.002  1.00  0.00     0.150 C 
BRANCH  12  13
HETATM   13  C   UNL     1      43.410 -17.154   5.064  1.00  0.00    -0.014 A 
HETATM   14  C   UNL     1      42.745 -17.091   3.832  1.00  0.00     0.016 A 
HETATM   15  C   UNL     1      42.922 -18.110   2.899  1.00  0.00     0.040 A 
HETATM   16  C   UNL     1      43.757 -19.175   3.211  1.00  0.00     0.099 A 
HETATM   17  C   UNL     1      44.416 -19.261   4.445  1.00  0.00     0.102 A 
HETATM   18  C   UNL     1      44.241 -18.239   5.377  1.00  0.00     0.052 A 
BRANCH  16  19
HETATM   19  O   UNL     1      43.926 -20.155   2.272  1.00  0.00    -0.358 OA
HETATM   20  H   UNL     1      44.619 -20.739   2.637  1.00  0.00     0.218 HD
ENDBRANCH  16  19
BRANCH  17  21
HETATM   21  O   UNL     1      45.201 -20.374   4.599  1.00  0.00    -0.349 OA
BRANCH  21  22
HETATM   22  C   UNL     1      44.679 -21.422   5.415  1.00  0.00     0.171 C 
HETATM   23  C   UNL     1      44.673 -22.694   4.587  1.00  0.00     0.034 C 
ENDBRANCH  21  22
ENDBRANCH  17  21
ENDBRANCH  12  13
ENDBRANCH   8  11
ENDBRANCH   1   7
BRANCH   5  24
HETATM   24  C   UNL     1      42.251 -10.090  10.664  1.00  0.00     0.005 A 
HETATM   25  C   UNL     1      42.310  -9.579  11.999  1.00  0.00    -0.012 A 
HETATM   26  C   UNL     1      41.295  -8.722  12.361  1.00  0.00    -0.012 A 
HETATM   27  C   UNL     1      43.264  -9.821  13.023  1.00  0.00     0.013 A 
HETATM   28  C   UNL     1      41.164  -8.143  13.610  1.00  0.00    -0.046 A 
HETATM   29  C   UNL     1      40.266  -8.332  11.526  1.00  0.00    -0.046 A 
HETATM   30  C   UNL     1      42.081  -8.385  14.622  1.00  0.00     0.008 A 
HETATM   31  C   UNL     1      39.947  -7.288  13.665  1.00  0.00     0.044 A 
HETATM   32  C   UNL     1      43.145  -9.238  14.302  1.00  0.00     0.001 A 
HETATM   33  C   UNL     1      39.339  -7.407  12.236  1.00  0.00     0.044 A 
HETATM   34  C   UNL     1      40.179  -8.792  10.224  1.00  0.00     0.009 A 
HETATM   35  C   UNL     1      41.186  -9.680   9.813  1.00  0.00     0.015 A 
ENDBRANCH   5  24
TORSDOF 7
ENDMDL
MODEL 7
REMARK VINA RESULT:      -9.0      3.115     10.979
REMARK  7 active torsions:
REMARK  status: ('A' for Active; 'I' for Inactive)
REMARK    1  A    between atoms: C_2  and  O_3 
REMARK    2  A    between atoms: O_3  and  C_4 
REMARK    3  A    between atoms: C_5  and  O_6 
REMARK    4  A    between atoms: C_9  and  C_10 
REMARK    5  A    between atoms: N_11  and  N_12 
REMARK       I    between atoms: N_12  and  C_13 
REMARK    6  A    between atoms: C_13  and  C_14 
REMARK    7  A    between atoms: C_18  and  C_19 
ROOT
HETATM    1  C   UNL     1      41.512 -11.693   5.337  1.00  0.00     0.121 A 
HETATM    2  N   UNL     1      41.705 -10.377   5.025  1.00  0.00    -0.272 N 
HETATM    3  H   UNL     1      41.819  -9.984   4.095  1.00  0.00     0.189 HD
HETATM    4  N   UNL     1      41.808  -9.569   6.087  1.00  0.00    -0.174 NA
HETATM    5  C   UNL     1      41.652 -10.370   7.152  1.00  0.00     0.090 A 
HETATM    6  C   UNL     1      41.418 -11.711   6.715  1.00  0.00     0.071 A 
ENDROOT
BRANCH   1   7
HETATM    7  C   UNL     1      41.512 -12.715   4.321  1.00  0.00     0.289 C 
HETATM    8  N   UNL     1      41.757 -13.997   4.796  1.00  0.00    -0.242 N 
HETATM    9  H   UNL     1      41.590 -14.188   5.778  1.00  0.00     0.192 HD
HETATM   10  O   UNL     1      41.334 -12.429   3.141  1.00  0.00    -0.264 OA
BRANCH   8  11
HETATM   11  N   UNL     1      41.963 -15.127   4.040  1.00  0.00    -0.184 NA
HETATM   12  C   UNL     1      42.710 -16.057   4.548  1.00  0.00     0.150 C 
BRANCH  12  13
HETATM   13  C   UNL     1      42.983 -17.325   3.840  1.00  0.00    -0.014 A 
HETATM   14  C   UNL     1      42.288 -17.576   2.649  1.00  0.00     0.016 A 
HETATM   15  C   UNL     1      42.556 -18.735   1.925  1.00  0.00     0.040 A 
HETATM   16  C   UNL     1      43.510 -19.625   2.401  1.00  0.00     0.099 A 
HETATM   17  C   UNL     1      44.201 -19.397   3.599  1.00  0.00     0.102 A 
HETATM   18  C   UNL     1      43.936 -18.234   4.321  1.00  0.00     0.052 A 
BRANCH  16  19
HETATM   19  O   UNL     1      43.765 -20.749   1.664  1.00  0.00    -0.358 OA
HETATM   20  H   UNL     1      43.578 -21.495   2.267  1.00  0.00     0.218 HD
ENDBRANCH  16  19
BRANCH  17  21
HETATM   21  O   UNL     1      45.108 -20.370   3.932  1.00  0.00    -0.349 OA
BRANCH  21  22
HETATM   22  C   UNL     1      44.806 -21.165   5.078  1.00  0.00     0.171 C 
HETATM   23  C   UNL     1      44.734 -22.614   4.629  1.00  0.00     0.034 C 
ENDBRANCH  21  22
ENDBRANCH  17  21
ENDBRANCH  12  13
ENDBRANCH   8  11
ENDBRANCH   1   7
BRANCH   5  24
HETATM   24  C   UNL     1      41.800  -9.893   8.538  1.00  0.00     0.005 A 
HETATM   25  C   UNL     1      42.808 -10.381   9.428  1.00  0.00    -0.012 A 
HETATM   26  C   UNL     1      42.778  -9.874  10.708  1.00  0.00    -0.012 A 
HETATM   27  C   UNL     1      43.849 -11.319   9.195  1.00  0.00     0.013 A 
HETATM   28  C   UNL     1      43.652 -10.237  11.718  1.00  0.00    -0.046 A 
HETATM   29  C   UNL     1      41.865  -8.940  11.157  1.00  0.00    -0.046 A 
HETATM   30  C   UNL     1      44.661 -11.163  11.505  1.00  0.00     0.008 A 
HETATM   31  C   UNL     1      43.325  -9.514  12.976  1.00  0.00     0.044 A 
HETATM   32  C   UNL     1      44.748 -11.698  10.214  1.00  0.00     0.001 A 
HETATM   33  C   UNL     1      42.110  -8.617  12.590  1.00  0.00     0.044 A 
HETATM   34  C   UNL     1      40.882  -8.434  10.326  1.00  0.00     0.009 A 
HETATM   35  C   UNL     1      40.865  -8.931   9.013  1.00  0.00     0.015 A 
ENDBRANCH   5  24
TORSDOF 7
ENDMDL
MODEL 8
REMARK VINA RESULT:      -8.9      7.315      9.715
REMARK  7 active torsions:
REMARK  status: ('A' for Active; 'I' for Inactive)
REMARK    1  A    between atoms: C_2  and  O_3 
REMARK    2  A    between atoms: O_3  and  C_4 
REMARK    3  A    between atoms: C_5  and  O_6 
REMARK    4  A    between atoms: C_9  and  C_10 
REMARK    5  A    between atoms: N_11  and  N_12 
REMARK       I    between atoms: N_12  and  C_13 
REMARK    6  A    between atoms: C_13  and  C_14 
REMARK    7  A    between atoms: C_18  and  C_19 
ROOT
HETATM    1  C   UNL     1      41.802 -15.734   0.788  1.00  0.00     0.121 A 
HETATM    2  N   UNL     1      40.695 -16.534   0.814  1.00  0.00    -0.272 N 
HETATM    3  H   UNL     1      39.745 -16.265   0.572  1.00  0.00     0.189 HD
HETATM    4  N   UNL     1      40.921 -17.772   1.270  1.00  0.00    -0.174 NA
HETATM    5  C   UNL     1      42.236 -17.812   1.534  1.00  0.00     0.090 A 
HETATM    6  C   UNL     1      42.832 -16.557   1.199  1.00  0.00     0.071 A 
ENDROOT
BRANCH   1   7
HETATM    7  C   UNL     1      41.711 -14.335   0.451  1.00  0.00     0.289 C 
HETATM    8  N   UNL     1      42.201 -14.016  -0.809  1.00  0.00    -0.242 N 
HETATM    9  H   UNL     1      42.267 -14.753  -1.502  1.00  0.00     0.192 HD
HETATM   10  O   UNL     1      41.258 -13.523   1.252  1.00  0.00    -0.264 OA
BRANCH   8  11
HETATM   11  N   UNL     1      42.378 -12.754  -1.325  1.00  0.00    -0.184 NA
HETATM   12  C   UNL     1      42.193 -12.598  -2.598  1.00  0.00     0.150 C 
BRANCH  12  13
HETATM   13  C   UNL     1      42.330 -11.284  -3.261  1.00  0.00    -0.014 A 
HETATM   14  C   UNL     1      42.275 -11.245  -4.661  1.00  0.00     0.016 A 
HETATM   15  C   UNL     1      42.347 -10.021  -5.320  1.00  0.00     0.040 A 
HETATM   16  C   UNL     1      42.474  -8.856  -4.573  1.00  0.00     0.099 A 
HETATM   17  C   UNL     1      42.547  -8.880  -3.174  1.00  0.00     0.102 A 
HETATM   18  C   UNL     1      42.471 -10.106  -2.514  1.00  0.00     0.052 A 
BRANCH  16  19
HETATM   19  O   UNL     1      42.528  -7.666  -5.244  1.00  0.00    -0.358 OA
HETATM   20  H   UNL     1      42.722  -6.997  -4.559  1.00  0.00     0.218 HD
ENDBRANCH  16  19
BRANCH  17  21
HETATM   21  O   UNL     1      42.674  -7.649  -2.586  1.00  0.00    -0.349 OA
BRANCH  21  22
HETATM   22  C   UNL     1      42.891  -7.629  -1.176  1.00  0.00     0.171 C 
HETATM   23  C   UNL     1      44.365  -7.350  -0.939  1.00  0.00     0.034 C 
ENDBRANCH  21  22
ENDBRANCH  17  21
ENDBRANCH  12  13
ENDBRANCH   8  11
ENDBRANCH   1   7
BRANCH   5  24
HETATM   24  C   UNL     1      42.889 -18.975   2.159  1.00  0.00     0.005 A 
HETATM   25  C   UNL     1      43.353 -18.977   3.512  1.00  0.00    -0.012 A 
HETATM   26  C   UNL     1      43.991 -20.123   3.928  1.00  0.00    -0.012 A 
HETATM   27  C   UNL     1      43.256 -17.968   4.507  1.00  0.00     0.013 A 
HETATM   28  C   UNL     1      44.529 -20.310   5.190  1.00  0.00    -0.046 A 
HETATM   29  C   UNL     1      44.189 -21.239   3.138  1.00  0.00    -0.046 A 
HETATM   30  C   UNL     1      44.454 -19.325   6.163  1.00  0.00     0.008 A 
HETATM   31  C   UNL     1      45.162 -21.653   5.295  1.00  0.00     0.044 A 
HETATM   32  C   UNL     1      43.798 -18.143   5.797  1.00  0.00     0.001 A 
HETATM   33  C   UNL     1      44.919 -22.294   3.896  1.00  0.00     0.044 A 
HETATM   34  C   UNL     1      43.745 -21.284   1.829  1.00  0.00     0.009 A 
HETATM   35  C   UNL     1      43.098 -20.132   1.355  1.00  0.00     0.015 A 
ENDBRANCH   5  24
TORSDOF 7
ENDMDL
MODEL 9
REMARK VINA RESULT:      -8.9      7.536     11.843
REMARK  7 active torsions:
REMARK  status: ('A' for Active; 'I' for Inactive)
REMARK    1  A    between atoms: C_2  and  O_3 
REMARK    2  A    between atoms: O_3  and  C_4 
REMARK    3  A    between atoms: C_5  and  O_6 
REMARK    4  A    between atoms: C_9  and  C_10 
REMARK    5  A    between atoms: N_11  and  N_12 
REMARK       I    between atoms: N_12  and  C_13 
REMARK    6  A    between atoms: C_13  and  C_14 
REMARK    7  A    between atoms: C_18  and  C_19 
ROOT
HETATM    1  C   UNL     1      41.308 -15.305  -0.822  1.00  0.00     0.121 A 
HETATM    2  N   UNL     1      41.385 -15.938  -2.031  1.00  0.00    -0.272 N 
HETATM    3  H   UNL     1      41.536 -16.931  -2.189  1.00  0.00     0.189 HD
HETATM    4  N   UNL     1      41.310 -15.119  -3.086  1.00  0.00    -0.174 NA
HETATM    5  C   UNL     1      41.150 -13.892  -2.566  1.00  0.00     0.090 A 
HETATM    6  C   UNL     1      41.099 -13.978  -1.140  1.00  0.00     0.071 A 
ENDROOT
BRANCH   1   7
HETATM    7  C   UNL     1      41.504 -16.020   0.414  1.00  0.00     0.289 C 
HETATM    8  N   UNL     1      42.744 -16.636   0.530  1.00  0.00    -0.242 N 
HETATM    9  H   UNL     1      43.507 -16.297  -0.044  1.00  0.00     0.192 HD
HETATM   10  O   UNL     1      40.613 -16.078   1.256  1.00  0.00    -0.264 OA
BRANCH   8  11
HETATM   11  N   UNL     1      43.141 -17.501   1.523  1.00  0.00    -0.184 NA
HETATM   12  C   UNL     1      43.272 -18.752   1.208  1.00  0.00     0.150 C 
BRANCH  12  13
HETATM   13  C   UNL     1      43.715 -19.770   2.183  1.00  0.00    -0.014 A 
HETATM   14  C   UNL     1      43.896 -21.082   1.727  1.00  0.00     0.016 A 
HETATM   15  C   UNL     1      44.363 -22.058   2.603  1.00  0.00     0.040 A 
HETATM   16  C   UNL     1      44.641 -21.711   3.918  1.00  0.00     0.099 A 
HETATM   17  C   UNL     1      44.449 -20.406   4.394  1.00  0.00     0.102 A 
HETATM   18  C   UNL     1      43.985 -19.428   3.515  1.00  0.00     0.052 A 
BRANCH  16  19
HETATM   19  O   UNL     1      45.113 -22.685   4.755  1.00  0.00    -0.358 OA
HETATM   20  H   UNL     1      44.748 -22.463   5.633  1.00  0.00     0.218 HD
ENDBRANCH  16  19
BRANCH  17  21
HETATM   21  O   UNL     1      44.767 -20.226   5.715  1.00  0.00    -0.349 OA
BRANCH  21  22
HETATM   22  C   UNL     1      44.176 -19.104   6.371  1.00  0.00     0.171 C 
HETATM   23  C   UNL     1      45.269 -18.075   6.601  1.00  0.00     0.034 C 
ENDBRANCH  21  22
ENDBRANCH  17  21
ENDBRANCH  12  13
ENDBRANCH   8  11
ENDBRANCH   1   7
BRANCH   5  24
HETATM   24  C   UNL     1      41.127 -12.672  -3.391  1.00  0.00     0.005 A 
HETATM   25  C   UNL     1      39.917 -12.040  -3.817  1.00  0.00    -0.012 A 
HETATM   26  C   UNL     1      40.066 -10.938  -4.629  1.00  0.00    -0.012 A 
HETATM   27  C   UNL     1      38.567 -12.376  -3.529  1.00  0.00     0.013 A 
HETATM   28  C   UNL     1      39.019 -10.207  -5.161  1.00  0.00    -0.046 A 
HETATM   29  C   UNL     1      41.283 -10.421  -5.028  1.00  0.00    -0.046 A 
HETATM   30  C   UNL     1      37.698 -10.535  -4.899  1.00  0.00     0.008 A 
HETATM   31  C   UNL     1      39.534  -9.096  -6.007  1.00  0.00     0.044 A 
HETATM   32  C   UNL     1      37.489 -11.639  -4.064  1.00  0.00     0.001 A 
HETATM   33  C   UNL     1      41.083  -9.235  -5.907  1.00  0.00     0.044 A 
HETATM   34  C   UNL     1      42.477 -10.994  -4.629  1.00  0.00     0.009 A 
HETATM   35  C   UNL     1      42.375 -12.129  -3.809  1.00  0.00     0.015 A 
ENDBRANCH   5  24
TORSDOF 7
ENDMDL
MODEL 10
REMARK VINA RESULT:      -8.8      7.420     12.137
REMARK  7 active torsions:
REMARK  status: ('A' for Active; 'I' for Inactive)
REMARK    1  A    between atoms: C_2  and  O_3 
REMARK    2  A    between atoms: O_3  and  C_4 
REMARK    3  A    between atoms: C_5  and  O_6 
REMARK    4  A    between atoms: C_9  and  C_10 
REMARK    5  A    between atoms: N_11  and  N_12 
REMARK       I    between atoms: N_12  and  C_13 
REMARK    6  A    between atoms: C_13  and  C_14 
REMARK    7  A    between atoms: C_18  and  C_19 
ROOT
HETATM    1  C   UNL     1      40.844 -15.500   0.122  1.00  0.00     0.121 A 
HETATM    2  N   UNL     1      39.860 -15.872   0.993  1.00  0.00    -0.272 N 
HETATM    3  H   UNL     1      38.872 -15.642   0.928  1.00  0.00     0.189 HD
HETATM    4  N   UNL     1      40.297 -16.555   2.058  1.00  0.00    -0.174 NA
HETATM    5  C   UNL     1      41.623 -16.668   1.880  1.00  0.00     0.090 A 
HETATM    6  C   UNL     1      41.997 -16.053   0.645  1.00  0.00     0.071 A 
ENDROOT
BRANCH   1   7
HETATM    7  C   UNL     1      40.566 -14.647  -1.007  1.00  0.00     0.289 C 
HETATM    8  N   UNL     1      39.220 -14.350  -1.184  1.00  0.00    -0.242 N 
HETATM    9  H   UNL     1      38.597 -14.445  -0.390  1.00  0.00     0.192 HD
HETATM   10  O   UNL     1      41.470 -14.260  -1.741  1.00  0.00    -0.264 OA
BRANCH   8  11
HETATM   11  N   UNL     1      38.659 -13.693  -2.253  1.00  0.00    -0.184 NA
HETATM   12  C   UNL     1      37.555 -14.172  -2.735  1.00  0.00     0.150 C 
BRANCH  12  13
HETATM   13  C   UNL     1      36.847 -13.538  -3.867  1.00  0.00    -0.014 A 
HETATM   14  C   UNL     1      36.852 -12.139  -3.945  1.00  0.00     0.016 A 
HETATM   15  C   UNL     1      36.242 -11.506  -5.024  1.00  0.00     0.040 A 
HETATM   16  C   UNL     1      35.634 -12.278  -6.006  1.00  0.00     0.099 A 
HETATM   17  C   UNL     1      35.606 -13.677  -5.934  1.00  0.00     0.102 A 
HETATM   18  C   UNL     1      36.221 -14.310  -4.855  1.00  0.00     0.052 A 
BRANCH  16  19
HETATM   19  O   UNL     1      35.054 -11.632  -7.064  1.00  0.00    -0.358 OA
HETATM   20  H   UNL     1      34.093 -11.710  -6.911  1.00  0.00     0.218 HD
ENDBRANCH  16  19
BRANCH  17  21
HETATM   21  O   UNL     1      34.967 -14.292  -6.979  1.00  0.00    -0.349 OA
BRANCH  21  22
HETATM   22  C   UNL     1      35.765 -14.621  -8.116  1.00  0.00     0.171 C 
HETATM   23  C   UNL     1      34.984 -14.228  -9.358  1.00  0.00     0.034 C 
ENDBRANCH  21  22
ENDBRANCH  17  21
ENDBRANCH  12  13
ENDBRANCH   8  11
ENDBRANCH   1   7
BRANCH   5  24
HETATM   24  C   UNL     1      42.515 -17.269   2.887  1.00  0.00     0.005 A 
HETATM   25  C   UNL     1      43.085 -18.573   2.744  1.00  0.00    -0.012 A 
HETATM   26  C   UNL     1      43.854 -19.013   3.799  1.00  0.00    -0.012 A 
HETATM   27  C   UNL     1      42.982 -19.498   1.671  1.00  0.00     0.013 A 
HETATM   28  C   UNL     1      44.470 -20.250   3.861  1.00  0.00    -0.046 A 
HETATM   29  C   UNL     1      44.105 -18.279   4.942  1.00  0.00    -0.046 A 
HETATM   30  C   UNL     1      44.363 -21.166   2.826  1.00  0.00     0.008 A 
HETATM   31  C   UNL     1      45.203 -20.405   5.147  1.00  0.00     0.044 A 
HETATM   32  C   UNL     1      43.605 -20.763   1.719  1.00  0.00     0.001 A 
HETATM   33  C   UNL     1      44.963 -19.052   5.882  1.00  0.00     0.044 A 
HETATM   34  C   UNL     1      43.583 -17.009   5.114  1.00  0.00     0.009 A 
HETATM   35  C   UNL     1      42.781 -16.523   4.069  1.00  0.00     0.015 A 
ENDBRANCH   5  24
TORSDOF 7
ENDMDL
