MODEL 1
REMARK VINA RESULT:      -7.7      0.000      0.000
REMARK  9 active torsions:
REMARK  status: ('A' for Active; 'I' for Inactive)
REMARK    1  A    between atoms: C_4  and  C_5 
REMARK    2  A    between atoms: C_7  and  N_8 
REMARK       I    between atoms: N_8  and  C_9 
REMARK    3  A    between atoms: C_9  and  C_10 
REMARK    4  A    between atoms: C_10  and  O_11 
REMARK    5  A    between atoms: C_18  and  C_19 
REMARK    6  A    between atoms: C_19  and  N_20 
REMARK       I    between atoms: N_20  and  C_21 
REMARK    7  A    between atoms: C_21  and  C_22 
REMARK    8  A    between atoms: C_24  and  C_25 
REMARK    9  A    between atoms: C_25  and  O_26 
ROOT
HETATM    1  C   UNL     1      43.421 -17.041   8.346  1.00  0.00     0.079 C 
HETATM    2  C   UNL     1      43.371 -16.351   7.046  1.00  0.00     0.078 A 
HETATM    3  O   UNL     1      42.558 -16.881   6.085  1.00  0.00    -0.294 OA
HETATM    4  C   UNL     1      42.721 -16.055   5.004  1.00  0.00     0.180 A 
HETATM    5  N   UNL     1      43.542 -15.043   5.219  1.00  0.00    -0.224 NA
HETATM    6  C   UNL     1      43.993 -15.243   6.509  1.00  0.00     0.084 A 
ENDROOT
BRANCH   4   7
HETATM    7  C   UNL     1      42.005 -16.417   3.784  1.00  0.00     0.019 A 
HETATM    8  C   UNL     1      40.864 -15.712   3.360  1.00  0.00     0.045 A 
HETATM    9  C   UNL     1      40.151 -16.111   2.225  1.00  0.00     0.035 A 
HETATM   10  C   UNL     1      40.602 -17.215   1.492  1.00  0.00     0.029 A 
HETATM   11  C   UNL     1      41.739 -17.917   1.891  1.00  0.00     0.003 A 
HETATM   12  C   UNL     1      42.431 -17.525   3.037  1.00  0.00     0.016 A 
BRANCH   9  13
HETATM   13  N   UNL     1      38.973 -15.486   1.777  1.00  0.00    -0.325 N 
HETATM   14  C   UNL     1      38.849 -14.384   0.948  1.00  0.00     0.245 C 
HETATM   15  O   UNL     1      39.752 -13.778   0.380  1.00  0.00    -0.271 OA
HETATM   16  H   UNL     1      38.091 -15.840   2.139  1.00  0.00     0.169 HD
BRANCH  14  17
HETATM   17  C   UNL     1      37.380 -13.986   0.753  1.00  0.00     0.270 C 
BRANCH  17  18
HETATM   18  O   UNL     1      37.216 -12.824  -0.060  1.00  0.00    -0.387 OA
HETATM   19  C   UNL     1      36.445 -11.821   0.598  1.00  0.00     0.202 C 
ENDBRANCH  17  18
ENDBRANCH  14  17
ENDBRANCH   9  13
ENDBRANCH   4   7
BRANCH   6  20
HETATM   20  C   UNL     1      45.026 -14.364   7.111  1.00  0.00     0.185 C 
BRANCH  20  21
HETATM   21  N   UNL     1      44.434 -13.552   8.144  1.00  0.00    -0.351 N 
HETATM   22  C   UNL     1      45.084 -12.475   8.702  1.00  0.00     0.258 C 
HETATM   23  O   UNL     1      46.229 -12.177   8.369  1.00  0.00    -0.267 OA
HETATM   24  H   UNL     1      43.536 -13.828   8.517  1.00  0.00     0.163 HD
BRANCH  22  25
HETATM   25  C   UNL     1      44.328 -11.711   9.686  1.00  0.00     0.073 A 
HETATM   26  S   UNL     1      42.941 -10.791   9.277  1.00  0.00    -0.087 SA
HETATM   27  C   UNL     1      42.754 -10.204  10.873  1.00  0.00     0.007 A 
HETATM   28  C   UNL     1      43.716 -10.727  11.715  1.00  0.00     0.018 A 
HETATM   29  C   UNL     1      44.617 -11.593  11.034  1.00  0.00     0.026 A 
BRANCH  27  30
HETATM   30  C   UNL     1      41.655  -9.248  11.210  1.00  0.00     0.213 C 
BRANCH  30  31
HETATM   31  O   UNL     1      40.977  -9.791  12.342  1.00  0.00    -0.391 OA
HETATM   32  C   UNL     1      40.054 -10.801  11.965  1.00  0.00     0.201 C 
ENDBRANCH  30  31
ENDBRANCH  27  30
ENDBRANCH  22  25
ENDBRANCH  20  21
ENDBRANCH   6  20
TORSDOF 9
ENDMDL
MODEL 2
REMARK VINA RESULT:      -7.5      3.257      5.444
REMARK  9 active torsions:
REMARK  status: ('A' for Active; 'I' for Inactive)
REMARK    1  A    between atoms: C_4  and  C_5 
REMARK    2  A    between atoms: C_7  and  N_8 
REMARK       I    between atoms: N_8  and  C_9 
REMARK    3  A    between atoms: C_9  and  C_10 
REMARK    4  A    between atoms: C_10  and  O_11 
REMARK    5  A    between atoms: C_18  and  C_19 
REMARK    6  A    between atoms: C_19  and  N_20 
REMARK       I    between atoms: N_20  and  C_21 
REMARK    7  A    between atoms: C_21  and  C_22 
REMARK    8  A    between atoms: C_24  and  C_25 
REMARK    9  A    between atoms: C_25  and  O_26 
ROOT
HETATM    1  C   UNL     1      41.337 -12.407   2.992  1.00  0.00     0.079 C 
HETATM    2  C   UNL     1      41.878 -13.080   4.186  1.00  0.00     0.078 A 
HETATM    3  O   UNL     1      42.459 -14.303   4.007  1.00  0.00    -0.294 OA
HETATM    4  C   UNL     1      42.851 -14.684   5.262  1.00  0.00     0.180 A 
HETATM    5  N   UNL     1      42.590 -13.792   6.201  1.00  0.00    -0.224 NA
HETATM    6  C   UNL     1      41.935 -12.777   5.530  1.00  0.00     0.084 A 
ENDROOT
BRANCH   4   7
HETATM    7  C   UNL     1      43.460 -16.005   5.391  1.00  0.00     0.019 A 
HETATM    8  C   UNL     1      43.193 -17.034   4.470  1.00  0.00     0.045 A 
HETATM    9  C   UNL     1      43.732 -18.313   4.643  1.00  0.00     0.035 A 
HETATM   10  C   UNL     1      44.569 -18.556   5.738  1.00  0.00     0.029 A 
HETATM   11  C   UNL     1      44.854 -17.543   6.654  1.00  0.00     0.003 A 
HETATM   12  C   UNL     1      44.295 -16.276   6.484  1.00  0.00     0.016 A 
BRANCH   9  13
HETATM   13  N   UNL     1      43.463 -19.401   3.792  1.00  0.00    -0.325 N 
HETATM   14  C   UNL     1      43.814 -19.557   2.463  1.00  0.00     0.245 C 
HETATM   15  O   UNL     1      44.499 -18.799   1.783  1.00  0.00    -0.271 OA
HETATM   16  H   UNL     1      42.892 -20.155   4.167  1.00  0.00     0.169 HD
BRANCH  14  17
HETATM   17  C   UNL     1      43.273 -20.871   1.885  1.00  0.00     0.270 C 
BRANCH  17  18
HETATM   18  O   UNL     1      44.277 -21.876   1.735  1.00  0.00    -0.387 OA
HETATM   19  C   UNL     1      44.600 -22.492   2.980  1.00  0.00     0.202 C 
ENDBRANCH  17  18
ENDBRANCH  14  17
ENDBRANCH   9  13
ENDBRANCH   4   7
BRANCH   6  20
HETATM   20  C   UNL     1      41.377 -11.608   6.252  1.00  0.00     0.185 C 
BRANCH  20  21
HETATM   21  N   UNL     1      41.908 -11.562   7.591  1.00  0.00    -0.351 N 
HETATM   22  C   UNL     1      42.213 -10.380   8.226  1.00  0.00     0.258 C 
HETATM   23  O   UNL     1      42.081  -9.297   7.658  1.00  0.00    -0.267 OA
HETATM   24  H   UNL     1      42.128 -12.436   8.051  1.00  0.00     0.163 HD
BRANCH  22  25
HETATM   25  C   UNL     1      42.678 -10.494   9.602  1.00  0.00     0.073 A 
HETATM   26  S   UNL     1      41.608 -10.544  10.940  1.00  0.00    -0.087 SA
HETATM   27  C   UNL     1      42.889 -10.592  12.072  1.00  0.00     0.007 A 
HETATM   28  C   UNL     1      44.117 -10.601  11.440  1.00  0.00     0.018 A 
HETATM   29  C   UNL     1      43.995 -10.548  10.023  1.00  0.00     0.026 A 
BRANCH  27  30
HETATM   30  C   UNL     1      42.608 -10.616  13.541  1.00  0.00     0.213 C 
BRANCH  30  31
HETATM   31  O   UNL     1      43.243  -9.465  14.095  1.00  0.00    -0.391 OA
HETATM   32  C   UNL     1      42.423  -8.312  13.990  1.00  0.00     0.201 C 
ENDBRANCH  30  31
ENDBRANCH  27  30
ENDBRANCH  22  25
ENDBRANCH  20  21
ENDBRANCH   6  20
TORSDOF 9
ENDMDL
MODEL 3
REMARK VINA RESULT:      -7.4      4.020      9.820
REMARK  9 active torsions:
REMARK  status: ('A' for Active; 'I' for Inactive)
REMARK    1  A    between atoms: C_4  and  C_5 
REMARK    2  A    between atoms: C_7  and  N_8 
REMARK       I    between atoms: N_8  and  C_9 
REMARK    3  A    between atoms: C_9  and  C_10 
REMARK    4  A    between atoms: C_10  and  O_11 
REMARK    5  A    between atoms: C_18  and  C_19 
REMARK    6  A    between atoms: C_19  and  N_20 
REMARK       I    between atoms: N_20  and  C_21 
REMARK    7  A    between atoms: C_21  and  C_22 
REMARK    8  A    between atoms: C_24  and  C_25 
REMARK    9  A    between atoms: C_25  and  O_26 
ROOT
HETATM    1  C   UNL     1      39.120 -14.900   1.825  1.00  0.00     0.079 C 
HETATM    2  C   UNL     1      40.381 -15.612   2.092  1.00  0.00     0.078 A 
HETATM    3  O   UNL     1      40.803 -15.675   3.390  1.00  0.00    -0.294 OA
HETATM    4  C   UNL     1      41.982 -16.371   3.334  1.00  0.00     0.180 A 
HETATM    5  N   UNL     1      42.314 -16.769   2.119  1.00  0.00    -0.224 NA
HETATM    6  C   UNL     1      41.316 -16.258   1.311  1.00  0.00     0.084 A 
ENDROOT
BRANCH   4   7
HETATM    7  C   UNL     1      42.706 -16.544   4.590  1.00  0.00     0.019 A 
HETATM    8  C   UNL     1      42.976 -15.459   5.443  1.00  0.00     0.045 A 
HETATM    9  C   UNL     1      43.727 -15.629   6.610  1.00  0.00     0.035 A 
HETATM   10  C   UNL     1      44.190 -16.909   6.939  1.00  0.00     0.029 A 
HETATM   11  C   UNL     1      43.920 -17.998   6.111  1.00  0.00     0.003 A 
HETATM   12  C   UNL     1      43.188 -17.814   4.939  1.00  0.00     0.016 A 
BRANCH   9  13
HETATM   13  N   UNL     1      44.080 -14.580   7.477  1.00  0.00    -0.325 N 
HETATM   14  C   UNL     1      45.067 -13.624   7.311  1.00  0.00     0.245 C 
HETATM   15  O   UNL     1      45.785 -13.462   6.330  1.00  0.00    -0.271 OA
HETATM   16  H   UNL     1      43.596 -14.532   8.371  1.00  0.00     0.169 HD
BRANCH  14  17
HETATM   17  C   UNL     1      45.163 -12.692   8.526  1.00  0.00     0.270 C 
BRANCH  17  18
HETATM   18  O   UNL     1      44.587 -13.250   9.709  1.00  0.00    -0.387 OA
HETATM   19  C   UNL     1      44.471 -12.281  10.748  1.00  0.00     0.202 C 
ENDBRANCH  17  18
ENDBRANCH  14  17
ENDBRANCH   9  13
ENDBRANCH   4   7
BRANCH   6  20
HETATM   20  C   UNL     1      41.368 -16.400  -0.165  1.00  0.00     0.185 C 
BRANCH  20  21
HETATM   21  N   UNL     1      41.634 -15.120  -0.769  1.00  0.00    -0.351 N 
HETATM   22  C   UNL     1      41.325 -14.842  -2.081  1.00  0.00     0.258 C 
HETATM   23  O   UNL     1      40.837 -15.698  -2.817  1.00  0.00    -0.267 OA
HETATM   24  H   UNL     1      42.129 -14.425  -0.226  1.00  0.00     0.163 HD
BRANCH  22  25
HETATM   25  C   UNL     1      41.592 -13.481  -2.527  1.00  0.00     0.073 A 
HETATM   26  S   UNL     1      42.582 -12.396  -1.645  1.00  0.00    -0.087 SA
HETATM   27  C   UNL     1      42.304 -11.114  -2.744  1.00  0.00     0.007 A 
HETATM   28  C   UNL     1      41.494 -11.516  -3.787  1.00  0.00     0.018 A 
HETATM   29  C   UNL     1      41.087 -12.874  -3.664  1.00  0.00     0.026 A 
BRANCH  27  30
HETATM   30  C   UNL     1      42.909  -9.766  -2.512  1.00  0.00     0.213 C 
BRANCH  30  31
HETATM   31  O   UNL     1      43.822  -9.912  -1.426  1.00  0.00    -0.391 OA
HETATM   32  C   UNL     1      43.656  -8.885  -0.460  1.00  0.00     0.201 C 
ENDBRANCH  30  31
ENDBRANCH  27  30
ENDBRANCH  22  25
ENDBRANCH  20  21
ENDBRANCH   6  20
TORSDOF 9
ENDMDL
MODEL 4
REMARK VINA RESULT:      -7.3      3.899     10.358
REMARK  9 active torsions:
REMARK  status: ('A' for Active; 'I' for Inactive)
REMARK    1  A    between atoms: C_4  and  C_5 
REMARK    2  A    between atoms: C_7  and  N_8 
REMARK       I    between atoms: N_8  and  C_9 
REMARK    3  A    between atoms: C_9  and  C_10 
REMARK    4  A    between atoms: C_10  and  O_11 
REMARK    5  A    between atoms: C_18  and  C_19 
REMARK    6  A    between atoms: C_19  and  N_20 
REMARK       I    between atoms: N_20  and  C_21 
REMARK    7  A    between atoms: C_21  and  C_22 
REMARK    8  A    between atoms: C_24  and  C_25 
REMARK    9  A    between atoms: C_25  and  O_26 
ROOT
HETATM    1  C   UNL     1      43.295 -17.417   7.156  1.00  0.00     0.079 C 
HETATM    2  C   UNL     1      43.576 -16.005   6.842  1.00  0.00     0.078 A 
HETATM    3  O   UNL     1      44.219 -15.267   7.795  1.00  0.00    -0.294 OA
HETATM    4  C   UNL     1      44.332 -14.019   7.243  1.00  0.00     0.180 A 
HETATM    5  N   UNL     1      43.840 -13.924   6.021  1.00  0.00    -0.224 NA
HETATM    6  C   UNL     1      43.321 -15.180   5.768  1.00  0.00     0.084 A 
ENDROOT
BRANCH   4   7
HETATM    7  C   UNL     1      44.937 -12.982   8.075  1.00  0.00     0.019 A 
HETATM    8  C   UNL     1      44.237 -12.388   9.140  1.00  0.00     0.045 A 
HETATM    9  C   UNL     1      44.806 -11.351   9.886  1.00  0.00     0.035 A 
HETATM   10  C   UNL     1      46.102 -10.922   9.576  1.00  0.00     0.029 A 
HETATM   11  C   UNL     1      46.815 -11.510   8.531  1.00  0.00     0.003 A 
HETATM   12  C   UNL     1      46.231 -12.529   7.779  1.00  0.00     0.016 A 
BRANCH   9  13
HETATM   13  N   UNL     1      44.143 -10.676  10.927  1.00  0.00    -0.325 N 
HETATM   14  C   UNL     1      43.552 -11.214  12.058  1.00  0.00     0.245 C 
HETATM   15  O   UNL     1      43.556 -12.389  12.409  1.00  0.00    -0.271 OA
HETATM   16  H   UNL     1      44.025  -9.671  10.830  1.00  0.00     0.169 HD
BRANCH  14  17
HETATM   17  C   UNL     1      42.883 -10.132  12.915  1.00  0.00     0.270 C 
BRANCH  17  18
HETATM   18  O   UNL     1      42.552 -10.580  14.230  1.00  0.00    -0.387 OA
HETATM   19  C   UNL     1      42.011  -9.529  15.027  1.00  0.00     0.202 C 
ENDBRANCH  17  18
ENDBRANCH  14  17
ENDBRANCH   9  13
ENDBRANCH   4   7
BRANCH   6  20
HETATM   20  C   UNL     1      42.579 -15.471   4.516  1.00  0.00     0.185 C 
BRANCH  20  21
HETATM   21  N   UNL     1      42.761 -16.854   4.153  1.00  0.00    -0.351 N 
HETATM   22  C   UNL     1      43.496 -17.240   3.056  1.00  0.00     0.258 C 
HETATM   23  O   UNL     1      44.006 -16.411   2.305  1.00  0.00    -0.267 OA
HETATM   24  H   UNL     1      42.270 -17.559   4.686  1.00  0.00     0.163 HD
BRANCH  22  25
HETATM   25  C   UNL     1      43.645 -18.676   2.858  1.00  0.00     0.073 A 
HETATM   26  S   UNL     1      44.346 -19.704   4.036  1.00  0.00    -0.087 SA
HETATM   27  C   UNL     1      44.214 -21.085   3.033  1.00  0.00     0.007 A 
HETATM   28  C   UNL     1      43.614 -20.773   1.829  1.00  0.00     0.018 A 
HETATM   29  C   UNL     1      43.286 -19.392   1.730  1.00  0.00     0.026 A 
BRANCH  27  30
HETATM   30  C   UNL     1      44.717 -22.414   3.496  1.00  0.00     0.213 C 
BRANCH  30  31
HETATM   31  O   UNL     1      45.383 -22.188   4.737  1.00  0.00    -0.391 OA
HETATM   32  C   UNL     1      44.554 -22.506   5.844  1.00  0.00     0.201 C 
ENDBRANCH  30  31
ENDBRANCH  27  30
ENDBRANCH  22  25
ENDBRANCH  20  21
ENDBRANCH   6  20
TORSDOF 9
ENDMDL
MODEL 5
REMARK VINA RESULT:      -7.3      3.374      6.288
REMARK  9 active torsions:
REMARK  status: ('A' for Active; 'I' for Inactive)
REMARK    1  A    between atoms: C_4  and  C_5 
REMARK    2  A    between atoms: C_7  and  N_8 
REMARK       I    between atoms: N_8  and  C_9 
REMARK    3  A    between atoms: C_9  and  C_10 
REMARK    4  A    between atoms: C_10  and  O_11 
REMARK    5  A    between atoms: C_18  and  C_19 
REMARK    6  A    between atoms: C_19  and  N_20 
REMARK       I    between atoms: N_20  and  C_21 
REMARK    7  A    between atoms: C_21  and  C_22 
REMARK    8  A    between atoms: C_24  and  C_25 
REMARK    9  A    between atoms: C_25  and  O_26 
ROOT
HETATM    1  C   UNL     1      39.587 -14.814   2.675  1.00  0.00     0.079 C 
HETATM    2  C   UNL     1      40.448 -14.923   3.865  1.00  0.00     0.078 A 
HETATM    3  O   UNL     1      41.430 -15.873   3.844  1.00  0.00    -0.294 OA
HETATM    4  C   UNL     1      42.048 -15.754   5.060  1.00  0.00     0.180 A 
HETATM    5  N   UNL     1      41.554 -14.795   5.824  1.00  0.00    -0.224 NA
HETATM    6  C   UNL     1      40.506 -14.282   5.085  1.00  0.00     0.084 A 
ENDROOT
BRANCH   4   7
HETATM    7  C   UNL     1      43.121 -16.701   5.350  1.00  0.00     0.019 A 
HETATM    8  C   UNL     1      43.296 -17.873   4.592  1.00  0.00     0.045 A 
HETATM    9  C   UNL     1      44.287 -18.803   4.923  1.00  0.00     0.035 A 
HETATM   10  C   UNL     1      45.129 -18.541   6.010  1.00  0.00     0.029 A 
HETATM   11  C   UNL     1      44.977 -17.378   6.764  1.00  0.00     0.003 A 
HETATM   12  C   UNL     1      43.972 -16.467   6.440  1.00  0.00     0.016 A 
BRANCH   9  13
HETATM   13  N   UNL     1      44.482 -20.018   4.242  1.00  0.00    -0.325 N 
HETATM   14  C   UNL     1      44.577 -21.293   4.772  1.00  0.00     0.245 C 
HETATM   15  O   UNL     1      44.435 -21.620   5.946  1.00  0.00    -0.271 OA
HETATM   16  H   UNL     1      44.629 -19.970   3.237  1.00  0.00     0.169 HD
BRANCH  14  17
HETATM   17  C   UNL     1      44.851 -22.339   3.684  1.00  0.00     0.270 C 
BRANCH  17  18
HETATM   18  O   UNL     1      43.847 -22.371   2.669  1.00  0.00    -0.387 OA
HETATM   19  C   UNL     1      44.372 -22.010   1.393  1.00  0.00     0.202 C 
ENDBRANCH  17  18
ENDBRANCH  14  17
ENDBRANCH   9  13
ENDBRANCH   4   7
BRANCH   6  20
HETATM   20  C   UNL     1      39.613 -13.232   5.635  1.00  0.00     0.185 C 
BRANCH  20  21
HETATM   21  N   UNL     1      40.204 -12.660   6.818  1.00  0.00    -0.351 N 
HETATM   22  C   UNL     1      39.845 -11.423   7.301  1.00  0.00     0.258 C 
HETATM   23  O   UNL     1      39.021 -10.724   6.716  1.00  0.00    -0.267 OA
HETATM   24  H   UNL     1      40.960 -13.161   7.267  1.00  0.00     0.163 HD
BRANCH  22  25
HETATM   25  C   UNL     1      40.484 -11.011   8.545  1.00  0.00     0.073 A 
HETATM   26  S   UNL     1      42.129 -10.541   8.628  1.00  0.00    -0.087 SA
HETATM   27  C   UNL     1      42.069 -10.324  10.325  1.00  0.00     0.007 A 
HETATM   28  C   UNL     1      40.805 -10.576  10.818  1.00  0.00     0.018 A 
HETATM   29  C   UNL     1      39.894 -10.968   9.796  1.00  0.00     0.026 A 
BRANCH  27  30
HETATM   30  C   UNL     1      43.290  -9.913  11.084  1.00  0.00     0.213 C 
BRANCH  30  31
HETATM   31  O   UNL     1      44.002 -11.111  11.389  1.00  0.00    -0.391 OA
HETATM   32  C   UNL     1      45.229 -11.186  10.679  1.00  0.00     0.201 C 
ENDBRANCH  30  31
ENDBRANCH  27  30
ENDBRANCH  22  25
ENDBRANCH  20  21
ENDBRANCH   6  20
TORSDOF 9
ENDMDL
MODEL 6
REMARK VINA RESULT:      -7.2      3.401      8.436
REMARK  9 active torsions:
REMARK  status: ('A' for Active; 'I' for Inactive)
REMARK    1  A    between atoms: C_4  and  C_5 
REMARK    2  A    between atoms: C_7  and  N_8 
REMARK       I    between atoms: N_8  and  C_9 
REMARK    3  A    between atoms: C_9  and  C_10 
REMARK    4  A    between atoms: C_10  and  O_11 
REMARK    5  A    between atoms: C_18  and  C_19 
REMARK    6  A    between atoms: C_19  and  N_20 
REMARK       I    between atoms: N_20  and  C_21 
REMARK    7  A    between atoms: C_21  and  C_22 
REMARK    8  A    between atoms: C_24  and  C_25 
REMARK    9  A    between atoms: C_25  and  O_26 
ROOT
HETATM    1  C   UNL     1      43.616 -20.972   1.765  1.00  0.00     0.079 C 
HETATM    2  C   UNL     1      43.668 -19.659   2.431  1.00  0.00     0.078 A 
HETATM    3  O   UNL     1      43.717 -19.650   3.796  1.00  0.00    -0.294 OA
HETATM    4  C   UNL     1      43.745 -18.322   4.129  1.00  0.00     0.180 A 
HETATM    5  N   UNL     1      43.747 -17.506   3.090  1.00  0.00    -0.224 NA
HETATM    6  C   UNL     1      43.660 -18.350   1.999  1.00  0.00     0.084 A 
ENDROOT
BRANCH   4   7
HETATM    7  C   UNL     1      43.738 -17.999   5.553  1.00  0.00     0.019 A 
HETATM    8  C   UNL     1      43.721 -16.668   6.009  1.00  0.00     0.045 A 
HETATM    9  C   UNL     1      43.782 -16.374   7.375  1.00  0.00     0.035 A 
HETATM   10  C   UNL     1      43.833 -17.427   8.296  1.00  0.00     0.029 A 
HETATM   11  C   UNL     1      43.838 -18.752   7.861  1.00  0.00     0.003 A 
HETATM   12  C   UNL     1      43.799 -19.035   6.496  1.00  0.00     0.016 A 
BRANCH   9  13
HETATM   13  N   UNL     1      43.823 -15.068   7.896  1.00  0.00    -0.325 N 
HETATM   14  C   UNL     1      44.661 -14.027   7.537  1.00  0.00     0.245 C 
HETATM   15  O   UNL     1      45.492 -14.022   6.634  1.00  0.00    -0.271 OA
HETATM   16  H   UNL     1      43.201 -14.857   8.673  1.00  0.00     0.169 HD
BRANCH  14  17
HETATM   17  C   UNL     1      44.415 -12.780   8.396  1.00  0.00     0.270 C 
BRANCH  17  18
HETATM   18  O   UNL     1      45.467 -12.522   9.328  1.00  0.00    -0.387 OA
HETATM   19  C   UNL     1      46.275 -11.419   8.923  1.00  0.00     0.202 C 
ENDBRANCH  17  18
ENDBRANCH  14  17
ENDBRANCH   9  13
ENDBRANCH   4   7
BRANCH   6  20
HETATM   20  C   UNL     1      43.536 -17.818   0.619  1.00  0.00     0.185 C 
BRANCH  20  21
HETATM   21  N   UNL     1      42.860 -16.546   0.646  1.00  0.00    -0.351 N 
HETATM   22  C   UNL     1      41.492 -16.436   0.742  1.00  0.00     0.258 C 
HETATM   23  O   UNL     1      40.772 -17.433   0.771  1.00  0.00    -0.267 OA
HETATM   24  H   UNL     1      43.410 -15.707   0.520  1.00  0.00     0.163 HD
BRANCH  22  25
HETATM   25  C   UNL     1      40.962 -15.081   0.826  1.00  0.00     0.073 A 
HETATM   26  S   UNL     1      41.944 -13.726   1.198  1.00  0.00    -0.087 SA
HETATM   27  C   UNL     1      40.613 -12.650   1.176  1.00  0.00     0.007 A 
HETATM   28  C   UNL     1      39.442 -13.308   0.859  1.00  0.00     0.018 A 
HETATM   29  C   UNL     1      39.643 -14.702   0.655  1.00  0.00     0.026 A 
BRANCH  27  30
HETATM   30  C   UNL     1      40.803 -11.198   1.479  1.00  0.00     0.213 C 
BRANCH  30  31
HETATM   31  O   UNL     1      40.779 -11.072   2.899  1.00  0.00    -0.391 OA
HETATM   32  C   UNL     1      39.699 -10.261   3.336  1.00  0.00     0.201 C 
ENDBRANCH  30  31
ENDBRANCH  27  30
ENDBRANCH  22  25
ENDBRANCH  20  21
ENDBRANCH   6  20
TORSDOF 9
ENDMDL
MODEL 7
REMARK VINA RESULT:      -7.2      1.839      2.231
REMARK  9 active torsions:
REMARK  status: ('A' for Active; 'I' for Inactive)
REMARK    1  A    between atoms: C_4  and  C_5 
REMARK    2  A    between atoms: C_7  and  N_8 
REMARK       I    between atoms: N_8  and  C_9 
REMARK    3  A    between atoms: C_9  and  C_10 
REMARK    4  A    between atoms: C_10  and  O_11 
REMARK    5  A    between atoms: C_18  and  C_19 
REMARK    6  A    between atoms: C_19  and  N_20 
REMARK       I    between atoms: N_20  and  C_21 
REMARK    7  A    between atoms: C_21  and  C_22 
REMARK    8  A    between atoms: C_24  and  C_25 
REMARK    9  A    between atoms: C_25  and  O_26 
ROOT
HETATM    1  C   UNL     1      43.254 -17.055   7.913  1.00  0.00     0.079 C 
HETATM    2  C   UNL     1      43.358 -16.278   6.666  1.00  0.00     0.078 A 
HETATM    3  O   UNL     1      42.711 -16.767   5.567  1.00  0.00    -0.294 OA
HETATM    4  C   UNL     1      42.989 -15.864   4.575  1.00  0.00     0.180 A 
HETATM    5  N   UNL     1      43.728 -14.843   4.969  1.00  0.00    -0.224 NA
HETATM    6  C   UNL     1      44.002 -15.116   6.296  1.00  0.00     0.084 A 
ENDROOT
BRANCH   4   7
HETATM    7  C   UNL     1      42.467 -16.164   3.245  1.00  0.00     0.019 A 
HETATM    8  C   UNL     1      42.373 -15.176   2.248  1.00  0.00     0.045 A 
HETATM    9  C   UNL     1      41.811 -15.462   1.000  1.00  0.00     0.035 A 
HETATM   10  C   UNL     1      41.361 -16.762   0.740  1.00  0.00     0.029 A 
HETATM   11  C   UNL     1      41.459 -17.757   1.713  1.00  0.00     0.003 A 
HETATM   12  C   UNL     1      42.001 -17.456   2.961  1.00  0.00     0.016 A 
BRANCH   9  13
HETATM   13  N   UNL     1      41.637 -14.510  -0.021  1.00  0.00    -0.325 N 
HETATM   14  C   UNL     1      40.454 -13.997  -0.523  1.00  0.00     0.245 C 
HETATM   15  O   UNL     1      39.318 -14.223  -0.121  1.00  0.00    -0.271 OA
HETATM   16  H   UNL     1      42.473 -14.185  -0.501  1.00  0.00     0.169 HD
BRANCH  14  17
HETATM   17  C   UNL     1      40.707 -13.021  -1.679  1.00  0.00     0.270 C 
BRANCH  17  18
HETATM   18  O   UNL     1      42.031 -12.486  -1.684  1.00  0.00    -0.387 OA
HETATM   19  C   UNL     1      42.601 -12.492  -2.991  1.00  0.00     0.202 C 
ENDBRANCH  17  18
ENDBRANCH  14  17
ENDBRANCH   9  13
ENDBRANCH   4   7
BRANCH   6  20
HETATM   20  C   UNL     1      44.902 -14.248   7.094  1.00  0.00     0.185 C 
BRANCH  20  21
HETATM   21  N   UNL     1      44.120 -13.342   7.897  1.00  0.00    -0.351 N 
HETATM   22  C   UNL     1      44.667 -12.593   8.914  1.00  0.00     0.258 C 
HETATM   23  O   UNL     1      45.856 -12.694   9.212  1.00  0.00    -0.267 OA
HETATM   24  H   UNL     1      43.120 -13.310   7.750  1.00  0.00     0.163 HD
BRANCH  22  25
HETATM   25  C   UNL     1      43.761 -11.674   9.590  1.00  0.00     0.073 A 
HETATM   26  S   UNL     1      43.661 -11.563  11.298  1.00  0.00    -0.087 SA
HETATM   27  C   UNL     1      42.401 -10.406  11.233  1.00  0.00     0.007 A 
HETATM   28  C   UNL     1      42.082 -10.085   9.928  1.00  0.00     0.018 A 
HETATM   29  C   UNL     1      42.865 -10.810   8.986  1.00  0.00     0.026 A 
BRANCH  27  30
HETATM   30  C   UNL     1      41.789  -9.875  12.489  1.00  0.00     0.213 C 
BRANCH  30  31
HETATM   31  O   UNL     1      40.416 -10.260  12.467  1.00  0.00    -0.391 OA
HETATM   32  C   UNL     1      40.250 -11.629  12.804  1.00  0.00     0.201 C 
ENDBRANCH  30  31
ENDBRANCH  27  30
ENDBRANCH  22  25
ENDBRANCH  20  21
ENDBRANCH   6  20
TORSDOF 9
ENDMDL
MODEL 8
REMARK VINA RESULT:      -7.1      4.143     11.038
REMARK  9 active torsions:
REMARK  status: ('A' for Active; 'I' for Inactive)
REMARK    1  A    between atoms: C_4  and  C_5 
REMARK    2  A    between atoms: C_7  and  N_8 
REMARK       I    between atoms: N_8  and  C_9 
REMARK    3  A    between atoms: C_9  and  C_10 
REMARK    4  A    between atoms: C_10  and  O_11 
REMARK    5  A    between atoms: C_18  and  C_19 
REMARK    6  A    between atoms: C_19  and  N_20 
REMARK       I    between atoms: N_20  and  C_21 
REMARK    7  A    between atoms: C_21  and  C_22 
REMARK    8  A    between atoms: C_24  and  C_25 
REMARK    9  A    between atoms: C_25  and  O_26 
ROOT
HETATM    1  C   UNL     1      41.676 -13.082   0.579  1.00  0.00     0.079 C 
HETATM    2  C   UNL     1      41.963 -14.376   1.224  1.00  0.00     0.078 A 
HETATM    3  O   UNL     1      42.377 -14.349   2.525  1.00  0.00    -0.294 OA
HETATM    4  C   UNL     1      42.575 -15.665   2.849  1.00  0.00     0.180 A 
HETATM    5  N   UNL     1      42.292 -16.508   1.872  1.00  0.00    -0.224 NA
HETATM    6  C   UNL     1      41.935 -15.692   0.815  1.00  0.00     0.084 A 
ENDROOT
BRANCH   4   7
HETATM    7  C   UNL     1      43.087 -15.946   4.187  1.00  0.00     0.019 A 
HETATM    8  C   UNL     1      43.271 -14.924   5.137  1.00  0.00     0.045 A 
HETATM    9  C   UNL     1      43.825 -15.198   6.391  1.00  0.00     0.035 A 
HETATM   10  C   UNL     1      44.173 -16.516   6.707  1.00  0.00     0.029 A 
HETATM   11  C   UNL     1      43.985 -17.543   5.782  1.00  0.00     0.003 A 
HETATM   12  C   UNL     1      43.453 -17.256   4.526  1.00  0.00     0.016 A 
BRANCH   9  13
HETATM   13  N   UNL     1      44.086 -14.218   7.366  1.00  0.00    -0.325 N 
HETATM   14  C   UNL     1      45.179 -13.374   7.463  1.00  0.00     0.245 C 
HETATM   15  O   UNL     1      46.107 -13.269   6.668  1.00  0.00    -0.271 OA
HETATM   16  H   UNL     1      43.426 -14.139   8.136  1.00  0.00     0.169 HD
BRANCH  14  17
HETATM   17  C   UNL     1      45.103 -12.491   8.715  1.00  0.00     0.270 C 
BRANCH  17  18
HETATM   18  O   UNL     1      44.537 -13.162   9.842  1.00  0.00    -0.387 OA
HETATM   19  C   UNL     1      44.527 -12.332  11.002  1.00  0.00     0.202 C 
ENDBRANCH  17  18
ENDBRANCH  14  17
ENDBRANCH   9  13
ENDBRANCH   4   7
BRANCH   6  20
HETATM   20  C   UNL     1      41.633 -16.252  -0.525  1.00  0.00     0.185 C 
BRANCH  20  21
HETATM   21  N   UNL     1      40.512 -15.555  -1.103  1.00  0.00    -0.351 N 
HETATM   22  C   UNL     1      40.447 -15.237  -2.440  1.00  0.00     0.258 C 
HETATM   23  O   UNL     1      41.373 -15.502  -3.205  1.00  0.00    -0.267 OA
HETATM   24  H   UNL     1      39.779 -15.229  -0.487  1.00  0.00     0.163 HD
BRANCH  22  25
HETATM   25  C   UNL     1      39.218 -14.593  -2.886  1.00  0.00     0.073 A 
HETATM   26  S   UNL     1      38.040 -15.402  -3.832  1.00  0.00    -0.087 SA
HETATM   27  C   UNL     1      37.063 -14.003  -3.964  1.00  0.00     0.007 A 
HETATM   28  C   UNL     1      37.611 -12.942  -3.271  1.00  0.00     0.018 A 
HETATM   29  C   UNL     1      38.846 -13.282  -2.651  1.00  0.00     0.026 A 
BRANCH  27  30
HETATM   30  C   UNL     1      35.795 -14.032  -4.756  1.00  0.00     0.213 C 
BRANCH  30  31
HETATM   31  O   UNL     1      35.441 -12.673  -5.006  1.00  0.00    -0.391 OA
HETATM   32  C   UNL     1      34.616 -12.549  -6.154  1.00  0.00     0.201 C 
ENDBRANCH  30  31
ENDBRANCH  27  30
ENDBRANCH  22  25
ENDBRANCH  20  21
ENDBRANCH   6  20
TORSDOF 9
ENDMDL
MODEL 9
REMARK VINA RESULT:      -7.0      3.491      6.462
REMARK  9 active torsions:
REMARK  status: ('A' for Active; 'I' for Inactive)
REMARK    1  A    between atoms: C_4  and  C_5 
REMARK    2  A    between atoms: C_7  and  N_8 
REMARK       I    between atoms: N_8  and  C_9 
REMARK    3  A    between atoms: C_9  and  C_10 
REMARK    4  A    between atoms: C_10  and  O_11 
REMARK    5  A    between atoms: C_18  and  C_19 
REMARK    6  A    between atoms: C_19  and  N_20 
REMARK       I    between atoms: N_20  and  C_21 
REMARK    7  A    between atoms: C_21  and  C_22 
REMARK    8  A    between atoms: C_24  and  C_25 
REMARK    9  A    between atoms: C_25  and  O_26 
ROOT
HETATM    1  C   UNL     1      39.576 -15.561   2.072  1.00  0.00     0.079 C 
HETATM    2  C   UNL     1      40.604 -15.235   3.075  1.00  0.00     0.078 A 
HETATM    3  O   UNL     1      41.452 -16.238   3.452  1.00  0.00    -0.294 OA
HETATM    4  C   UNL     1      42.274 -15.660   4.383  1.00  0.00     0.180 A 
HETATM    5  N   UNL     1      42.029 -14.380   4.597  1.00  0.00    -0.224 NA
HETATM    6  C   UNL     1      40.939 -14.106   3.793  1.00  0.00     0.084 A 
ENDROOT
BRANCH   4   7
HETATM    7  C   UNL     1      43.263 -16.527   5.018  1.00  0.00     0.019 A 
HETATM    8  C   UNL     1      43.610 -17.776   4.472  1.00  0.00     0.045 A 
HETATM    9  C   UNL     1      44.510 -18.624   5.126  1.00  0.00     0.035 A 
HETATM   10  C   UNL     1      45.089 -18.202   6.328  1.00  0.00     0.029 A 
HETATM   11  C   UNL     1      44.766 -16.961   6.877  1.00  0.00     0.003 A 
HETATM   12  C   UNL     1      43.851 -16.132   6.228  1.00  0.00     0.016 A 
BRANCH   9  13
HETATM   13  N   UNL     1      44.858 -19.906   4.664  1.00  0.00    -0.325 N 
HETATM   14  C   UNL     1      44.613 -21.130   5.263  1.00  0.00     0.245 C 
HETATM   15  O   UNL     1      43.972 -21.338   6.288  1.00  0.00    -0.271 OA
HETATM   16  H   UNL     1      45.409 -19.960   3.811  1.00  0.00     0.169 HD
BRANCH  14  17
HETATM   17  C   UNL     1      45.215 -22.286   4.454  1.00  0.00     0.270 C 
BRANCH  17  18
HETATM   18  O   UNL     1      44.338 -22.781   3.442  1.00  0.00    -0.387 OA
HETATM   19  C   UNL     1      44.480 -22.061   2.219  1.00  0.00     0.202 C 
ENDBRANCH  17  18
ENDBRANCH  14  17
ENDBRANCH   9  13
ENDBRANCH   4   7
BRANCH   6  20
HETATM   20  C   UNL     1      40.278 -12.778   3.813  1.00  0.00     0.185 C 
BRANCH  20  21
HETATM   21  N   UNL     1      40.633 -12.075   5.019  1.00  0.00    -0.351 N 
HETATM   22  C   UNL     1      39.792 -11.998   6.106  1.00  0.00     0.258 C 
HETATM   23  O   UNL     1      38.670 -12.501   6.082  1.00  0.00    -0.267 OA
HETATM   24  H   UNL     1      41.504 -11.561   5.038  1.00  0.00     0.163 HD
BRANCH  22  25
HETATM   25  C   UNL     1      40.320 -11.310   7.277  1.00  0.00     0.073 A 
HETATM   26  S   UNL     1      39.367 -10.976   8.662  1.00  0.00    -0.087 SA
HETATM   27  C   UNL     1      40.642 -10.142   9.442  1.00  0.00     0.007 A 
HETATM   28  C   UNL     1      41.788 -10.145   8.672  1.00  0.00     0.018 A 
HETATM   29  C   UNL     1      41.604 -10.817   7.431  1.00  0.00     0.026 A 
BRANCH  27  30
HETATM   30  C   UNL     1      40.436  -9.523  10.787  1.00  0.00     0.213 C 
BRANCH  30  31
HETATM   31  O   UNL     1      39.026  -9.413  10.973  1.00  0.00    -0.391 OA
HETATM   32  C   UNL     1      38.697  -9.108  12.320  1.00  0.00     0.201 C 
ENDBRANCH  30  31
ENDBRANCH  27  30
ENDBRANCH  22  25
ENDBRANCH  20  21
ENDBRANCH   6  20
TORSDOF 9
ENDMDL
MODEL 10
REMARK VINA RESULT:      -6.9      3.568      9.594
REMARK  9 active torsions:
REMARK  status: ('A' for Active; 'I' for Inactive)
REMARK    1  A    between atoms: C_4  and  C_5 
REMARK    2  A    between atoms: C_7  and  N_8 
REMARK       I    between atoms: N_8  and  C_9 
REMARK    3  A    between atoms: C_9  and  C_10 
REMARK    4  A    between atoms: C_10  and  O_11 
REMARK    5  A    between atoms: C_18  and  C_19 
REMARK    6  A    between atoms: C_19  and  N_20 
REMARK       I    between atoms: N_20  and  C_21 
REMARK    7  A    between atoms: C_21  and  C_22 
REMARK    8  A    between atoms: C_24  and  C_25 
REMARK    9  A    between atoms: C_25  and  O_26 
ROOT
HETATM    1  C   UNL     1      41.909 -13.182   1.338  1.00  0.00     0.079 C 
HETATM    2  C   UNL     1      41.315 -13.073   2.682  1.00  0.00     0.078 A 
HETATM    3  O   UNL     1      41.665 -11.989   3.436  1.00  0.00    -0.294 OA
HETATM    4  C   UNL     1      40.985 -12.157   4.613  1.00  0.00     0.180 A 
HETATM    5  N   UNL     1      40.221 -13.234   4.644  1.00  0.00    -0.224 NA
HETATM    6  C   UNL     1      40.453 -13.848   3.428  1.00  0.00     0.084 A 
ENDROOT
BRANCH   4   7
HETATM    7  C   UNL     1      41.216 -11.161   5.656  1.00  0.00     0.019 A 
HETATM    8  C   UNL     1      41.748 -11.515   6.909  1.00  0.00     0.045 A 
HETATM    9  C   UNL     1      41.903 -10.562   7.921  1.00  0.00     0.035 A 
HETATM   10  C   UNL     1      41.544  -9.234   7.664  1.00  0.00     0.029 A 
HETATM   11  C   UNL     1      41.027  -8.864   6.422  1.00  0.00     0.003 A 
HETATM   12  C   UNL     1      40.857  -9.826   5.427  1.00  0.00     0.016 A 
BRANCH   9  13
HETATM   13  N   UNL     1      42.377 -10.857   9.212  1.00  0.00    -0.325 N 
HETATM   14  C   UNL     1      43.670 -11.157   9.604  1.00  0.00     0.245 C 
HETATM   15  O   UNL     1      44.676 -11.154   8.902  1.00  0.00    -0.271 OA
HETATM   16  H   UNL     1      41.689 -10.914   9.959  1.00  0.00     0.169 HD
BRANCH  14  17
HETATM   17  C   UNL     1      43.748 -11.475  11.102  1.00  0.00     0.270 C 
BRANCH  17  18
HETATM   18  O   UNL     1      42.473 -11.469  11.746  1.00  0.00    -0.387 OA
HETATM   19  C   UNL     1      42.548 -10.937  13.066  1.00  0.00     0.202 C 
ENDBRANCH  17  18
ENDBRANCH  14  17
ENDBRANCH   9  13
ENDBRANCH   4   7
BRANCH   6  20
HETATM   20  C   UNL     1      39.850 -15.163   3.099  1.00  0.00     0.185 C 
BRANCH  20  21
HETATM   21  N   UNL     1      40.796 -16.215   3.370  1.00  0.00    -0.351 N 
HETATM   22  C   UNL     1      41.330 -17.005   2.378  1.00  0.00     0.258 C 
HETATM   23  O   UNL     1      40.989 -16.872   1.204  1.00  0.00    -0.267 OA
HETATM   24  H   UNL     1      41.021 -16.422   4.334  1.00  0.00     0.163 HD
BRANCH  22  25
HETATM   25  C   UNL     1      42.325 -17.981   2.802  1.00  0.00     0.073 A 
HETATM   26  S   UNL     1      42.918 -18.060   4.408  1.00  0.00    -0.087 SA
HETATM   27  C   UNL     1      44.014 -19.318   4.032  1.00  0.00     0.007 A 
HETATM   28  C   UNL     1      43.909 -19.696   2.709  1.00  0.00     0.018 A 
HETATM   29  C   UNL     1      42.938 -18.930   2.004  1.00  0.00     0.026 A 
BRANCH  27  30
HETATM   30  C   UNL     1      44.930 -19.869   5.079  1.00  0.00     0.213 C 
BRANCH  30  31
HETATM   31  O   UNL     1      44.370 -21.113   5.495  1.00  0.00    -0.391 OA
HETATM   32  C   UNL     1      43.762 -21.013   6.774  1.00  0.00     0.201 C 
ENDBRANCH  30  31
ENDBRANCH  27  30
ENDBRANCH  22  25
ENDBRANCH  20  21
ENDBRANCH   6  20
TORSDOF 9
ENDMDL
