MODEL 1
REMARK VINA RESULT:      -8.6      0.000      0.000
REMARK  7 active torsions:
REMARK  status: ('A' for Active; 'I' for Inactive)
REMARK    1  A    between atoms: C_4  and  C_5 
REMARK    2  A    between atoms: C_7  and  C_8 
REMARK    3  A    between atoms: C_8  and  N_9 
REMARK       I    between atoms: N_9  and  C_10 
REMARK       I    between atoms: C_10  and  N_11 
REMARK    4  A    between atoms: N_11  and  C_12 
REMARK    5  A    between atoms: C_14  and  O_15 
REMARK    6  A    between atoms: O_15  and  C_16 
REMARK    7  A    between atoms: C_16  and  C_17 
ROOT
HETATM    1  N   UNL     1      43.828 -13.940   7.205  1.00  0.00    -0.339 N 
HETATM    2  C   UNL     1      45.044 -13.366   7.434  1.00  0.00     0.320 C 
HETATM    3  N   UNL     1      45.169 -12.596   8.548  1.00  0.00    -0.309 N 
HETATM    4  O   UNL     1      46.028 -13.575   6.729  1.00  0.00    -0.247 OA
HETATM    5  H   UNL     1      43.363 -14.189   8.066  1.00  0.00     0.164 HD
HETATM    6  H   UNL     1      46.144 -12.422   8.760  1.00  0.00     0.170 HD
ENDROOT
BRANCH   1   7
HETATM    7  C   UNL     1      43.698 -14.884   6.115  1.00  0.00     0.162 C 
BRANCH   7   8
HETATM    8  C   UNL     1      43.797 -16.340   6.506  1.00  0.00    -0.040 A 
HETATM    9  C   UNL     1      44.007 -17.379   5.587  1.00  0.00     0.024 A 
HETATM   10  C   UNL     1      44.036 -18.724   5.996  1.00  0.00     0.014 A 
HETATM   11  C   UNL     1      43.844 -19.027   7.348  1.00  0.00     0.015 A 
HETATM   12  C   UNL     1      43.632 -18.008   8.276  1.00  0.00     0.002 A 
HETATM   13  C   UNL     1      43.605 -16.677   7.855  1.00  0.00     0.009 A 
BRANCH  10  14
HETATM   14  C   UNL     1      44.263 -19.792   5.027  1.00  0.00     0.181 A 
HETATM   15  N   UNL     1      43.938 -19.667   3.693  1.00  0.00    -0.212 NA
HETATM   16  C   UNL     1      44.283 -20.824   3.173  1.00  0.00     0.118 A 
HETATM   17  C   UNL     1      44.185 -21.250   1.763  1.00  0.00     0.093 C 
HETATM   18  N   UNL     1      44.776 -21.623   4.163  1.00  0.00    -0.263 N 
HETATM   19  N   UNL     1      44.797 -20.983   5.342  1.00  0.00    -0.152 NA
HETATM   20  H   UNL     1      45.106 -22.580   4.112  1.00  0.00     0.190 HD
ENDBRANCH  10  14
ENDBRANCH   7   8
ENDBRANCH   1   7
BRANCH   3  21
HETATM   21  C   UNL     1      44.227 -11.957   9.374  1.00  0.00     0.039 A 
HETATM   22  C   UNL     1      44.170 -12.110  10.767  1.00  0.00     0.066 A 
HETATM   23  C   UNL     1      43.170 -11.469  11.508  1.00  0.00     0.070 A 
HETATM   24  C   UNL     1      42.231 -10.671  10.853  1.00  0.00     0.037 A 
HETATM   25  C   UNL     1      42.268 -10.526   9.470  1.00  0.00     0.005 A 
HETATM   26  C   UNL     1      43.256 -11.178   8.734  1.00  0.00     0.030 A 
BRANCH  23  27
HETATM   27  O   UNL     1      42.989 -11.556  12.861  1.00  0.00    -0.349 OA
BRANCH  27  28
HETATM   28  C   UNL     1      42.003 -10.703  13.449  1.00  0.00     0.207 C 
BRANCH  28  29
HETATM   29  C   UNL     1      42.694  -9.769  14.432  1.00  0.00     0.248 C 
HETATM   30  F   UNL     1      43.873  -9.335  13.902  1.00  0.00    -0.253 F 
ENDBRANCH  28  29
ENDBRANCH  27  28
ENDBRANCH  23  27
ENDBRANCH   3  21
TORSDOF 7
ENDMDL
MODEL 2
REMARK VINA RESULT:      -8.4      4.567      8.754
REMARK  7 active torsions:
REMARK  status: ('A' for Active; 'I' for Inactive)
REMARK    1  A    between atoms: C_4  and  C_5 
REMARK    2  A    between atoms: C_7  and  C_8 
REMARK    3  A    between atoms: C_8  and  N_9 
REMARK       I    between atoms: N_9  and  C_10 
REMARK       I    between atoms: C_10  and  N_11 
REMARK    4  A    between atoms: N_11  and  C_12 
REMARK    5  A    between atoms: C_14  and  O_15 
REMARK    6  A    between atoms: O_15  and  C_16 
REMARK    7  A    between atoms: C_16  and  C_17 
ROOT
HETATM    1  N   UNL     1      42.190 -18.357   2.163  1.00  0.00    -0.339 N 
HETATM    2  C   UNL     1      43.444 -18.420   1.630  1.00  0.00     0.320 C 
HETATM    3  N   UNL     1      44.306 -19.321   2.174  1.00  0.00    -0.309 N 
HETATM    4  O   UNL     1      43.792 -17.764   0.653  1.00  0.00    -0.247 OA
HETATM    5  H   UNL     1      41.870 -19.262   2.476  1.00  0.00     0.164 HD
HETATM    6  H   UNL     1      45.106 -19.467   1.569  1.00  0.00     0.170 HD
ENDROOT
BRANCH   1   7
HETATM    7  C   UNL     1      41.201 -17.521   1.516  1.00  0.00     0.162 C 
BRANCH   7   8
HETATM    8  C   UNL     1      40.870 -16.236   2.238  1.00  0.00    -0.040 A 
HETATM    9  C   UNL     1      41.626 -15.724   3.303  1.00  0.00     0.024 A 
HETATM   10  C   UNL     1      41.242 -14.552   3.978  1.00  0.00     0.014 A 
HETATM   11  C   UNL     1      40.076 -13.889   3.579  1.00  0.00     0.015 A 
HETATM   12  C   UNL     1      39.310 -14.384   2.524  1.00  0.00     0.002 A 
HETATM   13  C   UNL     1      39.703 -15.549   1.864  1.00  0.00     0.009 A 
BRANCH  10  14
HETATM   14  C   UNL     1      42.045 -14.030   5.079  1.00  0.00     0.181 A 
HETATM   15  N   UNL     1      43.270 -14.561   5.422  1.00  0.00    -0.212 NA
HETATM   16  C   UNL     1      43.656 -13.832   6.446  1.00  0.00     0.118 A 
HETATM   17  C   UNL     1      44.915 -13.936   7.211  1.00  0.00     0.093 C 
HETATM   18  N   UNL     1      42.687 -12.912   6.722  1.00  0.00    -0.263 N 
HETATM   19  N   UNL     1      41.668 -13.000   5.854  1.00  0.00    -0.152 NA
HETATM   20  H   UNL     1      42.653 -12.216   7.458  1.00  0.00     0.190 HD
ENDBRANCH  10  14
ENDBRANCH   7   8
ENDBRANCH   1   7
BRANCH   3  21
HETATM   21  C   UNL     1      44.326 -19.995   3.409  1.00  0.00     0.039 A 
HETATM   22  C   UNL     1      44.126 -19.370   4.648  1.00  0.00     0.066 A 
HETATM   23  C   UNL     1      44.207 -20.110   5.834  1.00  0.00     0.070 A 
HETATM   24  C   UNL     1      44.482 -21.478   5.776  1.00  0.00     0.037 A 
HETATM   25  C   UNL     1      44.700 -22.103   4.552  1.00  0.00     0.005 A 
HETATM   26  C   UNL     1      44.634 -21.360   3.375  1.00  0.00     0.030 A 
BRANCH  23  27
HETATM   27  O   UNL     1      44.058 -19.619   7.102  1.00  0.00    -0.349 OA
BRANCH  27  28
HETATM   28  C   UNL     1      44.364 -18.237   7.313  1.00  0.00     0.207 C 
BRANCH  28  29
HETATM   29  C   UNL     1      43.109 -17.533   7.804  1.00  0.00     0.248 C 
HETATM   30  F   UNL     1      42.251 -17.340   6.760  1.00  0.00    -0.253 F 
ENDBRANCH  28  29
ENDBRANCH  27  28
ENDBRANCH  23  27
ENDBRANCH   3  21
TORSDOF 7
ENDMDL
MODEL 3
REMARK VINA RESULT:      -8.3      1.788      2.365
REMARK  7 active torsions:
REMARK  status: ('A' for Active; 'I' for Inactive)
REMARK    1  A    between atoms: C_4  and  C_5 
REMARK    2  A    between atoms: C_7  and  C_8 
REMARK    3  A    between atoms: C_8  and  N_9 
REMARK       I    between atoms: N_9  and  C_10 
REMARK       I    between atoms: C_10  and  N_11 
REMARK    4  A    between atoms: N_11  and  C_12 
REMARK    5  A    between atoms: C_14  and  O_15 
REMARK    6  A    between atoms: O_15  and  C_16 
REMARK    7  A    between atoms: C_16  and  C_17 
ROOT
HETATM    1  N   UNL     1      44.087 -14.025   7.296  1.00  0.00    -0.339 N 
HETATM    2  C   UNL     1      45.233 -13.295   7.420  1.00  0.00     0.320 C 
HETATM    3  N   UNL     1      45.370 -12.538   8.542  1.00  0.00    -0.309 N 
HETATM    4  O   UNL     1      46.157 -13.354   6.612  1.00  0.00    -0.247 OA
HETATM    5  H   UNL     1      43.753 -14.352   8.190  1.00  0.00     0.164 HD
HETATM    6  H   UNL     1      46.331 -12.238   8.660  1.00  0.00     0.170 HD
ENDROOT
BRANCH   1   7
HETATM    7  C   UNL     1      43.971 -14.955   6.193  1.00  0.00     0.162 C 
BRANCH   7   8
HETATM    8  C   UNL     1      43.973 -16.416   6.576  1.00  0.00    -0.040 A 
HETATM    9  C   UNL     1      44.163 -17.461   5.659  1.00  0.00     0.024 A 
HETATM   10  C   UNL     1      44.101 -18.808   6.060  1.00  0.00     0.014 A 
HETATM   11  C   UNL     1      43.836 -19.106   7.401  1.00  0.00     0.015 A 
HETATM   12  C   UNL     1      43.642 -18.081   8.326  1.00  0.00     0.002 A 
HETATM   13  C   UNL     1      43.706 -16.749   7.914  1.00  0.00     0.009 A 
BRANCH  10  14
HETATM   14  C   UNL     1      44.309 -19.882   5.094  1.00  0.00     0.181 A 
HETATM   15  N   UNL     1      44.051 -19.731   3.748  1.00  0.00    -0.212 NA
HETATM   16  C   UNL     1      44.352 -20.904   3.235  1.00  0.00     0.118 A 
HETATM   17  C   UNL     1      44.292 -21.316   1.818  1.00  0.00     0.093 C 
HETATM   18  N   UNL     1      44.754 -21.735   4.239  1.00  0.00    -0.263 N 
HETATM   19  N   UNL     1      44.759 -21.103   5.423  1.00  0.00    -0.152 NA
HETATM   20  H   UNL     1      45.030 -22.709   4.195  1.00  0.00     0.190 HD
ENDBRANCH  10  14
ENDBRANCH   7   8
ENDBRANCH   1   7
BRANCH   3  21
HETATM   21  C   UNL     1      44.443 -12.050   9.480  1.00  0.00     0.039 A 
HETATM   22  C   UNL     1      43.437 -11.121   9.181  1.00  0.00     0.066 A 
HETATM   23  C   UNL     1      42.584 -10.655  10.188  1.00  0.00     0.070 A 
HETATM   24  C   UNL     1      42.736 -11.126  11.494  1.00  0.00     0.037 A 
HETATM   25  C   UNL     1      43.743 -12.035  11.804  1.00  0.00     0.005 A 
HETATM   26  C   UNL     1      44.600 -12.485  10.802  1.00  0.00     0.030 A 
BRANCH  23  27
HETATM   27  O   UNL     1      41.584  -9.734  10.035  1.00  0.00    -0.349 OA
BRANCH  27  28
HETATM   28  C   UNL     1      40.595  -9.996   9.034  1.00  0.00     0.207 C 
BRANCH  28  29
HETATM   29  C   UNL     1      39.576 -10.971   9.602  1.00  0.00     0.248 C 
HETATM   30  F   UNL     1      39.266 -11.911   8.663  1.00  0.00    -0.253 F 
ENDBRANCH  28  29
ENDBRANCH  27  28
ENDBRANCH  23  27
ENDBRANCH   3  21
TORSDOF 7
ENDMDL
MODEL 4
REMARK VINA RESULT:      -8.1      8.724     11.665
REMARK  7 active torsions:
REMARK  status: ('A' for Active; 'I' for Inactive)
REMARK    1  A    between atoms: C_4  and  C_5 
REMARK    2  A    between atoms: C_7  and  C_8 
REMARK    3  A    between atoms: C_8  and  N_9 
REMARK       I    between atoms: N_9  and  C_10 
REMARK       I    between atoms: C_10  and  N_11 
REMARK    4  A    between atoms: N_11  and  C_12 
REMARK    5  A    between atoms: C_14  and  O_15 
REMARK    6  A    between atoms: O_15  and  C_16 
REMARK    7  A    between atoms: C_16  and  C_17 
ROOT
HETATM    1  N   UNL     1      40.820 -14.968   1.303  1.00  0.00    -0.339 N 
HETATM    2  C   UNL     1      39.789 -15.546   1.983  1.00  0.00     0.320 C 
HETATM    3  N   UNL     1      40.109 -16.421   2.974  1.00  0.00    -0.309 N 
HETATM    4  O   UNL     1      38.611 -15.256   1.789  1.00  0.00    -0.247 OA
HETATM    5  H   UNL     1      41.620 -14.811   1.898  1.00  0.00     0.164 HD
HETATM    6  H   UNL     1      39.309 -16.601   3.569  1.00  0.00     0.170 HD
ENDROOT
BRANCH   1   7
HETATM    7  C   UNL     1      40.524 -13.923   0.346  1.00  0.00     0.162 C 
BRANCH   7   8
HETATM    8  C   UNL     1      40.186 -14.400  -1.047  1.00  0.00    -0.040 A 
HETATM    9  C   UNL     1      39.030 -14.014  -1.743  1.00  0.00     0.024 A 
HETATM   10  C   UNL     1      38.735 -14.531  -3.016  1.00  0.00     0.014 A 
HETATM   11  C   UNL     1      39.612 -15.454  -3.596  1.00  0.00     0.015 A 
HETATM   12  C   UNL     1      40.765 -15.851  -2.919  1.00  0.00     0.002 A 
HETATM   13  C   UNL     1      41.045 -15.330  -1.655  1.00  0.00     0.009 A 
BRANCH  10  14
HETATM   14  C   UNL     1      37.531 -14.113  -3.728  1.00  0.00     0.181 A 
HETATM   15  N   UNL     1      37.080 -12.810  -3.724  1.00  0.00    -0.212 NA
HETATM   16  C   UNL     1      35.989 -12.850  -4.457  1.00  0.00     0.118 A 
HETATM   17  C   UNL     1      35.097 -11.730  -4.819  1.00  0.00     0.093 C 
HETATM   18  N   UNL     1      35.780 -14.135  -4.867  1.00  0.00    -0.263 N 
HETATM   19  N   UNL     1      36.757 -14.949  -4.439  1.00  0.00    -0.152 NA
HETATM   20  H   UNL     1      35.022 -14.517  -5.420  1.00  0.00     0.190 HD
ENDBRANCH  10  14
ENDBRANCH   7   8
ENDBRANCH   1   7
BRANCH   3  21
HETATM   21  C   UNL     1      41.277 -17.151   3.259  1.00  0.00     0.039 A 
HETATM   22  C   UNL     1      41.917 -17.999   2.345  1.00  0.00     0.066 A 
HETATM   23  C   UNL     1      43.052 -18.723   2.727  1.00  0.00     0.070 A 
HETATM   24  C   UNL     1      43.549 -18.591   4.025  1.00  0.00     0.037 A 
HETATM   25  C   UNL     1      42.912 -17.766   4.945  1.00  0.00     0.005 A 
HETATM   26  C   UNL     1      41.773 -17.058   4.566  1.00  0.00     0.030 A 
BRANCH  23  27
HETATM   27  O   UNL     1      43.751 -19.599   1.942  1.00  0.00    -0.349 OA
BRANCH  27  28
HETATM   28  C   UNL     1      44.649 -20.499   2.600  1.00  0.00     0.207 C 
BRANCH  28  29
HETATM   29  C   UNL     1      44.225 -21.924   2.284  1.00  0.00     0.248 C 
HETATM   30  F   UNL     1      43.056 -21.912   1.581  1.00  0.00    -0.253 F 
ENDBRANCH  28  29
ENDBRANCH  27  28
ENDBRANCH  23  27
ENDBRANCH   3  21
TORSDOF 7
ENDMDL
MODEL 5
REMARK VINA RESULT:      -8.1      2.606      3.364
REMARK  7 active torsions:
REMARK  status: ('A' for Active; 'I' for Inactive)
REMARK    1  A    between atoms: C_4  and  C_5 
REMARK    2  A    between atoms: C_7  and  C_8 
REMARK    3  A    between atoms: C_8  and  N_9 
REMARK       I    between atoms: N_9  and  C_10 
REMARK       I    between atoms: C_10  and  N_11 
REMARK    4  A    between atoms: N_11  and  C_12 
REMARK    5  A    between atoms: C_14  and  O_15 
REMARK    6  A    between atoms: O_15  and  C_16 
REMARK    7  A    between atoms: C_16  and  C_17 
ROOT
HETATM    1  N   UNL     1      40.854 -14.982   6.307  1.00  0.00    -0.339 N 
HETATM    2  C   UNL     1      40.381 -14.212   5.286  1.00  0.00     0.320 C 
HETATM    3  N   UNL     1      40.477 -12.862   5.428  1.00  0.00    -0.309 N 
HETATM    4  O   UNL     1      39.952 -14.681   4.235  1.00  0.00    -0.247 OA
HETATM    5  H   UNL     1      41.655 -14.561   6.755  1.00  0.00     0.164 HD
HETATM    6  H   UNL     1      40.335 -12.394   4.541  1.00  0.00     0.170 HD
ENDROOT
BRANCH   1   7
HETATM    7  C   UNL     1      40.907 -16.418   6.129  1.00  0.00     0.162 C 
BRANCH   7   8
HETATM    8  C   UNL     1      42.295 -17.010   6.053  1.00  0.00    -0.040 A 
HETATM    9  C   UNL     1      42.607 -18.173   5.333  1.00  0.00     0.024 A 
HETATM   10  C   UNL     1      43.905 -18.713   5.341  1.00  0.00     0.014 A 
HETATM   11  C   UNL     1      44.901 -18.077   6.090  1.00  0.00     0.015 A 
HETATM   12  C   UNL     1      44.609 -16.922   6.814  1.00  0.00     0.002 A 
HETATM   13  C   UNL     1      43.317 -16.397   6.797  1.00  0.00     0.009 A 
BRANCH  10  14
HETATM   14  C   UNL     1      44.213 -19.920   4.580  1.00  0.00     0.181 A 
HETATM   15  N   UNL     1      43.986 -20.021   3.224  1.00  0.00    -0.212 NA
HETATM   16  C   UNL     1      44.380 -21.240   2.927  1.00  0.00     0.118 A 
HETATM   17  C   UNL     1      44.390 -21.893   1.602  1.00  0.00     0.093 C 
HETATM   18  N   UNL     1      44.807 -21.855   4.067  1.00  0.00    -0.263 N 
HETATM   19  N   UNL     1      44.734 -21.031   5.123  1.00  0.00    -0.152 NA
HETATM   20  H   UNL     1      45.149 -22.801   4.198  1.00  0.00     0.190 HD
ENDBRANCH  10  14
ENDBRANCH   7   8
ENDBRANCH   1   7
BRANCH   3  21
HETATM   21  C   UNL     1      40.649 -12.033   6.552  1.00  0.00     0.039 A 
HETATM   22  C   UNL     1      41.891 -11.564   7.000  1.00  0.00     0.066 A 
HETATM   23  C   UNL     1      41.974 -10.778   8.155  1.00  0.00     0.070 A 
HETATM   24  C   UNL     1      40.811 -10.458   8.857  1.00  0.00     0.037 A 
HETATM   25  C   UNL     1      39.575 -10.933   8.430  1.00  0.00     0.005 A 
HETATM   26  C   UNL     1      39.497 -11.728   7.288  1.00  0.00     0.030 A 
BRANCH  23  27
HETATM   27  O   UNL     1      43.121 -10.281   8.711  1.00  0.00    -0.349 OA
BRANCH  27  28
HETATM   28  C   UNL     1      43.704 -11.018   9.790  1.00  0.00     0.207 C 
BRANCH  28  29
HETATM   29  C   UNL     1      45.214 -10.842   9.737  1.00  0.00     0.248 C 
HETATM   30  F   UNL     1      45.753 -11.131  10.957  1.00  0.00    -0.253 F 
ENDBRANCH  28  29
ENDBRANCH  27  28
ENDBRANCH  23  27
ENDBRANCH   3  21
TORSDOF 7
ENDMDL
MODEL 6
REMARK VINA RESULT:      -8.1      5.090      9.150
REMARK  7 active torsions:
REMARK  status: ('A' for Active; 'I' for Inactive)
REMARK    1  A    between atoms: C_4  and  C_5 
REMARK    2  A    between atoms: C_7  and  C_8 
REMARK    3  A    between atoms: C_8  and  N_9 
REMARK       I    between atoms: N_9  and  C_10 
REMARK       I    between atoms: C_10  and  N_11 
REMARK    4  A    between atoms: N_11  and  C_12 
REMARK    5  A    between atoms: C_14  and  O_15 
REMARK    6  A    between atoms: O_15  and  C_16 
REMARK    7  A    between atoms: C_16  and  C_17 
ROOT
HETATM    1  N   UNL     1      44.383 -17.631   6.083  1.00  0.00    -0.339 N 
HETATM    2  C   UNL     1      44.196 -18.644   6.978  1.00  0.00     0.320 C 
HETATM    3  N   UNL     1      44.386 -19.914   6.529  1.00  0.00    -0.309 N 
HETATM    4  O   UNL     1      43.944 -18.452   8.165  1.00  0.00    -0.247 OA
HETATM    5  H   UNL     1      45.113 -17.847   5.420  1.00  0.00     0.164 HD
HETATM    6  H   UNL     1      44.467 -20.562   7.304  1.00  0.00     0.170 HD
ENDROOT
BRANCH   1   7
HETATM    7  C   UNL     1      44.338 -16.265   6.559  1.00  0.00     0.162 C 
BRANCH   7   8
HETATM    8  C   UNL     1      43.459 -15.331   5.760  1.00  0.00    -0.040 A 
HETATM    9  C   UNL     1      42.833 -15.690   4.556  1.00  0.00     0.024 A 
HETATM   10  C   UNL     1      42.070 -14.765   3.823  1.00  0.00     0.014 A 
HETATM   11  C   UNL     1      41.941 -13.457   4.304  1.00  0.00     0.015 A 
HETATM   12  C   UNL     1      42.558 -13.081   5.497  1.00  0.00     0.002 A 
HETATM   13  C   UNL     1      43.312 -14.010   6.214  1.00  0.00     0.009 A 
BRANCH  10  14
HETATM   14  C   UNL     1      41.420 -15.158   2.577  1.00  0.00     0.181 A 
HETATM   15  N   UNL     1      41.744 -14.597   1.360  1.00  0.00    -0.212 NA
HETATM   16  C   UNL     1      40.945 -15.203   0.509  1.00  0.00     0.118 A 
HETATM   17  C   UNL     1      40.869 -15.017  -0.954  1.00  0.00     0.093 C 
HETATM   18  N   UNL     1      40.154 -16.078   1.194  1.00  0.00    -0.263 N 
HETATM   19  N   UNL     1      40.452 -16.086   2.502  1.00  0.00    -0.152 NA
HETATM   20  H   UNL     1      39.416 -16.682   0.849  1.00  0.00     0.190 HD
ENDBRANCH  10  14
ENDBRANCH   7   8
ENDBRANCH   1   7
BRANCH   3  21
HETATM   21  C   UNL     1      44.405 -20.475   5.240  1.00  0.00     0.039 A 
HETATM   22  C   UNL     1      44.035 -19.786   4.077  1.00  0.00     0.066 A 
HETATM   23  C   UNL     1      44.041 -20.436   2.837  1.00  0.00     0.070 A 
HETATM   24  C   UNL     1      44.425 -21.776   2.764  1.00  0.00     0.037 A 
HETATM   25  C   UNL     1      44.777 -22.475   3.914  1.00  0.00     0.005 A 
HETATM   26  C   UNL     1      44.754 -21.828   5.149  1.00  0.00     0.030 A 
BRANCH  23  27
HETATM   27  O   UNL     1      43.680 -19.887   1.637  1.00  0.00    -0.349 OA
BRANCH  27  28
HETATM   28  C   UNL     1      42.894 -18.692   1.669  1.00  0.00     0.207 C 
BRANCH  28  29
HETATM   29  C   UNL     1      43.615 -17.616   0.873  1.00  0.00     0.248 C 
HETATM   30  F   UNL     1      44.811 -17.329   1.464  1.00  0.00    -0.253 F 
ENDBRANCH  28  29
ENDBRANCH  27  28
ENDBRANCH  23  27
ENDBRANCH   3  21
TORSDOF 7
ENDMDL
MODEL 7
REMARK VINA RESULT:      -8.0      2.487      3.730
REMARK  7 active torsions:
REMARK  status: ('A' for Active; 'I' for Inactive)
REMARK    1  A    between atoms: C_4  and  C_5 
REMARK    2  A    between atoms: C_7  and  C_8 
REMARK    3  A    between atoms: C_8  and  N_9 
REMARK       I    between atoms: N_9  and  C_10 
REMARK       I    between atoms: C_10  and  N_11 
REMARK    4  A    between atoms: N_11  and  C_12 
REMARK    5  A    between atoms: C_14  and  O_15 
REMARK    6  A    between atoms: O_15  and  C_16 
REMARK    7  A    between atoms: C_16  and  C_17 
ROOT
HETATM    1  N   UNL     1      44.608 -12.534   8.851  1.00  0.00    -0.339 N 
HETATM    2  C   UNL     1      45.209 -11.397   9.303  1.00  0.00     0.320 C 
HETATM    3  N   UNL     1      44.666 -10.798  10.397  1.00  0.00    -0.309 N 
HETATM    4  O   UNL     1      46.243 -10.945   8.817  1.00  0.00    -0.247 OA
HETATM    5  H   UNL     1      44.223 -13.081   9.608  1.00  0.00     0.164 HD
HETATM    6  H   UNL     1      45.307 -10.123  10.796  1.00  0.00     0.170 HD
ENDROOT
BRANCH   1   7
HETATM    7  C   UNL     1      45.242 -13.281   7.785  1.00  0.00     0.162 C 
BRANCH   7   8
HETATM    8  C   UNL     1      44.328 -14.194   7.003  1.00  0.00    -0.040 A 
HETATM    9  C   UNL     1      44.517 -15.581   6.898  1.00  0.00     0.024 A 
HETATM   10  C   UNL     1      43.668 -16.378   6.111  1.00  0.00     0.014 A 
HETATM   11  C   UNL     1      42.619 -15.770   5.413  1.00  0.00     0.015 A 
HETATM   12  C   UNL     1      42.417 -14.393   5.502  1.00  0.00     0.002 A 
HETATM   13  C   UNL     1      43.268 -13.614   6.288  1.00  0.00     0.009 A 
BRANCH  10  14
HETATM   14  C   UNL     1      43.874 -17.820   6.020  1.00  0.00     0.181 A 
HETATM   15  N   UNL     1      43.461 -18.693   7.004  1.00  0.00    -0.212 NA
HETATM   16  C   UNL     1      43.833 -19.873   6.557  1.00  0.00     0.118 A 
HETATM   17  C   UNL     1      43.627 -21.190   7.192  1.00  0.00     0.093 C 
HETATM   18  N   UNL     1      44.468 -19.711   5.360  1.00  0.00    -0.263 N 
HETATM   19  N   UNL     1      44.484 -18.422   4.987  1.00  0.00    -0.152 NA
HETATM   20  H   UNL     1      44.898 -20.407   4.762  1.00  0.00     0.190 HD
ENDBRANCH  10  14
ENDBRANCH   7   8
ENDBRANCH   1   7
BRANCH   3  21
HETATM   21  C   UNL     1      43.397 -10.884  10.998  1.00  0.00     0.039 A 
HETATM   22  C   UNL     1      42.188 -10.868  10.287  1.00  0.00     0.066 A 
HETATM   23  C   UNL     1      40.967 -10.913  10.970  1.00  0.00     0.070 A 
HETATM   24  C   UNL     1      40.958 -10.981  12.364  1.00  0.00     0.037 A 
HETATM   25  C   UNL     1      42.151 -10.980  13.079  1.00  0.00     0.005 A 
HETATM   26  C   UNL     1      43.365 -10.919  12.397  1.00  0.00     0.030 A 
BRANCH  23  27
HETATM   27  O   UNL     1      39.723 -10.878  10.400  1.00  0.00    -0.349 OA
BRANCH  27  28
HETATM   28  C   UNL     1      39.593 -10.204   9.145  1.00  0.00     0.207 C 
BRANCH  28  29
HETATM   29  C   UNL     1      39.344 -11.241   8.061  1.00  0.00     0.248 C 
HETATM   30  F   UNL     1      40.532 -11.622   7.508  1.00  0.00    -0.253 F 
ENDBRANCH  28  29
ENDBRANCH  27  28
ENDBRANCH  23  27
ENDBRANCH   3  21
TORSDOF 7
ENDMDL
MODEL 8
REMARK VINA RESULT:      -7.9      5.621      8.305
REMARK  7 active torsions:
REMARK  status: ('A' for Active; 'I' for Inactive)
REMARK    1  A    between atoms: C_4  and  C_5 
REMARK    2  A    between atoms: C_7  and  C_8 
REMARK    3  A    between atoms: C_8  and  N_9 
REMARK       I    between atoms: N_9  and  C_10 
REMARK       I    between atoms: C_10  and  N_11 
REMARK    4  A    between atoms: N_11  and  C_12 
REMARK    5  A    between atoms: C_14  and  O_15 
REMARK    6  A    between atoms: O_15  and  C_16 
REMARK    7  A    between atoms: C_16  and  C_17 
ROOT
HETATM    1  N   UNL     1      42.167 -15.413   4.431  1.00  0.00    -0.339 N 
HETATM    2  C   UNL     1      40.810 -15.291   4.479  1.00  0.00     0.320 C 
HETATM    3  N   UNL     1      40.128 -15.469   3.315  1.00  0.00    -0.309 N 
HETATM    4  O   UNL     1      40.188 -15.107   5.522  1.00  0.00    -0.247 OA
HETATM    5  H   UNL     1      42.458 -16.106   3.757  1.00  0.00     0.164 HD
HETATM    6  H   UNL     1      39.139 -15.603   3.492  1.00  0.00     0.170 HD
ENDROOT
BRANCH   1   7
HETATM    7  C   UNL     1      42.912 -15.380   5.672  1.00  0.00     0.162 C 
BRANCH   7   8
HETATM    8  C   UNL     1      43.367 -16.724   6.190  1.00  0.00    -0.040 A 
HETATM    9  C   UNL     1      43.637 -17.826   5.363  1.00  0.00     0.024 A 
HETATM   10  C   UNL     1      44.003 -19.072   5.901  1.00  0.00     0.014 A 
HETATM   11  C   UNL     1      44.092 -19.214   7.290  1.00  0.00     0.015 A 
HETATM   12  C   UNL     1      43.826 -18.131   8.127  1.00  0.00     0.002 A 
HETATM   13  C   UNL     1      43.462 -16.900   7.580  1.00  0.00     0.009 A 
BRANCH  10  14
HETATM   14  C   UNL     1      44.288 -20.205   5.026  1.00  0.00     0.181 A 
HETATM   15  N   UNL     1      44.146 -20.140   3.656  1.00  0.00    -0.212 NA
HETATM   16  C   UNL     1      44.485 -21.342   3.245  1.00  0.00     0.118 A 
HETATM   17  C   UNL     1      44.543 -21.844   1.857  1.00  0.00     0.093 C 
HETATM   18  N   UNL     1      44.796 -22.108   4.330  1.00  0.00    -0.263 N 
HETATM   19  N   UNL     1      44.703 -21.403   5.468  1.00  0.00    -0.152 NA
HETATM   20  H   UNL     1      45.071 -23.082   4.371  1.00  0.00     0.190 HD
ENDBRANCH  10  14
ENDBRANCH   7   8
ENDBRANCH   1   7
BRANCH   3  21
HETATM   21  C   UNL     1      40.520 -15.420   1.965  1.00  0.00     0.039 A 
HETATM   22  C   UNL     1      40.344 -14.302   1.136  1.00  0.00     0.066 A 
HETATM   23  C   UNL     1      40.724 -14.355  -0.210  1.00  0.00     0.070 A 
HETATM   24  C   UNL     1      41.285 -15.526  -0.724  1.00  0.00     0.037 A 
HETATM   25  C   UNL     1      41.447 -16.646   0.086  1.00  0.00     0.005 A 
HETATM   26  C   UNL     1      41.054 -16.595   1.422  1.00  0.00     0.030 A 
BRANCH  23  27
HETATM   27  O   UNL     1      40.584 -13.349  -1.127  1.00  0.00    -0.349 OA
BRANCH  27  28
HETATM   28  C   UNL     1      41.594 -12.335  -1.151  1.00  0.00     0.207 C 
BRANCH  28  29
HETATM   29  C   UNL     1      42.246 -12.334  -2.525  1.00  0.00     0.248 C 
HETATM   30  F   UNL     1      43.335 -13.156  -2.519  1.00  0.00    -0.253 F 
ENDBRANCH  28  29
ENDBRANCH  27  28
ENDBRANCH  23  27
ENDBRANCH   3  21
TORSDOF 7
ENDMDL
MODEL 9
REMARK VINA RESULT:      -7.9      4.887      9.453
REMARK  7 active torsions:
REMARK  status: ('A' for Active; 'I' for Inactive)
REMARK    1  A    between atoms: C_4  and  C_5 
REMARK    2  A    between atoms: C_7  and  C_8 
REMARK    3  A    between atoms: C_8  and  N_9 
REMARK       I    between atoms: N_9  and  C_10 
REMARK       I    between atoms: C_10  and  N_11 
REMARK    4  A    between atoms: N_11  and  C_12 
REMARK    5  A    between atoms: C_14  and  O_15 
REMARK    6  A    between atoms: O_15  and  C_16 
REMARK    7  A    between atoms: C_16  and  C_17 
ROOT
HETATM    1  N   UNL     1      43.149 -18.570   6.225  1.00  0.00    -0.339 N 
HETATM    2  C   UNL     1      43.823 -19.540   6.908  1.00  0.00     0.320 C 
HETATM    3  N   UNL     1      44.539 -20.434   6.173  1.00  0.00    -0.309 N 
HETATM    4  O   UNL     1      43.870 -19.589   8.134  1.00  0.00    -0.247 OA
HETATM    5  H   UNL     1      43.643 -18.284   5.393  1.00  0.00     0.164 HD
HETATM    6  H   UNL     1      45.187 -20.947   6.760  1.00  0.00     0.170 HD
ENDROOT
BRANCH   1   7
HETATM    7  C   UNL     1      42.501 -17.515   6.975  1.00  0.00     0.162 C 
BRANCH   7   8
HETATM    8  C   UNL     1      42.987 -16.116   6.674  1.00  0.00    -0.040 A 
HETATM    9  C   UNL     1      42.521 -15.345   5.598  1.00  0.00     0.024 A 
HETATM   10  C   UNL     1      43.047 -14.069   5.329  1.00  0.00     0.014 A 
HETATM   11  C   UNL     1      44.062 -13.565   6.151  1.00  0.00     0.015 A 
HETATM   12  C   UNL     1      44.540 -14.319   7.223  1.00  0.00     0.002 A 
HETATM   13  C   UNL     1      44.008 -15.583   7.478  1.00  0.00     0.009 A 
BRANCH  10  14
HETATM   14  C   UNL     1      42.545 -13.278   4.211  1.00  0.00     0.181 A 
HETATM   15  N   UNL     1      42.681 -13.676   2.898  1.00  0.00    -0.212 NA
HETATM   16  C   UNL     1      42.118 -12.706   2.212  1.00  0.00     0.118 A 
HETATM   17  C   UNL     1      41.950 -12.608   0.748  1.00  0.00     0.093 C 
HETATM   18  N   UNL     1      41.681 -11.749   3.081  1.00  0.00    -0.263 N 
HETATM   19  N   UNL     1      41.917 -12.099   4.354  1.00  0.00    -0.152 NA
HETATM   20  H   UNL     1      41.228 -10.863   2.886  1.00  0.00     0.190 HD
ENDBRANCH  10  14
ENDBRANCH   7   8
ENDBRANCH   1   7
BRANCH   3  21
HETATM   21  C   UNL     1      44.484 -20.816   4.821  1.00  0.00     0.039 A 
HETATM   22  C   UNL     1      44.191 -19.938   3.767  1.00  0.00     0.066 A 
HETATM   23  C   UNL     1      44.114 -20.413   2.453  1.00  0.00     0.070 A 
HETATM   24  C   UNL     1      44.336 -21.767   2.194  1.00  0.00     0.037 A 
HETATM   25  C   UNL     1      44.610 -22.650   3.235  1.00  0.00     0.005 A 
HETATM   26  C   UNL     1      44.671 -22.176   4.544  1.00  0.00     0.030 A 
BRANCH  23  27
HETATM   27  O   UNL     1      43.813 -19.671   1.344  1.00  0.00    -0.349 OA
BRANCH  27  28
HETATM   28  C   UNL     1      43.148 -18.420   1.550  1.00  0.00     0.207 C 
BRANCH  28  29
HETATM   29  C   UNL     1      44.163 -17.299   1.385  1.00  0.00     0.248 C 
HETATM   30  F   UNL     1      44.096 -16.457   2.456  1.00  0.00    -0.253 F 
ENDBRANCH  28  29
ENDBRANCH  27  28
ENDBRANCH  23  27
ENDBRANCH   3  21
TORSDOF 7
ENDMDL
MODEL 10
REMARK VINA RESULT:      -7.8      4.643      7.058
REMARK  7 active torsions:
REMARK  status: ('A' for Active; 'I' for Inactive)
REMARK    1  A    between atoms: C_4  and  C_5 
REMARK    2  A    between atoms: C_7  and  C_8 
REMARK    3  A    between atoms: C_8  and  N_9 
REMARK       I    between atoms: N_9  and  C_10 
REMARK       I    between atoms: C_10  and  N_11 
REMARK    4  A    between atoms: N_11  and  C_12 
REMARK    5  A    between atoms: C_14  and  O_15 
REMARK    6  A    between atoms: O_15  and  C_16 
REMARK    7  A    between atoms: C_16  and  C_17 
ROOT
HETATM    1  N   UNL     1      42.233 -16.709   1.400  1.00  0.00    -0.339 N 
HETATM    2  C   UNL     1      40.949 -17.136   1.232  1.00  0.00     0.320 C 
HETATM    3  N   UNL     1      39.959 -16.226   1.439  1.00  0.00    -0.309 N 
HETATM    4  O   UNL     1      40.662 -18.263   0.836  1.00  0.00    -0.247 OA
HETATM    5  H   UNL     1      42.347 -15.744   1.127  1.00  0.00     0.164 HD
HETATM    6  H   UNL     1      39.080 -16.556   1.059  1.00  0.00     0.170 HD
ENDROOT
BRANCH   1   7
HETATM    7  C   UNL     1      43.316 -17.602   1.044  1.00  0.00     0.162 C 
BRANCH   7   8
HETATM    8  C   UNL     1      43.657 -18.649   2.079  1.00  0.00    -0.040 A 
HETATM    9  C   UNL     1      43.555 -18.438   3.462  1.00  0.00     0.024 A 
HETATM   10  C   UNL     1      43.938 -19.427   4.385  1.00  0.00     0.014 A 
HETATM   11  C   UNL     1      44.439 -20.644   3.908  1.00  0.00     0.015 A 
HETATM   12  C   UNL     1      44.550 -20.871   2.537  1.00  0.00     0.002 A 
HETATM   13  C   UNL     1      44.165 -19.879   1.633  1.00  0.00     0.009 A 
BRANCH  10  14
HETATM   14  C   UNL     1      43.818 -19.193   5.820  1.00  0.00     0.181 A 
HETATM   15  N   UNL     1      43.708 -17.929   6.360  1.00  0.00    -0.212 NA
HETATM   16  C   UNL     1      43.631 -18.144   7.656  1.00  0.00     0.118 A 
HETATM   17  C   UNL     1      43.476 -17.146   8.733  1.00  0.00     0.093 C 
HETATM   18  N   UNL     1      43.716 -19.486   7.886  1.00  0.00    -0.263 N 
HETATM   19  N   UNL     1      43.810 -20.173   6.738  1.00  0.00    -0.152 NA
HETATM   20  H   UNL     1      43.716 -19.987   8.766  1.00  0.00     0.190 HD
ENDBRANCH  10  14
ENDBRANCH   7   8
ENDBRANCH   1   7
BRANCH   3  21
HETATM   21  C   UNL     1      39.921 -15.001   2.129  1.00  0.00     0.039 A 
HETATM   22  C   UNL     1      40.615 -14.748   3.320  1.00  0.00     0.066 A 
HETATM   23  C   UNL     1      40.485 -13.512   3.964  1.00  0.00     0.070 A 
HETATM   24  C   UNL     1      39.663 -12.528   3.411  1.00  0.00     0.037 A 
HETATM   25  C   UNL     1      38.956 -12.776   2.239  1.00  0.00     0.005 A 
HETATM   26  C   UNL     1      39.076 -14.013   1.608  1.00  0.00     0.030 A 
BRANCH  23  27
HETATM   27  O   UNL     1      41.085 -13.148   5.139  1.00  0.00    -0.349 OA
BRANCH  27  28
HETATM   28  C   UNL     1      42.503 -12.958   5.123  1.00  0.00     0.207 C 
BRANCH  28  29
HETATM   29  C   UNL     1      43.135 -13.931   6.106  1.00  0.00     0.248 C 
HETATM   30  F   UNL     1      42.322 -15.015   6.267  1.00  0.00    -0.253 F 
ENDBRANCH  28  29
ENDBRANCH  27  28
ENDBRANCH  23  27
ENDBRANCH   3  21
TORSDOF 7
ENDMDL
