MODEL 1
REMARK VINA RESULT:      -7.9      0.000      0.000
REMARK  4 active torsions:
REMARK  status: ('A' for Active; 'I' for Inactive)
REMARK    1  A    between atoms: C_9  and  C_10 
REMARK    2  A    between atoms: C_22  and  C_23 
REMARK    3  A    between atoms: C_23  and  C_24 
REMARK    4  A    between atoms: C_24  and  O_25 
ROOT
HETATM    1  C   UNL     1      39.265 -15.533   2.102  1.00  0.00     0.069 C 
HETATM    2  C   UNL     1      40.173 -14.789   3.052  1.00  0.00     0.018 A 
HETATM    3  N   UNL     1      41.062 -15.581   3.765  1.00  0.00    -0.343 N 
HETATM    4  C   UNL     1      42.007 -15.050   4.575  1.00  0.00     0.146 A 
HETATM    5  N   UNL     1      42.017 -13.687   4.762  1.00  0.00    -0.179 N 
HETATM    6  N   UNL     1      43.008 -13.290   5.603  1.00  0.00    -0.167 NA
HETATM    7  C   UNL     1      43.639 -14.427   5.929  1.00  0.00     0.066 A 
HETATM    8  C   UNL     1      44.804 -14.382   6.848  1.00  0.00     0.073 C 
HETATM    9  C   UNL     1      43.056 -15.566   5.302  1.00  0.00     0.047 A 
HETATM   10  C   UNL     1      41.127 -12.796   4.144  1.00  0.00     0.278 A 
HETATM   11  O   UNL     1      41.173 -11.589   4.354  1.00  0.00    -0.265 OA
HETATM   12  C   UNL     1      40.156 -13.440   3.189  1.00  0.00     0.036 A 
HETATM   13  H   UNL     1      41.027 -16.587   3.595  1.00  0.00     0.167 HD
ENDROOT
BRANCH   9  14
HETATM   14  C   UNL     1      43.382 -16.983   5.404  1.00  0.00    -0.009 A 
HETATM   15  C   UNL     1      43.693 -17.786   4.266  1.00  0.00    -0.015 A 
HETATM   16  C   UNL     1      43.925 -19.171   4.465  1.00  0.00    -0.025 A 
HETATM   17  C   UNL     1      43.794 -17.298   2.938  1.00  0.00     0.013 A 
HETATM   18  C   UNL     1      44.196 -20.007   3.369  1.00  0.00     0.012 A 
HETATM   19  C   UNL     1      43.886 -19.711   5.760  1.00  0.00     0.012 A 
HETATM   20  C   UNL     1      44.254 -19.499   2.073  1.00  0.00     0.001 A 
HETATM   21  C   UNL     1      44.060 -18.141   1.858  1.00  0.00     0.001 A 
HETATM   22  C   UNL     1      43.611 -18.909   6.864  1.00  0.00     0.002 A 
HETATM   23  C   UNL     1      43.354 -17.555   6.686  1.00  0.00     0.013 A 
ENDBRANCH   9  14
BRANCH  12  24
HETATM   24  C   UNL     1      39.223 -12.479   2.492  1.00  0.00     0.072 C 
BRANCH  24  25
HETATM   25  C   UNL     1      39.799 -11.925   1.188  1.00  0.00     0.169 C 
BRANCH  25  26
HETATM   26  O   UNL     1      40.558 -10.745   1.433  1.00  0.00    -0.401 OA
HETATM   27  H   UNL     1      41.242 -10.696   0.743  1.00  0.00     0.209 HD
ENDBRANCH  25  26
ENDBRANCH  24  25
ENDBRANCH  12  24
TORSDOF 4
ENDMDL
MODEL 2
REMARK VINA RESULT:      -7.7      3.426      7.231
REMARK  4 active torsions:
REMARK  status: ('A' for Active; 'I' for Inactive)
REMARK    1  A    between atoms: C_9  and  C_10 
REMARK    2  A    between atoms: C_22  and  C_23 
REMARK    3  A    between atoms: C_23  and  C_24 
REMARK    4  A    between atoms: C_24  and  O_25 
ROOT
HETATM    1  C   UNL     1      44.346 -18.347   1.752  1.00  0.00     0.069 C 
HETATM    2  C   UNL     1      43.152 -17.520   2.165  1.00  0.00     0.018 A 
HETATM    3  N   UNL     1      42.653 -16.669   1.190  1.00  0.00    -0.343 N 
HETATM    4  C   UNL     1      41.526 -15.944   1.375  1.00  0.00     0.146 A 
HETATM    5  N   UNL     1      40.916 -15.989   2.608  1.00  0.00    -0.179 N 
HETATM    6  N   UNL     1      39.803 -15.211   2.660  1.00  0.00    -0.167 NA
HETATM    7  C   UNL     1      39.710 -14.686   1.430  1.00  0.00     0.066 A 
HETATM    8  C   UNL     1      38.589 -13.767   1.107  1.00  0.00     0.073 C 
HETATM    9  C   UNL     1      40.765 -15.122   0.576  1.00  0.00     0.047 A 
HETATM   10  C   UNL     1      41.366 -16.764   3.687  1.00  0.00     0.278 A 
HETATM   11  O   UNL     1      40.790 -16.760   4.769  1.00  0.00    -0.265 OA
HETATM   12  C   UNL     1      42.575 -17.614   3.389  1.00  0.00     0.036 A 
HETATM   13  H   UNL     1      43.131 -16.668   0.287  1.00  0.00     0.167 HD
ENDROOT
BRANCH   9  14
HETATM   14  C   UNL     1      41.079 -14.777  -0.804  1.00  0.00    -0.009 A 
HETATM   15  C   UNL     1      41.675 -13.534  -1.172  1.00  0.00    -0.015 A 
HETATM   16  C   UNL     1      41.873 -13.266  -2.551  1.00  0.00    -0.025 A 
HETATM   17  C   UNL     1      42.094 -12.538  -0.254  1.00  0.00     0.013 A 
HETATM   18  C   UNL     1      42.421 -12.039  -2.961  1.00  0.00     0.012 A 
HETATM   19  C   UNL     1      41.523 -14.227  -3.511  1.00  0.00     0.012 A 
HETATM   20  C   UNL     1      42.790 -11.068  -2.032  1.00  0.00     0.001 A 
HETATM   21  C   UNL     1      42.634 -11.321  -0.676  1.00  0.00     0.001 A 
HETATM   22  C   UNL     1      40.970 -15.448  -3.135  1.00  0.00     0.002 A 
HETATM   23  C   UNL     1      40.743 -15.718  -1.790  1.00  0.00     0.013 A 
ENDBRANCH   9  14
BRANCH  12  24
HETATM   24  C   UNL     1      43.038 -18.479   4.537  1.00  0.00     0.072 C 
BRANCH  24  25
HETATM   25  C   UNL     1      44.012 -17.761   5.472  1.00  0.00     0.169 C 
BRANCH  25  26
HETATM   26  O   UNL     1      43.319 -17.176   6.570  1.00  0.00    -0.401 OA
HETATM   27  H   UNL     1      43.416 -16.211   6.489  1.00  0.00     0.209 HD
ENDBRANCH  25  26
ENDBRANCH  24  25
ENDBRANCH  12  24
TORSDOF 4
ENDMDL
MODEL 3
REMARK VINA RESULT:      -7.5      3.097      4.322
REMARK  4 active torsions:
REMARK  status: ('A' for Active; 'I' for Inactive)
REMARK    1  A    between atoms: C_9  and  C_10 
REMARK    2  A    between atoms: C_22  and  C_23 
REMARK    3  A    between atoms: C_23  and  C_24 
REMARK    4  A    between atoms: C_24  and  O_25 
ROOT
HETATM    1  C   UNL     1      40.684 -15.857  -2.810  1.00  0.00     0.069 C 
HETATM    2  C   UNL     1      40.993 -14.889  -1.693  1.00  0.00     0.018 A 
HETATM    3  N   UNL     1      41.503 -15.461  -0.536  1.00  0.00    -0.343 N 
HETATM    4  C   UNL     1      41.926 -14.715   0.509  1.00  0.00     0.146 A 
HETATM    5  N   UNL     1      41.752 -13.351   0.451  1.00  0.00    -0.179 N 
HETATM    6  N   UNL     1      42.210 -12.724   1.566  1.00  0.00    -0.167 NA
HETATM    7  C   UNL     1      42.695 -13.717   2.325  1.00  0.00     0.066 A 
HETATM    8  C   UNL     1      43.295 -13.405   3.647  1.00  0.00     0.073 C 
HETATM    9  C   UNL     1      42.550 -14.992   1.704  1.00  0.00     0.047 A 
HETATM   10  C   UNL     1      41.191 -12.669  -0.640  1.00  0.00     0.278 A 
HETATM   11  O   UNL     1      41.050 -11.452  -0.637  1.00  0.00    -0.265 OA
HETATM   12  C   UNL     1      40.821 -13.549  -1.807  1.00  0.00     0.036 A 
HETATM   13  H   UNL     1      41.621 -16.476  -0.534  1.00  0.00     0.167 HD
ENDROOT
BRANCH   9  14
HETATM   14  C   UNL     1      42.890 -16.328   2.176  1.00  0.00    -0.009 A 
HETATM   15  C   UNL     1      42.385 -16.866   3.397  1.00  0.00    -0.015 A 
HETATM   16  C   UNL     1      42.835 -18.148   3.804  1.00  0.00    -0.025 A 
HETATM   17  C   UNL     1      41.452 -16.211   4.242  1.00  0.00     0.013 A 
HETATM   18  C   UNL     1      42.394 -18.701   5.018  1.00  0.00     0.012 A 
HETATM   19  C   UNL     1      43.723 -18.871   2.992  1.00  0.00     0.012 A 
HETATM   20  C   UNL     1      41.503 -18.013   5.840  1.00  0.00     0.001 A 
HETATM   21  C   UNL     1      41.025 -16.771   5.448  1.00  0.00     0.001 A 
HETATM   22  C   UNL     1      44.184 -18.346   1.788  1.00  0.00     0.002 A 
HETATM   23  C   UNL     1      43.776 -17.079   1.386  1.00  0.00     0.013 A 
ENDBRANCH   9  14
BRANCH  12  24
HETATM   24  C   UNL     1      40.253 -12.814  -2.997  1.00  0.00     0.072 C 
BRANCH  24  25
HETATM   25  C   UNL     1      41.327 -12.353  -3.984  1.00  0.00     0.169 C 
BRANCH  25  26
HETATM   26  O   UNL     1      41.962 -11.166  -3.520  1.00  0.00    -0.401 OA
HETATM   27  H   UNL     1      42.708 -11.441  -2.959  1.00  0.00     0.209 HD
ENDBRANCH  25  26
ENDBRANCH  24  25
ENDBRANCH  12  24
TORSDOF 4
ENDMDL
MODEL 4
REMARK VINA RESULT:      -7.4      2.863      3.754
REMARK  4 active torsions:
REMARK  status: ('A' for Active; 'I' for Inactive)
REMARK    1  A    between atoms: C_9  and  C_10 
REMARK    2  A    between atoms: C_22  and  C_23 
REMARK    3  A    between atoms: C_23  and  C_24 
REMARK    4  A    between atoms: C_24  and  O_25 
ROOT
HETATM    1  C   UNL     1      40.843 -15.889  -2.081  1.00  0.00     0.069 C 
HETATM    2  C   UNL     1      41.017 -14.768  -1.084  1.00  0.00     0.018 A 
HETATM    3  N   UNL     1      41.181 -15.167   0.235  1.00  0.00    -0.343 N 
HETATM    4  C   UNL     1      41.452 -14.286   1.225  1.00  0.00     0.146 A 
HETATM    5  N   UNL     1      41.471 -12.945   0.918  1.00  0.00    -0.179 N 
HETATM    6  N   UNL     1      41.747 -12.173   2.002  1.00  0.00    -0.167 NA
HETATM    7  C   UNL     1      41.921 -13.053   2.998  1.00  0.00     0.066 A 
HETATM    8  C   UNL     1      42.247 -12.564   4.362  1.00  0.00     0.073 C 
HETATM    9  C   UNL     1      41.755 -14.400   2.563  1.00  0.00     0.047 A 
HETATM   10  C   UNL     1      41.258 -12.422  -0.366  1.00  0.00     0.278 A 
HETATM   11  O   UNL     1      41.276 -11.216  -0.583  1.00  0.00    -0.265 OA
HETATM   12  C   UNL     1      41.047 -13.460  -1.439  1.00  0.00     0.036 A 
HETATM   13  H   UNL     1      41.165 -16.171   0.421  1.00  0.00     0.167 HD
ENDROOT
BRANCH   9  14
HETATM   14  C   UNL     1      41.809 -15.655   3.301  1.00  0.00    -0.009 A 
HETATM   15  C   UNL     1      42.644 -16.744   2.912  1.00  0.00    -0.015 A 
HETATM   16  C   UNL     1      42.567 -17.949   3.656  1.00  0.00    -0.025 A 
HETATM   17  C   UNL     1      43.558 -16.711   1.828  1.00  0.00     0.013 A 
HETATM   18  C   UNL     1      43.343 -19.060   3.284  1.00  0.00     0.012 A 
HETATM   19  C   UNL     1      41.717 -18.035   4.769  1.00  0.00     0.012 A 
HETATM   20  C   UNL     1      44.206 -19.003   2.192  1.00  0.00     0.001 A 
HETATM   21  C   UNL     1      44.320 -17.825   1.467  1.00  0.00     0.001 A 
HETATM   22  C   UNL     1      40.930 -16.953   5.155  1.00  0.00     0.002 A 
HETATM   23  C   UNL     1      40.970 -15.773   4.422  1.00  0.00     0.013 A 
ENDBRANCH   9  14
BRANCH  12  24
HETATM   24  C   UNL     1      40.856 -12.901  -2.829  1.00  0.00     0.072 C 
BRANCH  24  25
HETATM   25  C   UNL     1      42.175 -12.562  -3.524  1.00  0.00     0.169 C 
BRANCH  25  26
HETATM   26  O   UNL     1      43.216 -13.425  -3.078  1.00  0.00    -0.401 OA
HETATM   27  H   UNL     1      43.661 -13.772  -3.871  1.00  0.00     0.209 HD
ENDBRANCH  25  26
ENDBRANCH  24  25
ENDBRANCH  12  24
TORSDOF 4
ENDMDL
MODEL 5
REMARK VINA RESULT:      -7.3      1.213      2.505
REMARK  4 active torsions:
REMARK  status: ('A' for Active; 'I' for Inactive)
REMARK    1  A    between atoms: C_9  and  C_10 
REMARK    2  A    between atoms: C_22  and  C_23 
REMARK    3  A    between atoms: C_23  and  C_24 
REMARK    4  A    between atoms: C_24  and  O_25 
ROOT
HETATM    1  C   UNL     1      38.483 -14.369   1.013  1.00  0.00     0.069 C 
HETATM    2  C   UNL     1      39.418 -13.857   2.082  1.00  0.00     0.018 A 
HETATM    3  N   UNL     1      40.477 -14.697   2.395  1.00  0.00    -0.343 N 
HETATM    4  C   UNL     1      41.455 -14.331   3.255  1.00  0.00     0.146 A 
HETATM    5  N   UNL     1      41.336 -13.124   3.905  1.00  0.00    -0.179 N 
HETATM    6  N   UNL     1      42.378 -12.884   4.743  1.00  0.00    -0.167 NA
HETATM    7  C   UNL     1      43.171 -13.956   4.597  1.00  0.00     0.066 A 
HETATM    8  C   UNL     1      44.434 -14.046   5.372  1.00  0.00     0.073 C 
HETATM    9  C   UNL     1      42.641 -14.896   3.665  1.00  0.00     0.047 A 
HETATM   10  C   UNL     1      40.278 -12.222   3.714  1.00  0.00     0.278 A 
HETATM   11  O   UNL     1      40.215 -11.162   4.327  1.00  0.00    -0.265 OA
HETATM   12  C   UNL     1      39.267 -12.650   2.680  1.00  0.00     0.036 A 
HETATM   13  H   UNL     1      40.533 -15.582   1.888  1.00  0.00     0.167 HD
ENDROOT
BRANCH   9  14
HETATM   14  C   UNL     1      43.136 -16.198   3.239  1.00  0.00    -0.009 A 
HETATM   15  C   UNL     1      43.286 -17.298   4.135  1.00  0.00    -0.015 A 
HETATM   16  C   UNL     1      43.845 -18.501   3.635  1.00  0.00    -0.025 A 
HETATM   17  C   UNL     1      42.910 -17.280   5.503  1.00  0.00     0.013 A 
HETATM   18  C   UNL     1      44.048 -19.597   4.491  1.00  0.00     0.012 A 
HETATM   19  C   UNL     1      44.197 -18.603   2.281  1.00  0.00     0.012 A 
HETATM   20  C   UNL     1      43.697 -19.532   5.839  1.00  0.00     0.001 A 
HETATM   21  C   UNL     1      43.120 -18.375   6.344  1.00  0.00     0.001 A 
HETATM   22  C   UNL     1      44.017 -17.531   1.410  1.00  0.00     0.002 A 
HETATM   23  C   UNL     1      43.496 -16.334   1.888  1.00  0.00     0.013 A 
ENDBRANCH   9  14
BRANCH  12  24
HETATM   24  C   UNL     1      38.149 -11.664   2.445  1.00  0.00     0.072 C 
BRANCH  24  25
HETATM   25  C   UNL     1      38.503 -10.591   1.414  1.00  0.00     0.169 C 
BRANCH  25  26
HETATM   26  O   UNL     1      38.988  -9.416   2.055  1.00  0.00    -0.401 OA
HETATM   27  H   UNL     1      39.903  -9.281   1.754  1.00  0.00     0.209 HD
ENDBRANCH  25  26
ENDBRANCH  24  25
ENDBRANCH  12  24
TORSDOF 4
ENDMDL
MODEL 6
REMARK VINA RESULT:      -7.2      3.349      6.819
REMARK  4 active torsions:
REMARK  status: ('A' for Active; 'I' for Inactive)
REMARK    1  A    between atoms: C_9  and  C_10 
REMARK    2  A    between atoms: C_22  and  C_23 
REMARK    3  A    between atoms: C_23  and  C_24 
REMARK    4  A    between atoms: C_24  and  O_25 
ROOT
HETATM    1  C   UNL     1      44.269 -17.786   1.770  1.00  0.00     0.069 C 
HETATM    2  C   UNL     1      43.181 -16.987   2.446  1.00  0.00     0.018 A 
HETATM    3  N   UNL     1      42.817 -15.814   1.799  1.00  0.00    -0.343 N 
HETATM    4  C   UNL     1      41.787 -15.048   2.224  1.00  0.00     0.146 A 
HETATM    5  N   UNL     1      41.148 -15.401   3.391  1.00  0.00    -0.179 N 
HETATM    6  N   UNL     1      40.142 -14.544   3.707  1.00  0.00    -0.167 NA
HETATM    7  C   UNL     1      40.144 -13.650   2.708  1.00  0.00     0.066 A 
HETATM    8  C   UNL     1      39.157 -12.541   2.712  1.00  0.00     0.073 C 
HETATM    9  C   UNL     1      41.155 -13.925   1.741  1.00  0.00     0.047 A 
HETATM   10  C   UNL     1      41.470 -16.529   4.161  1.00  0.00     0.278 A 
HETATM   11  O   UNL     1      40.875 -16.793   5.199  1.00  0.00    -0.265 OA
HETATM   12  C   UNL     1      42.568 -17.388   3.587  1.00  0.00     0.036 A 
HETATM   13  H   UNL     1      43.312 -15.589   0.934  1.00  0.00     0.167 HD
ENDROOT
BRANCH   9  14
HETATM   14  C   UNL     1      41.542 -13.205   0.535  1.00  0.00    -0.009 A 
HETATM   15  C   UNL     1      41.428 -13.769  -0.771  1.00  0.00    -0.015 A 
HETATM   16  C   UNL     1      41.902 -13.013  -1.873  1.00  0.00    -0.025 A 
HETATM   17  C   UNL     1      40.867 -15.041  -1.053  1.00  0.00     0.013 A 
HETATM   18  C   UNL     1      41.846 -13.546  -3.172  1.00  0.00     0.012 A 
HETATM   19  C   UNL     1      42.427 -11.728  -1.670  1.00  0.00     0.012 A 
HETATM   20  C   UNL     1      41.318 -14.814  -3.409  1.00  0.00     0.001 A 
HETATM   21  C   UNL     1      40.821 -15.560  -2.349  1.00  0.00     0.001 A 
HETATM   22  C   UNL     1      42.503 -11.177  -0.394  1.00  0.00     0.002 A 
HETATM   23  C   UNL     1      42.070 -11.914   0.703  1.00  0.00     0.013 A 
ENDBRANCH   9  14
BRANCH  12  24
HETATM   24  C   UNL     1      42.891 -18.622   4.394  1.00  0.00     0.072 C 
BRANCH  24  25
HETATM   25  C   UNL     1      43.979 -18.385   5.442  1.00  0.00     0.169 C 
BRANCH  25  26
HETATM   26  O   UNL     1      45.101 -19.229   5.204  1.00  0.00    -0.401 OA
HETATM   27  H   UNL     1      45.647 -19.215   6.010  1.00  0.00     0.209 HD
ENDBRANCH  25  26
ENDBRANCH  24  25
ENDBRANCH  12  24
TORSDOF 4
ENDMDL
MODEL 7
REMARK VINA RESULT:      -7.1      1.742      4.153
REMARK  4 active torsions:
REMARK  status: ('A' for Active; 'I' for Inactive)
REMARK    1  A    between atoms: C_9  and  C_10 
REMARK    2  A    between atoms: C_22  and  C_23 
REMARK    3  A    between atoms: C_23  and  C_24 
REMARK    4  A    between atoms: C_24  and  O_25 
ROOT
HETATM    1  C   UNL     1      43.933 -13.170   6.949  1.00  0.00     0.069 C 
HETATM    2  C   UNL     1      42.771 -13.258   5.989  1.00  0.00     0.018 A 
HETATM    3  N   UNL     1      42.837 -14.295   5.069  1.00  0.00    -0.343 N 
HETATM    4  C   UNL     1      41.823 -14.566   4.216  1.00  0.00     0.146 A 
HETATM    5  N   UNL     1      40.736 -13.722   4.204  1.00  0.00    -0.179 N 
HETATM    6  N   UNL     1      39.798 -14.103   3.298  1.00  0.00    -0.167 NA
HETATM    7  C   UNL     1      40.304 -15.217   2.748  1.00  0.00     0.066 A 
HETATM    8  C   UNL     1      39.538 -15.930   1.696  1.00  0.00     0.073 C 
HETATM    9  C   UNL     1      41.575 -15.559   3.296  1.00  0.00     0.047 A 
HETATM   10  C   UNL     1      40.588 -12.608   5.044  1.00  0.00     0.278 A 
HETATM   11  O   UNL     1      39.602 -11.882   4.985  1.00  0.00    -0.265 OA
HETATM   12  C   UNL     1      41.712 -12.412   6.029  1.00  0.00     0.036 A 
HETATM   13  H   UNL     1      43.658 -14.901   5.113  1.00  0.00     0.167 HD
ENDROOT
BRANCH   9  14
HETATM   14  C   UNL     1      42.493 -16.643   2.972  1.00  0.00    -0.009 A 
HETATM   15  C   UNL     1      42.892 -17.627   3.925  1.00  0.00    -0.015 A 
HETATM   16  C   UNL     1      43.847 -18.598   3.530  1.00  0.00    -0.025 A 
HETATM   17  C   UNL     1      42.397 -17.711   5.252  1.00  0.00     0.013 A 
HETATM   18  C   UNL     1      44.298 -19.561   4.447  1.00  0.00     0.012 A 
HETATM   19  C   UNL     1      44.343 -18.601   2.217  1.00  0.00     0.012 A 
HETATM   20  C   UNL     1      43.814 -19.593   5.754  1.00  0.00     0.001 A 
HETATM   21  C   UNL     1      42.857 -18.672   6.155  1.00  0.00     0.001 A 
HETATM   22  C   UNL     1      43.922 -17.653   1.289  1.00  0.00     0.002 A 
HETATM   23  C   UNL     1      43.008 -16.676   1.666  1.00  0.00     0.013 A 
ENDBRANCH   9  14
BRANCH  12  24
HETATM   24  C   UNL     1      41.537 -11.236   6.960  1.00  0.00     0.072 C 
BRANCH  24  25
HETATM   25  C   UNL     1      40.388 -11.424   7.952  1.00  0.00     0.169 C 
BRANCH  25  26
HETATM   26  O   UNL     1      39.263 -10.635   7.576  1.00  0.00    -0.401 OA
HETATM   27  H   UNL     1      39.007 -10.911   6.679  1.00  0.00     0.209 HD
ENDBRANCH  25  26
ENDBRANCH  24  25
ENDBRANCH  12  24
TORSDOF 4
ENDMDL
MODEL 8
REMARK VINA RESULT:      -7.1      1.717      3.032
REMARK  4 active torsions:
REMARK  status: ('A' for Active; 'I' for Inactive)
REMARK    1  A    between atoms: C_9  and  C_10 
REMARK    2  A    between atoms: C_22  and  C_23 
REMARK    3  A    between atoms: C_23  and  C_24 
REMARK    4  A    between atoms: C_24  and  O_25 
ROOT
HETATM    1  C   UNL     1      41.802 -13.944  -0.761  1.00  0.00     0.069 C 
HETATM    2  C   UNL     1      41.173 -13.984   0.611  1.00  0.00     0.018 A 
HETATM    3  N   UNL     1      41.529 -15.071   1.396  1.00  0.00    -0.343 N 
HETATM    4  C   UNL     1      41.131 -15.190   2.683  1.00  0.00     0.146 A 
HETATM    5  N   UNL     1      40.269 -14.245   3.190  1.00  0.00    -0.179 N 
HETATM    6  N   UNL     1      39.943 -14.488   4.487  1.00  0.00    -0.167 NA
HETATM    7  C   UNL     1      40.632 -15.596   4.798  1.00  0.00     0.066 A 
HETATM    8  C   UNL     1      40.525 -16.168   6.164  1.00  0.00     0.073 C 
HETATM    9  C   UNL     1      41.405 -16.076   3.700  1.00  0.00     0.047 A 
HETATM   10  C   UNL     1      39.792 -13.139   2.470  1.00  0.00     0.278 A 
HETATM   11  O   UNL     1      39.016 -12.331   2.968  1.00  0.00    -0.265 OA
HETATM   12  C   UNL     1      40.341 -13.017   1.072  1.00  0.00     0.036 A 
HETATM   13  H   UNL     1      42.175 -15.747   0.985  1.00  0.00     0.167 HD
ENDROOT
BRANCH   9  14
HETATM   14  C   UNL     1      42.255 -17.252   3.575  1.00  0.00    -0.009 A 
HETATM   15  C   UNL     1      43.280 -17.566   4.517  1.00  0.00    -0.015 A 
HETATM   16  C   UNL     1      44.102 -18.695   4.264  1.00  0.00    -0.025 A 
HETATM   17  C   UNL     1      43.540 -16.831   5.701  1.00  0.00     0.013 A 
HETATM   18  C   UNL     1      45.148 -19.019   5.143  1.00  0.00     0.012 A 
HETATM   19  C   UNL     1      43.870 -19.493   3.133  1.00  0.00     0.012 A 
HETATM   20  C   UNL     1      45.396 -18.253   6.281  1.00  0.00     0.001 A 
HETATM   21  C   UNL     1      44.586 -17.163   6.565  1.00  0.00     0.001 A 
HETATM   22  C   UNL     1      42.847 -19.191   2.239  1.00  0.00     0.002 A 
HETATM   23  C   UNL     1      42.049 -18.073   2.455  1.00  0.00     0.013 A 
ENDBRANCH   9  14
BRANCH  12  24
HETATM   24  C   UNL     1      39.860 -11.807   0.308  1.00  0.00     0.072 C 
BRANCH  24  25
HETATM   25  C   UNL     1      40.800 -10.607   0.435  1.00  0.00     0.169 C 
BRANCH  25  26
HETATM   26  O   UNL     1      41.459 -10.614   1.697  1.00  0.00    -0.401 OA
HETATM   27  H   UNL     1      40.825 -10.277   2.354  1.00  0.00     0.209 HD
ENDBRANCH  25  26
ENDBRANCH  24  25
ENDBRANCH  12  24
TORSDOF 4
ENDMDL
MODEL 9
REMARK VINA RESULT:      -7.0      3.090      7.301
REMARK  4 active torsions:
REMARK  status: ('A' for Active; 'I' for Inactive)
REMARK    1  A    between atoms: C_9  and  C_10 
REMARK    2  A    between atoms: C_22  and  C_23 
REMARK    3  A    between atoms: C_23  and  C_24 
REMARK    4  A    between atoms: C_24  and  O_25 
ROOT
HETATM    1  C   UNL     1      40.652 -16.529   6.275  1.00  0.00     0.069 C 
HETATM    2  C   UNL     1      41.066 -16.784   4.845  1.00  0.00     0.018 A 
HETATM    3  N   UNL     1      40.470 -15.963   3.899  1.00  0.00    -0.343 N 
HETATM    4  C   UNL     1      40.818 -16.001   2.593  1.00  0.00     0.146 A 
HETATM    5  N   UNL     1      41.725 -16.952   2.185  1.00  0.00    -0.179 N 
HETATM    6  N   UNL     1      41.978 -16.885   0.851  1.00  0.00    -0.167 NA
HETATM    7  C   UNL     1      41.226 -15.860   0.425  1.00  0.00     0.066 A 
HETATM    8  C   UNL     1      41.249 -15.480  -1.010  1.00  0.00     0.073 C 
HETATM    9  C   UNL     1      40.481 -15.260   1.482  1.00  0.00     0.047 A 
HETATM   10  C   UNL     1      42.344 -17.875   3.041  1.00  0.00     0.278 A 
HETATM   11  O   UNL     1      43.139 -18.709   2.624  1.00  0.00    -0.265 OA
HETATM   12  C   UNL     1      41.979 -17.724   4.496  1.00  0.00     0.036 A 
HETATM   13  H   UNL     1      39.805 -15.268   4.242  1.00  0.00     0.167 HD
ENDROOT
BRANCH   9  14
HETATM   14  C   UNL     1      39.519 -14.166   1.470  1.00  0.00    -0.009 A 
HETATM   15  C   UNL     1      39.759 -12.921   2.124  1.00  0.00    -0.015 A 
HETATM   16  C   UNL     1      38.727 -11.948   2.115  1.00  0.00    -0.025 A 
HETATM   17  C   UNL     1      40.965 -12.577   2.786  1.00  0.00     0.013 A 
HETATM   18  C   UNL     1      38.904 -10.723   2.780  1.00  0.00     0.012 A 
HETATM   19  C   UNL     1      37.525 -12.205   1.439  1.00  0.00     0.012 A 
HETATM   20  C   UNL     1      40.092 -10.432   3.449  1.00  0.00     0.001 A 
HETATM   21  C   UNL     1      41.127 -11.357   3.446  1.00  0.00     0.001 A 
HETATM   22  C   UNL     1      37.316 -13.413   0.779  1.00  0.00     0.002 A 
HETATM   23  C   UNL     1      38.305 -14.391   0.801  1.00  0.00     0.013 A 
ENDBRANCH   9  14
BRANCH  12  24
HETATM   24  C   UNL     1      42.675 -18.690   5.425  1.00  0.00     0.072 C 
BRANCH  24  25
HETATM   25  C   UNL     1      44.034 -18.183   5.908  1.00  0.00     0.169 C 
BRANCH  25  26
HETATM   26  O   UNL     1      45.086 -18.728   5.118  1.00  0.00    -0.401 OA
HETATM   27  H   UNL     1      45.439 -19.496   5.601  1.00  0.00     0.209 HD
ENDBRANCH  25  26
ENDBRANCH  24  25
ENDBRANCH  12  24
TORSDOF 4
ENDMDL
MODEL 10
REMARK VINA RESULT:      -7.0      3.156      7.320
REMARK  4 active torsions:
REMARK  status: ('A' for Active; 'I' for Inactive)
REMARK    1  A    between atoms: C_9  and  C_10 
REMARK    2  A    between atoms: C_22  and  C_23 
REMARK    3  A    between atoms: C_23  and  C_24 
REMARK    4  A    between atoms: C_24  and  O_25 
ROOT
HETATM    1  C   UNL     1      42.368 -16.193   6.446  1.00  0.00     0.069 C 
HETATM    2  C   UNL     1      42.285 -16.654   5.011  1.00  0.00     0.018 A 
HETATM    3  N   UNL     1      41.782 -15.721   4.115  1.00  0.00    -0.343 N 
HETATM    4  C   UNL     1      41.746 -15.950   2.783  1.00  0.00     0.146 A 
HETATM    5  N   UNL     1      42.136 -17.187   2.321  1.00  0.00    -0.179 N 
HETATM    6  N   UNL     1      42.043 -17.285   0.969  1.00  0.00    -0.167 NA
HETATM    7  C   UNL     1      41.603 -16.079   0.581  1.00  0.00     0.066 A 
HETATM    8  C   UNL     1      41.382 -15.808  -0.862  1.00  0.00     0.073 C 
HETATM    9  C   UNL     1      41.407 -15.196   1.682  1.00  0.00     0.047 A 
HETATM   10  C   UNL     1      42.603 -18.227   3.139  1.00  0.00     0.278 A 
HETATM   11  O   UNL     1      42.929 -19.314   2.677  1.00  0.00    -0.265 OA
HETATM   12  C   UNL     1      42.700 -17.879   4.602  1.00  0.00     0.036 A 
HETATM   13  H   UNL     1      41.507 -14.814   4.496  1.00  0.00     0.167 HD
ENDROOT
BRANCH   9  14
HETATM   14  C   UNL     1      40.908 -13.828   1.731  1.00  0.00    -0.009 A 
HETATM   15  C   UNL     1      39.562 -13.487   1.401  1.00  0.00    -0.015 A 
HETATM   16  C   UNL     1      39.195 -12.116   1.409  1.00  0.00    -0.025 A 
HETATM   17  C   UNL     1      38.551 -14.424   1.067  1.00  0.00     0.013 A 
HETATM   18  C   UNL     1      37.892 -11.731   1.053  1.00  0.00     0.012 A 
HETATM   19  C   UNL     1      40.134 -11.140   1.775  1.00  0.00     0.012 A 
HETATM   20  C   UNL     1      36.933 -12.677   0.697  1.00  0.00     0.001 A 
HETATM   21  C   UNL     1      37.261 -14.026   0.712  1.00  0.00     0.001 A 
HETATM   22  C   UNL     1      41.436 -11.491   2.124  1.00  0.00     0.002 A 
HETATM   23  C   UNL     1      41.822 -12.827   2.095  1.00  0.00     0.013 A 
ENDBRANCH   9  14
BRANCH  12  24
HETATM   24  C   UNL     1      43.239 -18.983   5.480  1.00  0.00     0.072 C 
BRANCH  24  25
HETATM   25  C   UNL     1      44.767 -19.045   5.493  1.00  0.00     0.169 C 
BRANCH  25  26
HETATM   26  O   UNL     1      45.237 -20.094   4.652  1.00  0.00    -0.401 OA
HETATM   27  H   UNL     1      44.681 -20.873   4.828  1.00  0.00     0.209 HD
ENDBRANCH  25  26
ENDBRANCH  24  25
ENDBRANCH  12  24
TORSDOF 4
ENDMDL
