MODEL 1
REMARK VINA RESULT:      -8.7      0.000      0.000
REMARK  11 active torsions:
REMARK  status: ('A' for Active; 'I' for Inactive)
REMARK    1  A    between atoms: C_2  and  O_3 
REMARK    2  A    between atoms: O_3  and  C_4 
REMARK    3  A    between atoms: C_5  and  O_6 
REMARK    4  A    between atoms: C_9  and  C_10 
REMARK    5  A    between atoms: N_11  and  C_12 
REMARK    6  A    between atoms: C_12  and  C_13 
REMARK    7  A    between atoms: C_13  and  C_14 
REMARK    8  A    between atoms: C_14  and  N_15 
REMARK    9  A    between atoms: C_27  and  O_28 
REMARK   10  A    between atoms: C_27  and  C_29 
REMARK   11  A    between atoms: C_30  and  C_31 
ROOT
HETATM    1  C   UNL     1      41.060 -14.379   3.482  1.00  0.00     0.161 C 
HETATM    2  N   UNL     1      39.849 -13.581   3.679  1.00  0.00    -0.332 N 
HETATM    3  C   UNL     1      39.202 -13.347   2.483  1.00  0.00     0.295 C 
HETATM    4  O   UNL     1      38.355 -12.498   2.274  1.00  0.00    -0.264 OA
HETATM    5  C   UNL     1      40.822 -15.112   2.180  1.00  0.00     0.058 C 
HETATM    6  C   UNL     1      39.814 -14.304   1.455  1.00  0.00     0.250 C 
HETATM    7  O   UNL     1      39.524 -14.371   0.281  1.00  0.00    -0.282 OA
HETATM    8  C   UNL     1      41.288 -16.259   1.658  1.00  0.00     0.078 C 
ENDROOT
BRANCH   1   9
HETATM    9  C   UNL     1      41.515 -15.165   4.687  1.00  0.00    -0.028 A 
HETATM   10  C   UNL     1      40.734 -16.186   5.252  1.00  0.00     0.012 A 
HETATM   11  C   UNL     1      41.212 -16.912   6.343  1.00  0.00     0.040 A 
HETATM   12  C   UNL     1      42.466 -16.621   6.865  1.00  0.00     0.099 A 
HETATM   13  C   UNL     1      43.270 -15.612   6.327  1.00  0.00     0.102 A 
HETATM   14  C   UNL     1      42.789 -14.891   5.236  1.00  0.00     0.049 A 
BRANCH  12  15
HETATM   15  O   UNL     1      42.907 -17.359   7.928  1.00  0.00    -0.358 OA
HETATM   16  H   UNL     1      42.309 -18.130   7.977  1.00  0.00     0.218 HD
ENDBRANCH  12  15
BRANCH  13  17
HETATM   17  O   UNL     1      44.480 -15.433   6.943  1.00  0.00    -0.349 OA
BRANCH  17  18
HETATM   18  C   UNL     1      45.108 -14.159   6.786  1.00  0.00     0.171 C 
HETATM   19  C   UNL     1      44.761 -13.304   7.991  1.00  0.00     0.034 C 
ENDBRANCH  17  18
ENDBRANCH  13  17
ENDBRANCH   1   9
BRANCH   2  20
HETATM   20  C   UNL     1      39.558 -12.813   4.881  1.00  0.00     0.129 C 
BRANCH  20  21
HETATM   21  C   UNL     1      40.390 -11.546   5.072  1.00  0.00     0.048 C 
BRANCH  21  22
HETATM   22  C   UNL     1      41.520 -11.589   6.102  1.00  0.00     0.236 C 
BRANCH  22  23
HETATM   23  N   UNL     1      41.080 -11.403   7.527  1.00  0.00    -0.067 N 
HETATM   24  H   UNL     1      40.892 -12.347   7.926  1.00  0.00     0.280 HD
HETATM   25  C   UNL     1      42.073 -10.679   8.426  1.00  0.00     0.261 C 
HETATM   26  C   UNL     1      41.499 -10.556   9.842  1.00  0.00     0.195 C 
HETATM   27  O   UNL     1      40.245  -9.869   9.827  1.00  0.00    -0.388 OA
HETATM   28  C   UNL     1      39.269 -10.576   9.053  1.00  0.00     0.195 C 
HETATM   29  C   UNL     1      39.721 -10.698   7.594  1.00  0.00     0.261 C 
ENDBRANCH  22  23
ENDBRANCH  21  22
ENDBRANCH  20  21
ENDBRANCH   2  20
BRANCH   8  30
HETATM   30  O   UNL     1      40.974 -16.709   0.393  1.00  0.00    -0.360 OA
HETATM   31  H   UNL     1      40.145 -16.293   0.076  1.00  0.00     0.217 HD
ENDBRANCH   8  30
BRANCH   8  32
HETATM   32  C   UNL     1      42.097 -17.199   2.395  1.00  0.00     0.038 C 
HETATM   33  C   UNL     1      42.715 -18.280   1.900  1.00  0.00     0.014 C 
BRANCH  33  34
HETATM   34  C   UNL     1      43.525 -19.134   2.780  1.00  0.00    -0.036 A 
HETATM   35  C   UNL     1      43.946 -20.409   2.374  1.00  0.00     0.011 A 
HETATM   36  C   UNL     1      44.670 -21.229   3.241  1.00  0.00     0.001 A 
HETATM   37  C   UNL     1      44.992 -20.778   4.519  1.00  0.00     0.000 A 
HETATM   38  C   UNL     1      44.600 -19.502   4.924  1.00  0.00     0.001 A 
HETATM   39  C   UNL     1      43.874 -18.681   4.056  1.00  0.00     0.011 A 
ENDBRANCH  33  34
ENDBRANCH   8  32
TORSDOF 11
ENDMDL
MODEL 2
REMARK VINA RESULT:      -8.3      1.530      1.983
REMARK  11 active torsions:
REMARK  status: ('A' for Active; 'I' for Inactive)
REMARK    1  A    between atoms: C_2  and  O_3 
REMARK    2  A    between atoms: O_3  and  C_4 
REMARK    3  A    between atoms: C_5  and  O_6 
REMARK    4  A    between atoms: C_9  and  C_10 
REMARK    5  A    between atoms: N_11  and  C_12 
REMARK    6  A    between atoms: C_12  and  C_13 
REMARK    7  A    between atoms: C_13  and  C_14 
REMARK    8  A    between atoms: C_14  and  N_15 
REMARK    9  A    between atoms: C_27  and  O_28 
REMARK   10  A    between atoms: C_27  and  C_29 
REMARK   11  A    between atoms: C_30  and  C_31 
ROOT
HETATM    1  C   UNL     1      41.110 -14.410   3.456  1.00  0.00     0.161 C 
HETATM    2  N   UNL     1      39.964 -13.525   3.669  1.00  0.00    -0.332 N 
HETATM    3  C   UNL     1      39.266 -13.316   2.497  1.00  0.00     0.295 C 
HETATM    4  O   UNL     1      38.464 -12.427   2.283  1.00  0.00    -0.264 OA
HETATM    5  C   UNL     1      40.754 -15.198   2.213  1.00  0.00     0.058 C 
HETATM    6  C   UNL     1      39.760 -14.367   1.496  1.00  0.00     0.250 C 
HETATM    7  O   UNL     1      39.401 -14.478   0.344  1.00  0.00    -0.282 OA
HETATM    8  C   UNL     1      41.118 -16.400   1.736  1.00  0.00     0.078 C 
ENDROOT
BRANCH   1   9
HETATM    9  C   UNL     1      41.581 -15.157   4.679  1.00  0.00    -0.028 A 
HETATM   10  C   UNL     1      40.795 -16.137   5.307  1.00  0.00     0.012 A 
HETATM   11  C   UNL     1      41.287 -16.828   6.413  1.00  0.00     0.040 A 
HETATM   12  C   UNL     1      42.561 -16.545   6.890  1.00  0.00     0.099 A 
HETATM   13  C   UNL     1      43.370 -15.576   6.289  1.00  0.00     0.102 A 
HETATM   14  C   UNL     1      42.875 -14.889   5.183  1.00  0.00     0.049 A 
BRANCH  12  15
HETATM   15  O   UNL     1      43.016 -17.248   7.970  1.00  0.00    -0.358 OA
HETATM   16  H   UNL     1      43.890 -17.597   7.705  1.00  0.00     0.218 HD
ENDBRANCH  12  15
BRANCH  13  17
HETATM   17  O   UNL     1      44.601 -15.400   6.864  1.00  0.00    -0.349 OA
BRANCH  17  18
HETATM   18  C   UNL     1      45.172 -14.092   6.790  1.00  0.00     0.171 C 
HETATM   19  C   UNL     1      44.710 -13.299   7.999  1.00  0.00     0.034 C 
ENDBRANCH  17  18
ENDBRANCH  13  17
ENDBRANCH   1   9
BRANCH   2  20
HETATM   20  C   UNL     1      39.788 -12.675   4.837  1.00  0.00     0.129 C 
BRANCH  20  21
HETATM   21  C   UNL     1      40.834 -11.575   5.015  1.00  0.00     0.048 C 
BRANCH  21  22
HETATM   22  C   UNL     1      40.695 -10.320   4.153  1.00  0.00     0.236 C 
BRANCH  22  23
HETATM   23  N   UNL     1      39.737  -9.291   4.686  1.00  0.00    -0.067 N 
HETATM   24  H   UNL     1      40.133  -8.350   4.476  1.00  0.00     0.280 HD
HETATM   25  C   UNL     1      38.324  -9.365   4.124  1.00  0.00     0.261 C 
HETATM   26  C   UNL     1      37.457  -8.268   4.753  1.00  0.00     0.195 C 
HETATM   27  O   UNL     1      37.436  -8.387   6.178  1.00  0.00    -0.388 OA
HETATM   28  C   UNL     1      38.747  -8.238   6.735  1.00  0.00     0.195 C 
HETATM   29  C   UNL     1      39.683  -9.334   6.217  1.00  0.00     0.261 C 
ENDBRANCH  22  23
ENDBRANCH  21  22
ENDBRANCH  20  21
ENDBRANCH   2  20
BRANCH   8  30
HETATM   30  O   UNL     1      40.706 -16.896   0.517  1.00  0.00    -0.360 OA
HETATM   31  H   UNL     1      40.644 -16.177  -0.145  1.00  0.00     0.217 HD
ENDBRANCH   8  30
BRANCH   8  32
HETATM   32  C   UNL     1      41.906 -17.348   2.483  1.00  0.00     0.038 C 
HETATM   33  C   UNL     1      42.915 -18.094   2.013  1.00  0.00     0.014 C 
BRANCH  33  34
HETATM   34  C   UNL     1      43.640 -19.006   2.909  1.00  0.00    -0.036 A 
HETATM   35  C   UNL     1      44.052 -20.276   2.481  1.00  0.00     0.011 A 
HETATM   36  C   UNL     1      44.694 -21.150   3.361  1.00  0.00     0.001 A 
HETATM   37  C   UNL     1      44.939 -20.758   4.674  1.00  0.00     0.000 A 
HETATM   38  C   UNL     1      44.555 -19.488   5.104  1.00  0.00     0.001 A 
HETATM   39  C   UNL     1      43.913 -18.613   4.224  1.00  0.00     0.011 A 
ENDBRANCH  33  34
ENDBRANCH   8  32
TORSDOF 11
ENDMDL
MODEL 3
REMARK VINA RESULT:      -8.0      2.405      3.702
REMARK  11 active torsions:
REMARK  status: ('A' for Active; 'I' for Inactive)
REMARK    1  A    between atoms: C_2  and  O_3 
REMARK    2  A    between atoms: O_3  and  C_4 
REMARK    3  A    between atoms: C_5  and  O_6 
REMARK    4  A    between atoms: C_9  and  C_10 
REMARK    5  A    between atoms: N_11  and  C_12 
REMARK    6  A    between atoms: C_12  and  C_13 
REMARK    7  A    between atoms: C_13  and  C_14 
REMARK    8  A    between atoms: C_14  and  N_15 
REMARK    9  A    between atoms: C_27  and  O_28 
REMARK   10  A    between atoms: C_27  and  C_29 
REMARK   11  A    between atoms: C_30  and  C_31 
ROOT
HETATM    1  C   UNL     1      42.173 -13.881   2.589  1.00  0.00     0.161 C 
HETATM    2  N   UNL     1      41.130 -12.861   2.468  1.00  0.00    -0.332 N 
HETATM    3  C   UNL     1      40.780 -12.654   1.150  1.00  0.00     0.295 C 
HETATM    4  O   UNL     1      40.174 -11.697   0.705  1.00  0.00    -0.264 OA
HETATM    5  C   UNL     1      42.045 -14.704   1.325  1.00  0.00     0.058 C 
HETATM    6  C   UNL     1      41.374 -13.817   0.347  1.00  0.00     0.250 C 
HETATM    7  O   UNL     1      41.304 -13.964  -0.853  1.00  0.00    -0.282 OA
HETATM    8  C   UNL     1      42.365 -15.968   1.000  1.00  0.00     0.078 C 
ENDROOT
BRANCH   1   9
HETATM    9  C   UNL     1      42.225 -14.593   3.918  1.00  0.00    -0.028 A 
HETATM   10  C   UNL     1      41.162 -15.379   4.388  1.00  0.00     0.012 A 
HETATM   11  C   UNL     1      41.270 -16.049   5.606  1.00  0.00     0.040 A 
HETATM   12  C   UNL     1      42.438 -15.938   6.350  1.00  0.00     0.099 A 
HETATM   13  C   UNL     1      43.516 -15.165   5.912  1.00  0.00     0.102 A 
HETATM   14  C   UNL     1      43.404 -14.498   4.694  1.00  0.00     0.049 A 
BRANCH  12  15
HETATM   15  O   UNL     1      42.514 -16.616   7.535  1.00  0.00    -0.358 OA
HETATM   16  H   UNL     1      42.947 -17.465   7.322  1.00  0.00     0.218 HD
ENDBRANCH  12  15
BRANCH  13  17
HETATM   17  O   UNL     1      44.602 -15.143   6.747  1.00  0.00    -0.349 OA
BRANCH  17  18
HETATM   18  C   UNL     1      45.304 -13.904   6.869  1.00  0.00     0.171 C 
HETATM   19  C   UNL     1      44.800 -13.190   8.110  1.00  0.00     0.034 C 
ENDBRANCH  17  18
ENDBRANCH  13  17
ENDBRANCH   1   9
BRANCH   2  20
HETATM   20  C   UNL     1      40.774 -11.922   3.521  1.00  0.00     0.129 C 
BRANCH  20  21
HETATM   21  C   UNL     1      39.362 -12.067   4.086  1.00  0.00     0.048 C 
BRANCH  21  22
HETATM   22  C   UNL     1      38.406 -10.885   3.919  1.00  0.00     0.236 C 
BRANCH  22  23
HETATM   23  N   UNL     1      38.345 -10.316   2.529  1.00  0.00    -0.067 N 
HETATM   24  H   UNL     1      39.073 -10.796   1.958  1.00  0.00     0.280 HD
HETATM   25  C   UNL     1      37.001 -10.452   1.827  1.00  0.00     0.261 C 
HETATM   26  C   UNL     1      37.079  -9.830   0.429  1.00  0.00     0.195 C 
HETATM   27  O   UNL     1      37.468  -8.455   0.502  1.00  0.00    -0.388 OA
HETATM   28  C   UNL     1      38.768  -8.310   1.084  1.00  0.00     0.195 C 
HETATM   29  C   UNL     1      38.781  -8.847   2.519  1.00  0.00     0.261 C 
ENDBRANCH  22  23
ENDBRANCH  21  22
ENDBRANCH  20  21
ENDBRANCH   2  20
BRANCH   8  30
HETATM   30  O   UNL     1      42.213 -16.496  -0.265  1.00  0.00    -0.360 OA
HETATM   31  H   UNL     1      42.522 -17.425  -0.289  1.00  0.00     0.217 HD
ENDBRANCH   8  30
BRANCH   8  32
HETATM   32  C   UNL     1      42.816 -16.947   1.958  1.00  0.00     0.038 C 
HETATM   33  C   UNL     1      43.554 -18.035   1.700  1.00  0.00     0.014 C 
BRANCH  33  34
HETATM   34  C   UNL     1      43.954 -18.932   2.794  1.00  0.00    -0.036 A 
HETATM   35  C   UNL     1      44.060 -18.471   4.114  1.00  0.00     0.011 A 
HETATM   36  C   UNL     1      44.492 -19.323   5.133  1.00  0.00     0.001 A 
HETATM   37  C   UNL     1      44.811 -20.647   4.843  1.00  0.00     0.000 A 
HETATM   38  C   UNL     1      44.687 -21.122   3.538  1.00  0.00     0.001 A 
HETATM   39  C   UNL     1      44.255 -20.270   2.518  1.00  0.00     0.011 A 
ENDBRANCH  33  34
ENDBRANCH   8  32
TORSDOF 11
ENDMDL
MODEL 4
REMARK VINA RESULT:      -8.0      2.023      3.187
REMARK  11 active torsions:
REMARK  status: ('A' for Active; 'I' for Inactive)
REMARK    1  A    between atoms: C_2  and  O_3 
REMARK    2  A    between atoms: O_3  and  C_4 
REMARK    3  A    between atoms: C_5  and  O_6 
REMARK    4  A    between atoms: C_9  and  C_10 
REMARK    5  A    between atoms: N_11  and  C_12 
REMARK    6  A    between atoms: C_12  and  C_13 
REMARK    7  A    between atoms: C_13  and  C_14 
REMARK    8  A    between atoms: C_14  and  N_15 
REMARK    9  A    between atoms: C_27  and  O_28 
REMARK   10  A    between atoms: C_27  and  C_29 
REMARK   11  A    between atoms: C_30  and  C_31 
ROOT
HETATM    1  C   UNL     1      40.932 -14.399   3.405  1.00  0.00     0.161 C 
HETATM    2  N   UNL     1      39.740 -13.574   3.606  1.00  0.00    -0.332 N 
HETATM    3  C   UNL     1      39.066 -13.368   2.420  1.00  0.00     0.295 C 
HETATM    4  O   UNL     1      38.229 -12.511   2.205  1.00  0.00    -0.264 OA
HETATM    5  C   UNL     1      40.647 -15.171   2.134  1.00  0.00     0.058 C 
HETATM    6  C   UNL     1      39.634 -14.369   1.409  1.00  0.00     0.250 C 
HETATM    7  O   UNL     1      39.313 -14.468   0.245  1.00  0.00    -0.282 OA
HETATM    8  C   UNL     1      41.080 -16.342   1.638  1.00  0.00     0.078 C 
ENDROOT
BRANCH   1   9
HETATM    9  C   UNL     1      41.403 -15.154   4.623  1.00  0.00    -0.028 A 
HETATM   10  C   UNL     1      40.636 -16.167   5.220  1.00  0.00     0.012 A 
HETATM   11  C   UNL     1      41.129 -16.863   6.322  1.00  0.00     0.040 A 
HETATM   12  C   UNL     1      42.387 -16.553   6.825  1.00  0.00     0.099 A 
HETATM   13  C   UNL     1      43.178 -15.552   6.254  1.00  0.00     0.102 A 
HETATM   14  C   UNL     1      42.681 -14.859   5.152  1.00  0.00     0.049 A 
BRANCH  12  15
HETATM   15  O   UNL     1      42.844 -17.262   7.900  1.00  0.00    -0.358 OA
HETATM   16  H   UNL     1      43.731 -17.582   7.644  1.00  0.00     0.218 HD
ENDBRANCH  12  15
BRANCH  13  17
HETATM   17  O   UNL     1      44.393 -15.351   6.853  1.00  0.00    -0.349 OA
BRANCH  17  18
HETATM   18  C   UNL     1      44.988 -14.061   6.701  1.00  0.00     0.171 C 
HETATM   19  C   UNL     1      44.836 -13.307   8.009  1.00  0.00     0.034 C 
ENDBRANCH  17  18
ENDBRANCH  13  17
ENDBRANCH   1   9
BRANCH   2  20
HETATM   20  C   UNL     1      39.493 -12.762   4.789  1.00  0.00     0.129 C 
BRANCH  20  21
HETATM   21  C   UNL     1      40.144 -11.380   4.788  1.00  0.00     0.048 C 
BRANCH  21  22
HETATM   22  C   UNL     1      41.395 -11.187   3.929  1.00  0.00     0.236 C 
BRANCH  22  23
HETATM   23  N   UNL     1      41.221 -10.251   2.765  1.00  0.00    -0.067 N 
HETATM   24  H   UNL     1      41.948  -9.508   2.846  1.00  0.00     0.280 HD
HETATM   25  C   UNL     1      41.328 -10.895   1.390  1.00  0.00     0.261 C 
HETATM   26  C   UNL     1      41.129  -9.834   0.302  1.00  0.00     0.195 C 
HETATM   27  O   UNL     1      39.866  -9.179   0.451  1.00  0.00    -0.388 OA
HETATM   28  C   UNL     1      39.776  -8.496   1.707  1.00  0.00     0.195 C 
HETATM   29  C   UNL     1      39.899  -9.484   2.870  1.00  0.00     0.261 C 
ENDBRANCH  22  23
ENDBRANCH  21  22
ENDBRANCH  20  21
ENDBRANCH   2  20
BRANCH   8  30
HETATM   30  O   UNL     1      40.725 -16.826   0.397  1.00  0.00    -0.360 OA
HETATM   31  H   UNL     1      40.492 -17.777   0.452  1.00  0.00     0.217 HD
ENDBRANCH   8  30
BRANCH   8  32
HETATM   32  C   UNL     1      41.891 -17.272   2.385  1.00  0.00     0.038 C 
HETATM   33  C   UNL     1      42.721 -18.193   1.877  1.00  0.00     0.014 C 
BRANCH  33  34
HETATM   34  C   UNL     1      43.500 -19.059   2.774  1.00  0.00    -0.036 A 
HETATM   35  C   UNL     1      43.874 -18.633   4.056  1.00  0.00     0.011 A 
HETATM   36  C   UNL     1      44.659 -19.446   4.876  1.00  0.00     0.001 A 
HETATM   37  C   UNL     1      45.067 -20.699   4.425  1.00  0.00     0.000 A 
HETATM   38  C   UNL     1      44.681 -21.142   3.161  1.00  0.00     0.001 A 
HETATM   39  C   UNL     1      43.896 -20.328   2.340  1.00  0.00     0.011 A 
ENDBRANCH  33  34
ENDBRANCH   8  32
TORSDOF 11
ENDMDL
MODEL 5
REMARK VINA RESULT:      -7.9      1.769      4.574
REMARK  11 active torsions:
REMARK  status: ('A' for Active; 'I' for Inactive)
REMARK    1  A    between atoms: C_2  and  O_3 
REMARK    2  A    between atoms: O_3  and  C_4 
REMARK    3  A    between atoms: C_5  and  O_6 
REMARK    4  A    between atoms: C_9  and  C_10 
REMARK    5  A    between atoms: N_11  and  C_12 
REMARK    6  A    between atoms: C_12  and  C_13 
REMARK    7  A    between atoms: C_13  and  C_14 
REMARK    8  A    between atoms: C_14  and  N_15 
REMARK    9  A    between atoms: C_27  and  O_28 
REMARK   10  A    between atoms: C_27  and  C_29 
REMARK   11  A    between atoms: C_30  and  C_31 
ROOT
HETATM    1  C   UNL     1      42.188 -15.368   5.476  1.00  0.00     0.161 C 
HETATM    2  N   UNL     1      42.218 -13.907   5.551  1.00  0.00    -0.332 N 
HETATM    3  C   UNL     1      43.051 -13.473   6.561  1.00  0.00     0.295 C 
HETATM    4  O   UNL     1      43.065 -12.362   7.058  1.00  0.00    -0.264 OA
HETATM    5  C   UNL     1      43.488 -15.806   6.117  1.00  0.00     0.058 C 
HETATM    6  C   UNL     1      43.890 -14.680   6.991  1.00  0.00     0.250 C 
HETATM    7  O   UNL     1      44.714 -14.697   7.879  1.00  0.00    -0.282 OA
HETATM    8  C   UNL     1      44.261 -16.899   6.003  1.00  0.00     0.078 C 
ENDROOT
BRANCH   1   9
HETATM    9  C   UNL     1      41.816 -15.935   4.128  1.00  0.00    -0.028 A 
HETATM   10  C   UNL     1      40.991 -17.063   3.991  1.00  0.00     0.012 A 
HETATM   11  C   UNL     1      40.643 -17.528   2.724  1.00  0.00     0.040 A 
HETATM   12  C   UNL     1      41.114 -16.867   1.596  1.00  0.00     0.099 A 
HETATM   13  C   UNL     1      41.936 -15.741   1.695  1.00  0.00     0.102 A 
HETATM   14  C   UNL     1      42.280 -15.279   2.964  1.00  0.00     0.049 A 
BRANCH  12  15
HETATM   15  O   UNL     1      40.745 -17.344   0.369  1.00  0.00    -0.358 OA
HETATM   16  H   UNL     1      40.565 -18.295   0.503  1.00  0.00     0.218 HD
ENDBRANCH  12  15
BRANCH  13  17
HETATM   17  O   UNL     1      42.327 -15.192   0.503  1.00  0.00    -0.349 OA
BRANCH  17  18
HETATM   18  C   UNL     1      41.703 -13.967   0.114  1.00  0.00     0.171 C 
HETATM   19  C   UNL     1      40.949 -14.204  -1.182  1.00  0.00     0.034 C 
ENDBRANCH  17  18
ENDBRANCH  13  17
ENDBRANCH   1   9
BRANCH   2  20
HETATM   20  C   UNL     1      41.236 -13.032   4.927  1.00  0.00     0.129 C 
BRANCH  20  21
HETATM   21  C   UNL     1      39.867 -12.988   5.604  1.00  0.00     0.048 C 
BRANCH  21  22
HETATM   22  C   UNL     1      39.433 -11.666   6.239  1.00  0.00     0.236 C 
BRANCH  22  23
HETATM   23  N   UNL     1      40.181 -11.292   7.489  1.00  0.00    -0.067 N 
HETATM   24  H   UNL     1      40.913 -12.016   7.648  1.00  0.00     0.280 HD
HETATM   25  C   UNL     1      40.842  -9.921   7.468  1.00  0.00     0.261 C 
HETATM   26  C   UNL     1      41.561  -9.669   8.798  1.00  0.00     0.195 C 
HETATM   27  O   UNL     1      40.651  -9.769   9.897  1.00  0.00    -0.388 OA
HETATM   28  C   UNL     1      40.079 -11.079   9.986  1.00  0.00     0.195 C 
HETATM   29  C   UNL     1      39.278 -11.406   8.722  1.00  0.00     0.261 C 
ENDBRANCH  22  23
ENDBRANCH  21  22
ENDBRANCH  20  21
ENDBRANCH   2  20
BRANCH   8  30
HETATM   30  O   UNL     1      45.396 -17.115   6.754  1.00  0.00    -0.360 OA
HETATM   31  H   UNL     1      45.213 -17.748   7.480  1.00  0.00     0.217 HD
ENDBRANCH   8  30
BRANCH   8  32
HETATM   32  C   UNL     1      44.046 -17.927   5.015  1.00  0.00     0.038 C 
HETATM   33  C   UNL     1      44.730 -19.073   4.894  1.00  0.00     0.014 C 
BRANCH  33  34
HETATM   34  C   UNL     1      44.375 -20.037   3.842  1.00  0.00    -0.036 A 
HETATM   35  C   UNL     1      44.755 -21.384   3.929  1.00  0.00     0.011 A 
HETATM   36  C   UNL     1      44.456 -22.275   2.896  1.00  0.00     0.001 A 
HETATM   37  C   UNL     1      43.764 -21.830   1.772  1.00  0.00     0.000 A 
HETATM   38  C   UNL     1      43.362 -20.498   1.687  1.00  0.00     0.001 A 
HETATM   39  C   UNL     1      43.661 -19.605   2.719  1.00  0.00     0.011 A 
ENDBRANCH  33  34
ENDBRANCH   8  32
TORSDOF 11
ENDMDL
MODEL 6
REMARK VINA RESULT:      -7.8      2.926      7.095
REMARK  11 active torsions:
REMARK  status: ('A' for Active; 'I' for Inactive)
REMARK    1  A    between atoms: C_2  and  O_3 
REMARK    2  A    between atoms: O_3  and  C_4 
REMARK    3  A    between atoms: C_5  and  O_6 
REMARK    4  A    between atoms: C_9  and  C_10 
REMARK    5  A    between atoms: N_11  and  C_12 
REMARK    6  A    between atoms: C_12  and  C_13 
REMARK    7  A    between atoms: C_13  and  C_14 
REMARK    8  A    between atoms: C_14  and  N_15 
REMARK    9  A    between atoms: C_27  and  O_28 
REMARK   10  A    between atoms: C_27  and  C_29 
REMARK   11  A    between atoms: C_30  and  C_31 
ROOT
HETATM    1  C   UNL     1      40.005 -13.845   3.079  1.00  0.00     0.161 C 
HETATM    2  N   UNL     1      39.830 -12.603   2.324  1.00  0.00    -0.332 N 
HETATM    3  C   UNL     1      39.050 -11.700   3.016  1.00  0.00     0.295 C 
HETATM    4  O   UNL     1      38.493 -10.722   2.552  1.00  0.00    -0.264 OA
HETATM    5  C   UNL     1      39.770 -13.447   4.520  1.00  0.00     0.058 C 
HETATM    6  C   UNL     1      38.952 -12.213   4.456  1.00  0.00     0.250 C 
HETATM    7  O   UNL     1      38.321 -11.702   5.355  1.00  0.00    -0.282 OA
HETATM    8  C   UNL     1      40.168 -13.947   5.702  1.00  0.00     0.078 C 
ENDROOT
BRANCH   1   9
HETATM    9  C   UNL     1      41.242 -14.636   2.736  1.00  0.00    -0.028 A 
HETATM   10  C   UNL     1      42.531 -14.201   3.086  1.00  0.00     0.012 A 
HETATM   11  C   UNL     1      43.643 -14.985   2.781  1.00  0.00     0.040 A 
HETATM   12  C   UNL     1      43.469 -16.201   2.132  1.00  0.00     0.099 A 
HETATM   13  C   UNL     1      42.202 -16.666   1.770  1.00  0.00     0.102 A 
HETATM   14  C   UNL     1      41.093 -15.879   2.078  1.00  0.00     0.049 A 
BRANCH  12  15
HETATM   15  O   UNL     1      44.581 -16.949   1.858  1.00  0.00    -0.358 OA
HETATM   16  H   UNL     1      44.906 -17.261   2.725  1.00  0.00     0.218 HD
ENDBRANCH  12  15
BRANCH  13  17
HETATM   17  O   UNL     1      42.180 -17.879   1.135  1.00  0.00    -0.349 OA
BRANCH  17  18
HETATM   18  C   UNL     1      41.938 -19.032   1.943  1.00  0.00     0.171 C 
HETATM   19  C   UNL     1      43.140 -19.952   1.835  1.00  0.00     0.034 C 
ENDBRANCH  17  18
ENDBRANCH  13  17
ENDBRANCH   1   9
BRANCH   2  20
HETATM   20  C   UNL     1      40.102 -12.462   0.901  1.00  0.00     0.129 C 
BRANCH  20  21
HETATM   21  C   UNL     1      39.292 -13.375  -0.018  1.00  0.00     0.048 C 
BRANCH  21  22
HETATM   22  C   UNL     1      39.859 -13.662  -1.410  1.00  0.00     0.236 C 
BRANCH  22  23
HETATM   23  N   UNL     1      39.035 -14.605  -2.243  1.00  0.00    -0.067 N 
HETATM   24  H   UNL     1      38.691 -15.363  -1.616  1.00  0.00     0.280 HD
HETATM   25  C   UNL     1      37.844 -13.976  -2.953  1.00  0.00     0.261 C 
HETATM   26  C   UNL     1      37.100 -15.043  -3.764  1.00  0.00     0.195 C 
HETATM   27  O   UNL     1      37.973 -15.668  -4.709  1.00  0.00    -0.388 OA
HETATM   28  C   UNL     1      39.058 -16.337  -4.056  1.00  0.00     0.195 C 
HETATM   29  C   UNL     1      39.910 -15.341  -3.263  1.00  0.00     0.261 C 
ENDBRANCH  22  23
ENDBRANCH  21  22
ENDBRANCH  20  21
ENDBRANCH   2  20
BRANCH   8  30
HETATM   30  O   UNL     1      39.766 -13.446   6.921  1.00  0.00    -0.360 OA
HETATM   31  H   UNL     1      39.121 -12.718   6.798  1.00  0.00     0.217 HD
ENDBRANCH   8  30
BRANCH   8  32
HETATM   32  C   UNL     1      41.137 -15.008   5.831  1.00  0.00     0.038 C 
HETATM   33  C   UNL     1      40.926 -16.221   6.361  1.00  0.00     0.014 C 
BRANCH  33  34
HETATM   34  C   UNL     1      42.015 -17.207   6.403  1.00  0.00    -0.036 A 
HETATM   35  C   UNL     1      42.744 -17.440   7.579  1.00  0.00     0.011 A 
HETATM   36  C   UNL     1      43.809 -18.342   7.589  1.00  0.00     0.001 A 
HETATM   37  C   UNL     1      44.149 -19.030   6.426  1.00  0.00     0.000 A 
HETATM   38  C   UNL     1      43.416 -18.823   5.258  1.00  0.00     0.001 A 
HETATM   39  C   UNL     1      42.350 -17.920   5.247  1.00  0.00     0.011 A 
ENDBRANCH  33  34
ENDBRANCH   8  32
TORSDOF 11
ENDMDL
MODEL 7
REMARK VINA RESULT:      -7.8      1.283      2.096
REMARK  11 active torsions:
REMARK  status: ('A' for Active; 'I' for Inactive)
REMARK    1  A    between atoms: C_2  and  O_3 
REMARK    2  A    between atoms: O_3  and  C_4 
REMARK    3  A    between atoms: C_5  and  O_6 
REMARK    4  A    between atoms: C_9  and  C_10 
REMARK    5  A    between atoms: N_11  and  C_12 
REMARK    6  A    between atoms: C_12  and  C_13 
REMARK    7  A    between atoms: C_13  and  C_14 
REMARK    8  A    between atoms: C_14  and  N_15 
REMARK    9  A    between atoms: C_27  and  O_28 
REMARK   10  A    between atoms: C_27  and  C_29 
REMARK   11  A    between atoms: C_30  and  C_31 
ROOT
HETATM    1  C   UNL     1      40.599 -13.080   4.433  1.00  0.00     0.161 C 
HETATM    2  N   UNL     1      39.628 -12.233   5.129  1.00  0.00    -0.332 N 
HETATM    3  C   UNL     1      38.751 -11.643   4.242  1.00  0.00     0.295 C 
HETATM    4  O   UNL     1      38.035 -10.684   4.465  1.00  0.00    -0.264 OA
HETATM    5  C   UNL     1      39.922 -13.437   3.127  1.00  0.00     0.058 C 
HETATM    6  C   UNL     1      38.916 -12.372   2.905  1.00  0.00     0.250 C 
HETATM    7  O   UNL     1      38.335 -12.113   1.874  1.00  0.00    -0.282 OA
HETATM    8  C   UNL     1      40.043 -14.460   2.265  1.00  0.00     0.078 C 
ENDROOT
BRANCH   1   9
HETATM    9  C   UNL     1      41.200 -14.185   5.266  1.00  0.00    -0.028 A 
HETATM   10  C   UNL     1      40.446 -15.282   5.713  1.00  0.00     0.012 A 
HETATM   11  C   UNL     1      41.053 -16.298   6.448  1.00  0.00     0.040 A 
HETATM   12  C   UNL     1      42.411 -16.222   6.734  1.00  0.00     0.099 A 
HETATM   13  C   UNL     1      43.192 -15.146   6.304  1.00  0.00     0.102 A 
HETATM   14  C   UNL     1      42.581 -14.133   5.569  1.00  0.00     0.049 A 
BRANCH  12  15
HETATM   15  O   UNL     1      42.977 -17.241   7.448  1.00  0.00    -0.358 OA
HETATM   16  H   UNL     1      42.250 -17.623   7.978  1.00  0.00     0.218 HD
ENDBRANCH  12  15
BRANCH  13  17
HETATM   17  O   UNL     1      44.514 -15.201   6.659  1.00  0.00    -0.349 OA
BRANCH  17  18
HETATM   18  C   UNL     1      45.205 -13.957   6.790  1.00  0.00     0.171 C 
HETATM   19  C   UNL     1      44.826 -13.338   8.124  1.00  0.00     0.034 C 
ENDBRANCH  17  18
ENDBRANCH  13  17
ENDBRANCH   1   9
BRANCH   2  20
HETATM   20  C   UNL     1      39.780 -11.763   6.498  1.00  0.00     0.129 C 
BRANCH  20  21
HETATM   21  C   UNL     1      40.801 -10.645   6.701  1.00  0.00     0.048 C 
BRANCH  21  22
HETATM   22  C   UNL     1      41.972 -10.917   7.646  1.00  0.00     0.236 C 
BRANCH  22  23
HETATM   23  N   UNL     1      42.083  -9.965   8.804  1.00  0.00    -0.067 N 
HETATM   24  H   UNL     1      42.899  -9.342   8.623  1.00  0.00     0.280 HD
HETATM   25  C   UNL     1      40.854  -9.104   9.059  1.00  0.00     0.261 C 
HETATM   26  C   UNL     1      41.102  -8.188  10.263  1.00  0.00     0.195 C 
HETATM   27  O   UNL     1      41.430  -8.951  11.427  1.00  0.00    -0.388 OA
HETATM   28  C   UNL     1      42.631  -9.707  11.237  1.00  0.00     0.195 C 
HETATM   29  C   UNL     1      42.466 -10.707  10.089  1.00  0.00     0.261 C 
ENDBRANCH  22  23
ENDBRANCH  21  22
ENDBRANCH  20  21
ENDBRANCH   2  20
BRANCH   8  30
HETATM   30  O   UNL     1      39.351 -14.544   1.075  1.00  0.00    -0.360 OA
HETATM   31  H   UNL     1      39.468 -13.725   0.550  1.00  0.00     0.217 HD
ENDBRANCH   8  30
BRANCH   8  32
HETATM   32  C   UNL     1      40.839 -15.633   2.527  1.00  0.00     0.038 C 
HETATM   33  C   UNL     1      41.987 -15.969   1.923  1.00  0.00     0.014 C 
BRANCH  33  34
HETATM   34  C   UNL     1      42.697 -17.195   2.318  1.00  0.00    -0.036 A 
HETATM   35  C   UNL     1      43.292 -18.033   1.363  1.00  0.00     0.011 A 
HETATM   36  C   UNL     1      43.917 -19.220   1.750  1.00  0.00     0.001 A 
HETATM   37  C   UNL     1      43.965 -19.574   3.096  1.00  0.00     0.000 A 
HETATM   38  C   UNL     1      43.398 -18.736   4.055  1.00  0.00     0.001 A 
HETATM   39  C   UNL     1      42.771 -17.548   3.669  1.00  0.00     0.011 A 
ENDBRANCH  33  34
ENDBRANCH   8  32
TORSDOF 11
ENDMDL
MODEL 8
REMARK VINA RESULT:      -7.5      2.689      6.713
REMARK  11 active torsions:
REMARK  status: ('A' for Active; 'I' for Inactive)
REMARK    1  A    between atoms: C_2  and  O_3 
REMARK    2  A    between atoms: O_3  and  C_4 
REMARK    3  A    between atoms: C_5  and  O_6 
REMARK    4  A    between atoms: C_9  and  C_10 
REMARK    5  A    between atoms: N_11  and  C_12 
REMARK    6  A    between atoms: C_12  and  C_13 
REMARK    7  A    between atoms: C_13  and  C_14 
REMARK    8  A    between atoms: C_14  and  N_15 
REMARK    9  A    between atoms: C_27  and  O_28 
REMARK   10  A    between atoms: C_27  and  C_29 
REMARK   11  A    between atoms: C_30  and  C_31 
ROOT
HETATM    1  C   UNL     1      41.774 -13.230   3.323  1.00  0.00     0.161 C 
HETATM    2  N   UNL     1      41.457 -13.151   4.749  1.00  0.00    -0.332 N 
HETATM    3  C   UNL     1      41.277 -11.844   5.152  1.00  0.00     0.295 C 
HETATM    4  O   UNL     1      41.293 -11.433   6.298  1.00  0.00    -0.264 OA
HETATM    5  C   UNL     1      41.217 -11.949   2.740  1.00  0.00     0.058 C 
HETATM    6  C   UNL     1      41.139 -11.004   3.879  1.00  0.00     0.250 C 
HETATM    7  O   UNL     1      41.000  -9.801   3.829  1.00  0.00    -0.282 OA
HETATM    8  C   UNL     1      40.794 -11.588   1.517  1.00  0.00     0.078 C 
ENDROOT
BRANCH   1   9
HETATM    9  C   UNL     1      41.429 -14.540   2.659  1.00  0.00    -0.028 A 
HETATM   10  C   UNL     1      40.119 -15.044   2.632  1.00  0.00     0.012 A 
HETATM   11  C   UNL     1      39.841 -16.241   1.974  1.00  0.00     0.040 A 
HETATM   12  C   UNL     1      40.868 -16.932   1.342  1.00  0.00     0.099 A 
HETATM   13  C   UNL     1      42.183 -16.459   1.348  1.00  0.00     0.102 A 
HETATM   14  C   UNL     1      42.456 -15.262   2.006  1.00  0.00     0.049 A 
BRANCH  12  15
HETATM   15  O   UNL     1      40.558 -18.097   0.697  1.00  0.00    -0.358 OA
HETATM   16  H   UNL     1      41.279 -18.239   0.053  1.00  0.00     0.218 HD
ENDBRANCH  12  15
BRANCH  13  17
HETATM   17  O   UNL     1      43.092 -17.243   0.688  1.00  0.00    -0.349 OA
BRANCH  17  18
HETATM   18  C   UNL     1      44.167 -17.783   1.459  1.00  0.00     0.171 C 
HETATM   19  C   UNL     1      43.727 -19.124   2.018  1.00  0.00     0.034 C 
ENDBRANCH  17  18
ENDBRANCH  13  17
ENDBRANCH   1   9
BRANCH   2  20
HETATM   20  C   UNL     1      41.673 -14.233   5.700  1.00  0.00     0.129 C 
BRANCH  20  21
HETATM   21  C   UNL     1      43.052 -14.889   5.649  1.00  0.00     0.048 C 
BRANCH  21  22
HETATM   22  C   UNL     1      43.675 -15.334   6.973  1.00  0.00     0.236 C 
BRANCH  22  23
HETATM   23  N   UNL     1      44.131 -16.766   7.005  1.00  0.00    -0.067 N 
HETATM   24  H   UNL     1      45.145 -16.769   7.250  1.00  0.00     0.280 HD
HETATM   25  C   UNL     1      43.387 -17.666   7.981  1.00  0.00     0.261 C 
HETATM   26  C   UNL     1      43.949 -19.090   7.908  1.00  0.00     0.195 C 
HETATM   27  O   UNL     1      43.856 -19.609   6.578  1.00  0.00    -0.388 OA
HETATM   28  C   UNL     1      44.618 -18.823   5.655  1.00  0.00     0.195 C 
HETATM   29  C   UNL     1      44.091 -17.386   5.604  1.00  0.00     0.261 C 
ENDBRANCH  22  23
ENDBRANCH  21  22
ENDBRANCH  20  21
ENDBRANCH   2  20
BRANCH   8  30
HETATM   30  O   UNL     1      40.378 -10.313   1.196  1.00  0.00    -0.360 OA
HETATM   31  H   UNL     1      40.296  -9.764   2.003  1.00  0.00     0.217 HD
ENDBRANCH   8  30
BRANCH   8  32
HETATM   32  C   UNL     1      40.637 -12.514   0.423  1.00  0.00     0.038 C 
HETATM   33  C   UNL     1      39.484 -12.886  -0.149  1.00  0.00     0.014 C 
BRANCH  33  34
HETATM   34  C   UNL     1      39.490 -13.830  -1.276  1.00  0.00    -0.036 A 
HETATM   35  C   UNL     1      40.603 -14.640  -1.544  1.00  0.00     0.011 A 
HETATM   36  C   UNL     1      40.612 -15.493  -2.649  1.00  0.00     0.001 A 
HETATM   37  C   UNL     1      39.503 -15.554  -3.490  1.00  0.00     0.000 A 
HETATM   38  C   UNL     1      38.382 -14.770  -3.219  1.00  0.00     0.001 A 
HETATM   39  C   UNL     1      38.372 -13.916  -2.113  1.00  0.00     0.011 A 
ENDBRANCH  33  34
ENDBRANCH   8  32
TORSDOF 11
ENDMDL
MODEL 9
REMARK VINA RESULT:      -7.5      2.500      6.379
REMARK  11 active torsions:
REMARK  status: ('A' for Active; 'I' for Inactive)
REMARK    1  A    between atoms: C_2  and  O_3 
REMARK    2  A    between atoms: O_3  and  C_4 
REMARK    3  A    between atoms: C_5  and  O_6 
REMARK    4  A    between atoms: C_9  and  C_10 
REMARK    5  A    between atoms: N_11  and  C_12 
REMARK    6  A    between atoms: C_12  and  C_13 
REMARK    7  A    between atoms: C_13  and  C_14 
REMARK    8  A    between atoms: C_14  and  N_15 
REMARK    9  A    between atoms: C_27  and  O_28 
REMARK   10  A    between atoms: C_27  and  C_29 
REMARK   11  A    between atoms: C_30  and  C_31 
ROOT
HETATM    1  C   UNL     1      40.415 -13.417   4.425  1.00  0.00     0.161 C 
HETATM    2  N   UNL     1      39.858 -12.074   4.252  1.00  0.00    -0.332 N 
HETATM    3  C   UNL     1      40.241 -11.236   5.279  1.00  0.00     0.295 C 
HETATM    4  O   UNL     1      39.724 -10.174   5.575  1.00  0.00    -0.264 OA
HETATM    5  C   UNL     1      41.629 -13.212   5.305  1.00  0.00     0.058 C 
HETATM    6  C   UNL     1      41.382 -11.938   6.021  1.00  0.00     0.250 C 
HETATM    7  O   UNL     1      41.956 -11.523   7.004  1.00  0.00    -0.282 OA
HETATM    8  C   UNL     1      42.773 -13.892   5.488  1.00  0.00     0.078 C 
ENDROOT
BRANCH   1   9
HETATM    9  C   UNL     1      40.564 -14.219   3.156  1.00  0.00    -0.028 A 
HETATM   10  C   UNL     1      40.005 -15.498   3.008  1.00  0.00     0.012 A 
HETATM   11  C   UNL     1      40.137 -16.187   1.803  1.00  0.00     0.040 A 
HETATM   12  C   UNL     1      40.822 -15.598   0.747  1.00  0.00     0.099 A 
HETATM   13  C   UNL     1      41.390 -14.326   0.859  1.00  0.00     0.102 A 
HETATM   14  C   UNL     1      41.255 -13.642   2.065  1.00  0.00     0.049 A 
BRANCH  12  15
HETATM   15  O   UNL     1      40.924 -16.297  -0.423  1.00  0.00    -0.358 OA
HETATM   16  H   UNL     1      41.861 -16.226  -0.689  1.00  0.00     0.218 HD
ENDBRANCH  12  15
BRANCH  13  17
HETATM   17  O   UNL     1      42.038 -13.872  -0.259  1.00  0.00    -0.349 OA
BRANCH  17  18
HETATM   18  C   UNL     1      42.019 -12.462  -0.493  1.00  0.00     0.171 C 
HETATM   19  C   UNL     1      42.495 -12.207  -1.912  1.00  0.00     0.034 C 
ENDBRANCH  17  18
ENDBRANCH  13  17
ENDBRANCH   1   9
BRANCH   2  20
HETATM   20  C   UNL     1      38.756 -11.751   3.358  1.00  0.00     0.129 C 
BRANCH  20  21
HETATM   21  C   UNL     1      39.111 -10.857   2.171  1.00  0.00     0.048 C 
BRANCH  21  22
HETATM   22  C   UNL     1      38.144 -10.835   0.986  1.00  0.00     0.236 C 
BRANCH  22  23
HETATM   23  N   UNL     1      38.565 -11.678  -0.186  1.00  0.00    -0.067 N 
HETATM   24  H   UNL     1      39.605 -11.744  -0.171  1.00  0.00     0.280 HD
HETATM   25  C   UNL     1      37.984 -13.085  -0.219  1.00  0.00     0.261 C 
HETATM   26  C   UNL     1      38.490 -13.827  -1.461  1.00  0.00     0.195 C 
HETATM   27  O   UNL     1      38.150 -13.117  -2.655  1.00  0.00    -0.388 OA
HETATM   28  C   UNL     1      38.755 -11.819  -2.683  1.00  0.00     0.195 C 
HETATM   29  C   UNL     1      38.262 -10.967  -1.509  1.00  0.00     0.261 C 
ENDBRANCH  22  23
ENDBRANCH  21  22
ENDBRANCH  20  21
ENDBRANCH   2  20
BRANCH   8  30
HETATM   30  O   UNL     1      43.732 -13.544   6.415  1.00  0.00    -0.360 OA
HETATM   31  H   UNL     1      43.313 -13.191   7.228  1.00  0.00     0.217 HD
ENDBRANCH   8  30
BRANCH   8  32
HETATM   32  C   UNL     1      43.173 -15.012   4.671  1.00  0.00     0.038 C 
HETATM   33  C   UNL     1      43.013 -16.309   4.963  1.00  0.00     0.014 C 
BRANCH  33  34
HETATM   34  C   UNL     1      43.457 -17.340   4.013  1.00  0.00    -0.036 A 
HETATM   35  C   UNL     1      43.651 -17.046   2.655  1.00  0.00     0.011 A 
HETATM   36  C   UNL     1      44.023 -18.048   1.756  1.00  0.00     0.001 A 
HETATM   37  C   UNL     1      44.216 -19.351   2.209  1.00  0.00     0.000 A 
HETATM   38  C   UNL     1      44.049 -19.649   3.560  1.00  0.00     0.001 A 
HETATM   39  C   UNL     1      43.676 -18.647   4.461  1.00  0.00     0.011 A 
ENDBRANCH  33  34
ENDBRANCH   8  32
TORSDOF 11
ENDMDL
MODEL 10
REMARK VINA RESULT:      -7.4      3.833      6.357
REMARK  11 active torsions:
REMARK  status: ('A' for Active; 'I' for Inactive)
REMARK    1  A    between atoms: C_2  and  O_3 
REMARK    2  A    between atoms: O_3  and  C_4 
REMARK    3  A    between atoms: C_5  and  O_6 
REMARK    4  A    between atoms: C_9  and  C_10 
REMARK    5  A    between atoms: N_11  and  C_12 
REMARK    6  A    between atoms: C_12  and  C_13 
REMARK    7  A    between atoms: C_13  and  C_14 
REMARK    8  A    between atoms: C_14  and  N_15 
REMARK    9  A    between atoms: C_27  and  O_28 
REMARK   10  A    between atoms: C_27  and  C_29 
REMARK   11  A    between atoms: C_30  and  C_31 
ROOT
HETATM    1  C   UNL     1      39.148 -12.777   3.045  1.00  0.00     0.161 C 
HETATM    2  N   UNL     1      38.774 -11.363   3.103  1.00  0.00    -0.332 N 
HETATM    3  C   UNL     1      38.526 -10.963   4.400  1.00  0.00     0.295 C 
HETATM    4  O   UNL     1      37.929  -9.960   4.744  1.00  0.00    -0.264 OA
HETATM    5  C   UNL     1      39.677 -13.086   4.430  1.00  0.00     0.058 C 
HETATM    6  C   UNL     1      39.072 -12.064   5.315  1.00  0.00     0.250 C 
HETATM    7  O   UNL     1      39.009 -12.083   6.525  1.00  0.00    -0.282 OA
HETATM    8  C   UNL     1      40.533 -13.999   4.918  1.00  0.00     0.078 C 
ENDROOT
BRANCH   1   9
HETATM    9  C   UNL     1      39.974 -13.174   1.847  1.00  0.00    -0.028 A 
HETATM   10  C   UNL     1      39.702 -14.331   1.099  1.00  0.00     0.012 A 
HETATM   11  C   UNL     1      40.470 -14.638  -0.023  1.00  0.00     0.040 A 
HETATM   12  C   UNL     1      41.504 -13.790  -0.401  1.00  0.00     0.099 A 
HETATM   13  C   UNL     1      41.802 -12.630   0.319  1.00  0.00     0.102 A 
HETATM   14  C   UNL     1      41.032 -12.327   1.440  1.00  0.00     0.049 A 
BRANCH  12  15
HETATM   15  O   UNL     1      42.230 -14.116  -1.512  1.00  0.00    -0.358 OA
HETATM   16  H   UNL     1      43.156 -13.898  -1.292  1.00  0.00     0.218 HD
ENDBRANCH  12  15
BRANCH  13  17
HETATM   17  O   UNL     1      42.848 -11.891  -0.165  1.00  0.00    -0.349 OA
BRANCH  17  18
HETATM   18  C   UNL     1      42.562 -10.554  -0.581  1.00  0.00     0.171 C 
HETATM   19  C   UNL     1      43.801  -9.987  -1.251  1.00  0.00     0.034 C 
ENDBRANCH  17  18
ENDBRANCH  13  17
ENDBRANCH   1   9
BRANCH   2  20
HETATM   20  C   UNL     1      38.346 -10.579   1.954  1.00  0.00     0.129 C 
BRANCH  20  21
HETATM   21  C   UNL     1      36.893 -10.775   1.527  1.00  0.00     0.048 C 
BRANCH  21  22
HETATM   22  C   UNL     1      35.928  -9.608   1.737  1.00  0.00     0.236 C 
BRANCH  22  23
HETATM   23  N   UNL     1      34.673  -9.954   2.489  1.00  0.00    -0.067 N 
HETATM   24  H   UNL     1      34.881 -10.783   3.086  1.00  0.00     0.280 HD
HETATM   25  C   UNL     1      34.113  -8.845   3.368  1.00  0.00     0.261 C 
HETATM   26  C   UNL     1      32.839  -9.330   4.069  1.00  0.00     0.195 C 
HETATM   27  O   UNL     1      31.861  -9.756   3.116  1.00  0.00    -0.388 OA
HETATM   28  C   UNL     1      32.338 -10.856   2.333  1.00  0.00     0.195 C 
HETATM   29  C   UNL     1      33.582 -10.453   1.535  1.00  0.00     0.261 C 
ENDBRANCH  22  23
ENDBRANCH  21  22
ENDBRANCH  20  21
ENDBRANCH   2  20
BRANCH   8  30
HETATM   30  O   UNL     1      40.821 -14.138   6.259  1.00  0.00    -0.360 OA
HETATM   31  H   UNL     1      41.648 -14.649   6.382  1.00  0.00     0.217 HD
ENDBRANCH   8  30
BRANCH   8  32
HETATM   32  C   UNL     1      41.320 -14.877   4.088  1.00  0.00     0.038 C 
HETATM   33  C   UNL     1      41.539 -16.183   4.290  1.00  0.00     0.014 C 
BRANCH  33  34
HETATM   34  C   UNL     1      42.352 -16.952   3.337  1.00  0.00    -0.036 A 
HETATM   35  C   UNL     1      42.560 -18.329   3.500  1.00  0.00     0.011 A 
HETATM   36  C   UNL     1      43.378 -19.035   2.615  1.00  0.00     0.001 A 
HETATM   37  C   UNL     1      43.986 -18.372   1.551  1.00  0.00     0.000 A 
HETATM   38  C   UNL     1      43.766 -17.008   1.366  1.00  0.00     0.001 A 
HETATM   39  C   UNL     1      42.948 -16.301   2.252  1.00  0.00     0.011 A 
ENDBRANCH  33  34
ENDBRANCH   8  32
TORSDOF 11
ENDMDL
