MODEL 1
REMARK VINA RESULT:      -9.3      0.000      0.000
REMARK  1 active torsions:
REMARK  status: ('A' for Active; 'I' for Inactive)
REMARK    1  A    between atoms: C_8  and  C_9 
ROOT
HETATM    1  C   UNL     1      43.031 -17.421   0.987  1.00  0.00     0.073 C 
HETATM    2  C   UNL     1      41.906 -16.849   1.774  1.00  0.00     0.062 C 
HETATM    3  N   UNL     1      40.656 -17.004   1.327  1.00  0.00    -0.178 NA
HETATM    4  N   UNL     1      39.906 -16.436   2.276  1.00  0.00    -0.262 N 
HETATM    5  H   UNL     1      38.900 -16.447   2.156  1.00  0.00     0.191 HD
HETATM    6  C   UNL     1      40.633 -15.804   3.248  1.00  0.00     0.134 C 
HETATM    7  C   UNL     1      41.953 -16.138   3.022  1.00  0.00     0.032 C 
HETATM    8  C   UNL     1      43.187 -15.922   3.844  1.00  0.00     0.119 C 
HETATM    9  S   UNL     1      43.285 -14.554   5.034  1.00  0.00    -0.141 SA
HETATM   10  C   UNL     1      41.920 -13.459   4.575  1.00  0.00     0.136 C 
HETATM   11  C   UNL     1      42.016 -12.843   3.184  1.00  0.00     0.031 C 
HETATM   12  C   UNL     1      40.557 -14.041   4.929  1.00  0.00     0.236 C 
HETATM   13  O   UNL     1      39.871 -13.543   5.829  1.00  0.00    -0.272 OA
HETATM   14  N   UNL     1      40.000 -15.050   4.201  1.00  0.00    -0.311 N 
HETATM   15  H   UNL     1      39.010 -15.179   4.382  1.00  0.00     0.170 HD
ENDROOT
BRANCH   8  16
HETATM   16  C   UNL     1      43.412 -17.249   4.570  1.00  0.00    -0.039 A 
HETATM   17  C   UNL     1      44.000 -18.356   3.925  1.00  0.00     0.021 A 
HETATM   18  C   UNL     1      44.192 -19.581   4.583  1.00  0.00    -0.025 A 
HETATM   19  C   UNL     1      43.792 -19.709   5.930  1.00  0.00    -0.026 A 
HETATM   20  C   UNL     1      44.769 -20.681   3.927  1.00  0.00     0.012 A 
HETATM   21  C   UNL     1      43.204 -18.612   6.578  1.00  0.00     0.013 A 
HETATM   22  C   UNL     1      43.985 -20.937   6.588  1.00  0.00     0.012 A 
HETATM   23  C   UNL     1      43.011 -17.400   5.906  1.00  0.00     0.009 A 
HETATM   24  C   UNL     1      44.560 -22.021   5.922  1.00  0.00     0.001 A 
HETATM   25  C   UNL     1      44.950 -21.893   4.593  1.00  0.00     0.001 A 
ENDBRANCH   8  16
TORSDOF 1
ENDMDL
MODEL 2
REMARK VINA RESULT:      -9.1      2.156      3.171
REMARK  1 active torsions:
REMARK  status: ('A' for Active; 'I' for Inactive)
REMARK    1  A    between atoms: C_8  and  C_9 
ROOT
HETATM    1  C   UNL     1      44.916 -14.538   6.973  1.00  0.00     0.073 C 
HETATM    2  C   UNL     1      44.118 -14.345   5.733  1.00  0.00     0.062 C 
HETATM    3  N   UNL     1      44.600 -13.560   4.765  1.00  0.00    -0.178 NA
HETATM    4  N   UNL     1      43.685 -13.649   3.796  1.00  0.00    -0.262 N 
HETATM    5  H   UNL     1      43.850 -13.137   2.938  1.00  0.00     0.191 HD
HETATM    6  C   UNL     1      42.567 -14.353   4.156  1.00  0.00     0.134 C 
HETATM    7  C   UNL     1      42.849 -14.923   5.383  1.00  0.00     0.032 C 
HETATM    8  C   UNL     1      42.116 -15.946   6.194  1.00  0.00     0.119 C 
HETATM    9  S   UNL     1      40.322 -16.163   6.019  1.00  0.00    -0.141 SA
HETATM   10  C   UNL     1      39.771 -14.672   5.153  1.00  0.00     0.136 C 
HETATM   11  C   UNL     1      39.988 -13.363   5.902  1.00  0.00     0.031 C 
HETATM   12  C   UNL     1      40.195 -14.655   3.689  1.00  0.00     0.236 C 
HETATM   13  O   UNL     1      39.358 -14.771   2.786  1.00  0.00    -0.272 OA
HETATM   14  N   UNL     1      41.483 -14.399   3.321  1.00  0.00    -0.311 N 
HETATM   15  H   UNL     1      41.584 -14.177   2.337  1.00  0.00     0.170 HD
ENDROOT
BRANCH   8  16
HETATM   16  C   UNL     1      42.822 -17.268   5.888  1.00  0.00    -0.039 A 
HETATM   17  C   UNL     1      42.952 -17.751   4.570  1.00  0.00     0.021 A 
HETATM   18  C   UNL     1      43.585 -18.972   4.288  1.00  0.00    -0.025 A 
HETATM   19  C   UNL     1      44.111 -19.737   5.350  1.00  0.00    -0.026 A 
HETATM   20  C   UNL     1      43.700 -19.448   2.971  1.00  0.00     0.012 A 
HETATM   21  C   UNL     1      43.983 -19.263   6.665  1.00  0.00     0.013 A 
HETATM   22  C   UNL     1      44.744 -20.960   5.066  1.00  0.00     0.012 A 
HETATM   23  C   UNL     1      43.343 -18.048   6.932  1.00  0.00     0.009 A 
HETATM   24  C   UNL     1      44.850 -21.420   3.752  1.00  0.00     0.001 A 
HETATM   25  C   UNL     1      44.327 -20.665   2.707  1.00  0.00     0.001 A 
ENDBRANCH   8  16
TORSDOF 1
ENDMDL
MODEL 3
REMARK VINA RESULT:      -9.0      1.174      2.196
REMARK  1 active torsions:
REMARK  status: ('A' for Active; 'I' for Inactive)
REMARK    1  A    between atoms: C_8  and  C_9 
ROOT
HETATM    1  C   UNL     1      41.461 -15.453  -0.132  1.00  0.00     0.073 C 
HETATM    2  C   UNL     1      40.736 -15.344   1.162  1.00  0.00     0.062 C 
HETATM    3  N   UNL     1      39.412 -15.526   1.182  1.00  0.00    -0.178 NA
HETATM    4  N   UNL     1      39.096 -15.419   2.475  1.00  0.00    -0.262 N 
HETATM    5  H   UNL     1      38.125 -15.538   2.738  1.00  0.00     0.191 HD
HETATM    6  C   UNL     1      40.144 -15.042   3.271  1.00  0.00     0.134 C 
HETATM    7  C   UNL     1      41.270 -15.084   2.471  1.00  0.00     0.032 C 
HETATM    8  C   UNL     1      42.726 -14.971   2.800  1.00  0.00     0.119 C 
HETATM    9  S   UNL     1      43.280 -14.072   4.277  1.00  0.00    -0.141 SA
HETATM   10  C   UNL     1      41.838 -13.100   4.780  1.00  0.00     0.136 C 
HETATM   11  C   UNL     1      41.372 -12.054   3.774  1.00  0.00     0.031 C 
HETATM   12  C   UNL     1      40.731 -13.961   5.375  1.00  0.00     0.236 C 
HETATM   13  O   UNL     1      40.453 -13.893   6.578  1.00  0.00    -0.272 OA
HETATM   14  N   UNL     1      39.936 -14.745   4.591  1.00  0.00    -0.311 N 
HETATM   15  H   UNL     1      39.100 -15.070   5.063  1.00  0.00     0.170 HD
ENDROOT
BRANCH   8  16
HETATM   16  C   UNL     1      43.228 -16.414   2.862  1.00  0.00    -0.039 A 
HETATM   17  C   UNL     1      43.307 -17.119   4.080  1.00  0.00     0.021 A 
HETATM   18  C   UNL     1      43.784 -18.438   4.143  1.00  0.00    -0.025 A 
HETATM   19  C   UNL     1      44.191 -19.081   2.955  1.00  0.00    -0.026 A 
HETATM   20  C   UNL     1      43.867 -19.128   5.364  1.00  0.00     0.012 A 
HETATM   21  C   UNL     1      44.117 -18.384   1.739  1.00  0.00     0.013 A 
HETATM   22  C   UNL     1      44.668 -20.402   3.019  1.00  0.00     0.012 A 
HETATM   23  C   UNL     1      43.648 -17.067   1.693  1.00  0.00     0.009 A 
HETATM   24  C   UNL     1      44.745 -21.074   4.241  1.00  0.00     0.001 A 
HETATM   25  C   UNL     1      44.346 -20.437   5.411  1.00  0.00     0.001 A 
ENDBRANCH   8  16
TORSDOF 1
ENDMDL
MODEL 4
REMARK VINA RESULT:      -8.9      2.418      3.727
REMARK  1 active torsions:
REMARK  status: ('A' for Active; 'I' for Inactive)
REMARK    1  A    between atoms: C_8  and  C_9 
ROOT
HETATM    1  C   UNL     1      43.300 -16.601   8.034  1.00  0.00     0.073 C 
HETATM    2  C   UNL     1      43.670 -15.625   6.975  1.00  0.00     0.062 C 
HETATM    3  N   UNL     1      44.680 -14.777   7.196  1.00  0.00    -0.178 NA
HETATM    4  N   UNL     1      44.781 -14.097   6.051  1.00  0.00    -0.262 N 
HETATM    5  H   UNL     1      45.506 -13.394   5.979  1.00  0.00     0.191 HD
HETATM    6  C   UNL     1      43.790 -14.381   5.151  1.00  0.00     0.134 C 
HETATM    7  C   UNL     1      43.096 -15.457   5.668  1.00  0.00     0.032 C 
HETATM    8  C   UNL     1      42.042 -16.339   5.072  1.00  0.00     0.119 C 
HETATM    9  S   UNL     1      40.971 -15.736   3.735  1.00  0.00    -0.141 SA
HETATM   10  C   UNL     1      41.182 -13.939   3.765  1.00  0.00     0.136 C 
HETATM   11  C   UNL     1      40.726 -13.248   5.044  1.00  0.00     0.031 C 
HETATM   12  C   UNL     1      42.547 -13.501   3.248  1.00  0.00     0.236 C 
HETATM   13  O   UNL     1      42.654 -12.901   2.172  1.00  0.00    -0.272 OA
HETATM   14  N   UNL     1      43.677 -13.652   3.997  1.00  0.00    -0.311 N 
HETATM   15  H   UNL     1      44.463 -13.112   3.654  1.00  0.00     0.170 HD
ENDROOT
BRANCH   8  16
HETATM   16  C   UNL     1      42.793 -17.585   4.602  1.00  0.00    -0.039 A 
HETATM   17  C   UNL     1      43.052 -18.666   5.470  1.00  0.00     0.021 A 
HETATM   18  C   UNL     1      43.756 -19.804   5.046  1.00  0.00    -0.025 A 
HETATM   19  C   UNL     1      44.216 -19.873   3.714  1.00  0.00    -0.026 A 
HETATM   20  C   UNL     1      44.016 -20.870   5.923  1.00  0.00     0.012 A 
HETATM   21  C   UNL     1      43.965 -18.800   2.846  1.00  0.00     0.013 A 
HETATM   22  C   UNL     1      44.922 -21.013   3.292  1.00  0.00     0.012 A 
HETATM   23  C   UNL     1      43.268 -17.669   3.284  1.00  0.00     0.009 A 
HETATM   24  C   UNL     1      45.172 -22.066   4.175  1.00  0.00     0.001 A 
HETATM   25  C   UNL     1      44.721 -21.993   5.489  1.00  0.00     0.001 A 
ENDBRANCH   8  16
TORSDOF 1
ENDMDL
MODEL 5
REMARK VINA RESULT:      -8.7      2.589      3.682
REMARK  1 active torsions:
REMARK  status: ('A' for Active; 'I' for Inactive)
REMARK    1  A    between atoms: C_8  and  C_9 
ROOT
HETATM    1  C   UNL     1      42.667 -15.187   6.102  1.00  0.00     0.073 C 
HETATM    2  C   UNL     1      42.761 -14.573   4.751  1.00  0.00     0.062 C 
HETATM    3  N   UNL     1      43.609 -13.559   4.554  1.00  0.00    -0.178 NA
HETATM    4  N   UNL     1      43.488 -13.291   3.252  1.00  0.00    -0.262 N 
HETATM    5  H   UNL     1      44.061 -12.550   2.865  1.00  0.00     0.191 HD
HETATM    6  C   UNL     1      42.498 -14.002   2.631  1.00  0.00     0.134 C 
HETATM    7  C   UNL     1      42.062 -14.938   3.549  1.00  0.00     0.032 C 
HETATM    8  C   UNL     1      41.147 -16.115   3.409  1.00  0.00     0.119 C 
HETATM    9  S   UNL     1      39.877 -16.159   2.111  1.00  0.00    -0.141 SA
HETATM   10  C   UNL     1      39.750 -14.444   1.548  1.00  0.00     0.136 C 
HETATM   11  C   UNL     1      39.277 -13.445   2.597  1.00  0.00     0.031 C 
HETATM   12  C   UNL     1      40.963 -14.002   0.738  1.00  0.00     0.236 C 
HETATM   13  O   UNL     1      40.868 -13.784  -0.476  1.00  0.00    -0.272 OA
HETATM   14  N   UNL     1      42.158 -13.724   1.334  1.00  0.00    -0.311 N 
HETATM   15  H   UNL     1      42.798 -13.216   0.734  1.00  0.00     0.170 HD
ENDROOT
BRANCH   8  16
HETATM   16  C   UNL     1      42.078 -17.318   3.253  1.00  0.00    -0.039 A 
HETATM   17  C   UNL     1      42.556 -18.035   4.370  1.00  0.00     0.021 A 
HETATM   18  C   UNL     1      43.424 -19.129   4.231  1.00  0.00    -0.025 A 
HETATM   19  C   UNL     1      43.828 -19.529   2.940  1.00  0.00    -0.026 A 
HETATM   20  C   UNL     1      43.902 -19.829   5.352  1.00  0.00     0.012 A 
HETATM   21  C   UNL     1      43.358 -18.819   1.825  1.00  0.00     0.013 A 
HETATM   22  C   UNL     1      44.698 -20.625   2.804  1.00  0.00     0.012 A 
HETATM   23  C   UNL     1      42.500 -17.726   1.978  1.00  0.00     0.009 A 
HETATM   24  C   UNL     1      45.164 -21.311   3.928  1.00  0.00     0.001 A 
HETATM   25  C   UNL     1      44.768 -20.912   5.200  1.00  0.00     0.001 A 
ENDBRANCH   8  16
TORSDOF 1
ENDMDL
MODEL 6
REMARK VINA RESULT:      -8.5      2.683      3.536
REMARK  1 active torsions:
REMARK  status: ('A' for Active; 'I' for Inactive)
REMARK    1  A    between atoms: C_8  and  C_9 
ROOT
HETATM    1  C   UNL     1      42.648 -15.040   6.186  1.00  0.00     0.073 C 
HETATM    2  C   UNL     1      42.829 -14.680   4.755  1.00  0.00     0.062 C 
HETATM    3  N   UNL     1      43.697 -13.716   4.432  1.00  0.00    -0.178 NA
HETATM    4  N   UNL     1      43.658 -13.687   3.097  1.00  0.00    -0.262 N 
HETATM    5  H   UNL     1      44.260 -13.027   2.619  1.00  0.00     0.191 HD
HETATM    6  C   UNL     1      42.700 -14.500   2.555  1.00  0.00     0.134 C 
HETATM    7  C   UNL     1      42.200 -15.256   3.597  1.00  0.00     0.032 C 
HETATM    8  C   UNL     1      41.284 -16.440   3.615  1.00  0.00     0.119 C 
HETATM    9  S   UNL     1      40.096 -16.718   2.271  1.00  0.00    -0.141 SA
HETATM   10  C   UNL     1      40.019 -15.133   1.402  1.00  0.00     0.136 C 
HETATM   11  C   UNL     1      39.493 -13.962   2.224  1.00  0.00     0.031 C 
HETATM   12  C   UNL     1      41.283 -14.842   0.602  1.00  0.00     0.236 C 
HETATM   13  O   UNL     1      41.264 -14.846  -0.635  1.00  0.00    -0.272 OA
HETATM   14  N   UNL     1      42.442 -14.460   1.210  1.00  0.00    -0.311 N 
HETATM   15  H   UNL     1      43.123 -14.067   0.570  1.00  0.00     0.170 HD
ENDROOT
BRANCH   8  16
HETATM   16  C   UNL     1      42.211 -17.651   3.736  1.00  0.00    -0.039 A 
HETATM   17  C   UNL     1      42.433 -18.526   2.652  1.00  0.00     0.021 A 
HETATM   18  C   UNL     1      43.269 -19.648   2.765  1.00  0.00    -0.025 A 
HETATM   19  C   UNL     1      43.913 -19.906   3.994  1.00  0.00    -0.026 A 
HETATM   20  C   UNL     1      43.474 -20.518   1.682  1.00  0.00     0.012 A 
HETATM   21  C   UNL     1      43.695 -19.041   5.077  1.00  0.00     0.013 A 
HETATM   22  C   UNL     1      44.750 -21.030   4.105  1.00  0.00     0.012 A 
HETATM   23  C   UNL     1      42.852 -17.931   4.952  1.00  0.00     0.009 A 
HETATM   24  C   UNL     1      44.944 -21.886   3.019  1.00  0.00     0.001 A 
HETATM   25  C   UNL     1      44.305 -21.631   1.810  1.00  0.00     0.001 A 
ENDBRANCH   8  16
TORSDOF 1
ENDMDL
MODEL 7
REMARK VINA RESULT:      -8.3      4.986      6.627
REMARK  1 active torsions:
REMARK  status: ('A' for Active; 'I' for Inactive)
REMARK    1  A    between atoms: C_8  and  C_9 
ROOT
HETATM    1  C   UNL     1      42.548 -11.894  -0.607  1.00  0.00     0.073 C 
HETATM    2  C   UNL     1      42.114 -12.830  -1.678  1.00  0.00     0.062 C 
HETATM    3  N   UNL     1      42.949 -13.095  -2.688  1.00  0.00    -0.178 NA
HETATM    4  N   UNL     1      42.287 -13.993  -3.422  1.00  0.00    -0.262 N 
HETATM    5  H   UNL     1      42.742 -14.358  -4.250  1.00  0.00     0.191 HD
HETATM    6  C   UNL     1      41.005 -14.216  -2.997  1.00  0.00     0.134 C 
HETATM    7  C   UNL     1      40.879 -13.556  -1.790  1.00  0.00     0.032 C 
HETATM    8  C   UNL     1      39.797 -13.580  -0.754  1.00  0.00     0.119 C 
HETATM    9  S   UNL     1      38.087 -13.991  -1.202  1.00  0.00    -0.141 SA
HETATM   10  C   UNL     1      38.043 -13.833  -3.004  1.00  0.00     0.136 C 
HETATM   11  C   UNL     1      38.319 -12.436  -3.545  1.00  0.00     0.031 C 
HETATM   12  C   UNL     1      38.795 -14.957  -3.709  1.00  0.00     0.236 C 
HETATM   13  O   UNL     1      38.187 -15.812  -4.363  1.00  0.00    -0.272 OA
HETATM   14  N   UNL     1      40.158 -14.995  -3.739  1.00  0.00    -0.311 N 
HETATM   15  H   UNL     1      40.528 -15.639  -4.430  1.00  0.00     0.170 HD
ENDROOT
BRANCH   8  16
HETATM   16  C   UNL     1      40.296 -14.558   0.311  1.00  0.00    -0.039 A 
HETATM   17  C   UNL     1      41.378 -15.429   0.068  1.00  0.00     0.021 A 
HETATM   18  C   UNL     1      41.826 -16.340   1.037  1.00  0.00    -0.025 A 
HETATM   19  C   UNL     1      41.183 -16.384   2.292  1.00  0.00    -0.026 A 
HETATM   20  C   UNL     1      42.899 -17.211   0.780  1.00  0.00     0.012 A 
HETATM   21  C   UNL     1      40.105 -15.522   2.539  1.00  0.00     0.013 A 
HETATM   22  C   UNL     1      41.634 -17.297   3.261  1.00  0.00     0.012 A 
HETATM   23  C   UNL     1      39.663 -14.624   1.561  1.00  0.00     0.009 A 
HETATM   24  C   UNL     1      42.702 -18.156   2.991  1.00  0.00     0.001 A 
HETATM   25  C   UNL     1      43.332 -18.113   1.751  1.00  0.00     0.001 A 
ENDBRANCH   8  16
TORSDOF 1
ENDMDL
MODEL 8
REMARK VINA RESULT:      -8.1      3.382      4.737
REMARK  1 active torsions:
REMARK  status: ('A' for Active; 'I' for Inactive)
REMARK    1  A    between atoms: C_8  and  C_9 
ROOT
HETATM    1  C   UNL     1      42.499 -12.875   3.424  1.00  0.00     0.073 C 
HETATM    2  C   UNL     1      41.980 -12.874   2.031  1.00  0.00     0.062 C 
HETATM    3  N   UNL     1      42.577 -12.105   1.115  1.00  0.00    -0.178 NA
HETATM    4  N   UNL     1      41.915 -12.379  -0.012  1.00  0.00    -0.262 N 
HETATM    5  H   UNL     1      42.210 -11.912  -0.861  1.00  0.00     0.191 HD
HETATM    6  C   UNL     1      40.829 -13.192   0.170  1.00  0.00     0.134 C 
HETATM    7  C   UNL     1      40.891 -13.632   1.477  1.00  0.00     0.032 C 
HETATM    8  C   UNL     1      40.112 -14.680   2.210  1.00  0.00     0.119 C 
HETATM    9  S   UNL     1      38.436 -15.135   1.680  1.00  0.00    -0.141 SA
HETATM   10  C   UNL     1      37.932 -13.792   0.577  1.00  0.00     0.136 C 
HETATM   11  C   UNL     1      37.834 -12.416   1.224  1.00  0.00     0.031 C 
HETATM   12  C   UNL     1      38.667 -13.825  -0.758  1.00  0.00     0.236 C 
HETATM   13  O   UNL     1      38.069 -14.111  -1.803  1.00  0.00    -0.272 OA
HETATM   14  N   UNL     1      39.969 -13.435  -0.868  1.00  0.00    -0.311 N 
HETATM   15  H   UNL     1      40.261 -13.272  -1.825  1.00  0.00     0.170 HD
ENDROOT
BRANCH   8  16
HETATM   16  C   UNL     1      41.008 -15.919   2.191  1.00  0.00    -0.039 A 
HETATM   17  C   UNL     1      41.631 -16.401   3.361  1.00  0.00     0.021 A 
HETATM   18  C   UNL     1      42.468 -17.528   3.344  1.00  0.00    -0.025 A 
HETATM   19  C   UNL     1      42.690 -18.203   2.125  1.00  0.00    -0.026 A 
HETATM   20  C   UNL     1      43.092 -17.992   4.514  1.00  0.00     0.012 A 
HETATM   21  C   UNL     1      42.075 -17.728   0.957  1.00  0.00     0.013 A 
HETATM   22  C   UNL     1      43.529 -19.331   2.110  1.00  0.00     0.012 A 
HETATM   23  C   UNL     1      41.250 -16.598   0.987  1.00  0.00     0.009 A 
HETATM   24  C   UNL     1      44.142 -19.781   3.282  1.00  0.00     0.001 A 
HETATM   25  C   UNL     1      43.924 -19.111   4.481  1.00  0.00     0.001 A 
ENDBRANCH   8  16
TORSDOF 1
ENDMDL
MODEL 9
REMARK VINA RESULT:      -7.9      3.604      6.373
REMARK  1 active torsions:
REMARK  status: ('A' for Active; 'I' for Inactive)
REMARK    1  A    between atoms: C_8  and  C_9 
ROOT
HETATM    1  C   UNL     1      43.496 -16.924   7.435  1.00  0.00     0.073 C 
HETATM    2  C   UNL     1      42.264 -16.503   6.717  1.00  0.00     0.062 C 
HETATM    3  N   UNL     1      41.106 -17.105   7.004  1.00  0.00    -0.178 NA
HETATM    4  N   UNL     1      40.216 -16.464   6.243  1.00  0.00    -0.262 N 
HETATM    5  H   UNL     1      39.245 -16.747   6.306  1.00  0.00     0.191 HD
HETATM    6  C   UNL     1      40.776 -15.563   5.378  1.00  0.00     0.134 C 
HETATM    7  C   UNL     1      42.110 -15.473   5.726  1.00  0.00     0.032 C 
HETATM    8  C   UNL     1      43.188 -14.530   5.289  1.00  0.00     0.119 C 
HETATM    9  S   UNL     1      43.107 -13.706   3.674  1.00  0.00    -0.141 SA
HETATM   10  C   UNL     1      41.862 -14.642   2.753  1.00  0.00     0.136 C 
HETATM   11  C   UNL     1      42.205 -16.102   2.488  1.00  0.00     0.031 C 
HETATM   12  C   UNL     1      40.447 -14.395   3.265  1.00  0.00     0.236 C 
HETATM   13  O   UNL     1      39.626 -13.772   2.581  1.00  0.00    -0.272 OA
HETATM   14  N   UNL     1      40.004 -14.942   4.433  1.00  0.00    -0.311 N 
HETATM   15  H   UNL     1      38.996 -14.908   4.537  1.00  0.00     0.170 HD
ENDROOT
BRANCH   8  16
HETATM   16  C   UNL     1      43.261 -13.478   6.397  1.00  0.00    -0.039 A 
HETATM   17  C   UNL     1      44.324 -13.450   7.323  1.00  0.00     0.021 A 
HETATM   18  C   UNL     1      44.385 -12.496   8.351  1.00  0.00    -0.025 A 
HETATM   19  C   UNL     1      43.358 -11.535   8.461  1.00  0.00    -0.026 A 
HETATM   20  C   UNL     1      45.444 -12.483   9.274  1.00  0.00     0.012 A 
HETATM   21  C   UNL     1      42.296 -11.559   7.544  1.00  0.00     0.013 A 
HETATM   22  C   UNL     1      43.421 -10.581   9.492  1.00  0.00     0.012 A 
HETATM   23  C   UNL     1      42.244 -12.521   6.530  1.00  0.00     0.009 A 
HETATM   24  C   UNL     1      44.480 -10.581  10.402  1.00  0.00     0.001 A 
HETATM   25  C   UNL     1      45.489 -11.532  10.293  1.00  0.00     0.001 A 
ENDBRANCH   8  16
TORSDOF 1
ENDMDL
MODEL 10
REMARK VINA RESULT:      -7.9      2.840      4.320
REMARK  1 active torsions:
REMARK  status: ('A' for Active; 'I' for Inactive)
REMARK    1  A    between atoms: C_8  and  C_9 
ROOT
HETATM    1  C   UNL     1      40.303 -13.345   5.925  1.00  0.00     0.073 C 
HETATM    2  C   UNL     1      40.916 -13.061   4.601  1.00  0.00     0.062 C 
HETATM    3  N   UNL     1      41.518 -11.884   4.403  1.00  0.00    -0.178 NA
HETATM    4  N   UNL     1      41.999 -11.977   3.161  1.00  0.00    -0.262 N 
HETATM    5  H   UNL     1      42.517 -11.189   2.792  1.00  0.00     0.191 HD
HETATM    6  C   UNL     1      41.614 -13.115   2.504  1.00  0.00     0.134 C 
HETATM    7  C   UNL     1      40.991 -13.911   3.445  1.00  0.00     0.032 C 
HETATM    8  C   UNL     1      40.533 -15.336   3.393  1.00  0.00     0.119 C 
HETATM    9  S   UNL     1      40.105 -16.119   1.812  1.00  0.00    -0.141 SA
HETATM   10  C   UNL     1      39.914 -14.736   0.661  1.00  0.00     0.136 C 
HETATM   11  C   UNL     1      38.791 -13.761   0.990  1.00  0.00     0.031 C 
HETATM   12  C   UNL     1      41.245 -14.087   0.300  1.00  0.00     0.236 C 
HETATM   13  O   UNL     1      41.715 -14.196  -0.838  1.00  0.00    -0.272 OA
HETATM   14  N   UNL     1      41.905 -13.276   1.175  1.00  0.00    -0.311 N 
HETATM   15  H   UNL     1      42.635 -12.722   0.740  1.00  0.00     0.170 HD
ENDROOT
BRANCH   8  16
HETATM   16  C   UNL     1      41.648 -16.131   4.072  1.00  0.00    -0.039 A 
HETATM   17  C   UNL     1      41.642 -16.380   5.460  1.00  0.00     0.021 A 
HETATM   18  C   UNL     1      42.674 -17.095   6.089  1.00  0.00    -0.025 A 
HETATM   19  C   UNL     1      43.746 -17.584   5.313  1.00  0.00    -0.026 A 
HETATM   20  C   UNL     1      42.661 -17.328   7.474  1.00  0.00     0.012 A 
HETATM   21  C   UNL     1      43.760 -17.338   3.932  1.00  0.00     0.013 A 
HETATM   22  C   UNL     1      44.777 -18.300   5.945  1.00  0.00     0.012 A 
HETATM   23  C   UNL     1      42.729 -16.617   3.320  1.00  0.00     0.009 A 
HETATM   24  C   UNL     1      44.751 -18.523   7.323  1.00  0.00     0.001 A 
HETATM   25  C   UNL     1      43.695 -18.037   8.086  1.00  0.00     0.001 A 
ENDBRANCH   8  16
TORSDOF 1
ENDMDL
