MODEL 1
REMARK VINA RESULT:      -7.8      0.000      0.000
REMARK  7 active torsions:
REMARK  status: ('A' for Active; 'I' for Inactive)
REMARK    1  A    between atoms: C_5  and  N_6 
REMARK    2  A    between atoms: N_6  and  C_9 
REMARK    3  A    between atoms: C_9  and  C_10 
REMARK    4  A    between atoms: C_10  and  C_11 
REMARK    5  A    between atoms: C_10  and  C_13 
REMARK    6  A    between atoms: C_11  and  O_12 
REMARK    7  A    between atoms: C_13  and  C_14 
ROOT
HETATM    1  N   UNL     1      44.551 -17.563   6.052  1.00  0.00    -0.066 N 
HETATM    2  H   UNL     1      45.444 -17.991   6.366  1.00  0.00     0.278 HD
HETATM    3  H   UNL     1      44.770 -17.110   5.143  1.00  0.00     0.278 HD
ENDROOT
BRANCH   1   4
HETATM    4  C   UNL     1      43.532 -18.612   5.822  1.00  0.00     0.220 C 
HETATM    5  C   UNL     1      43.336 -18.871   4.360  1.00  0.00    -0.021 A 
HETATM    6  C   UNL     1      44.039 -20.016   3.937  1.00  0.00    -0.040 A 
HETATM    7  C   UNL     1      42.607 -18.089   3.473  1.00  0.00     0.010 A 
HETATM    8  C   UNL     1      44.055 -20.367   2.588  1.00  0.00    -0.055 A 
HETATM    9  C   UNL     1      44.752 -20.642   5.112  1.00  0.00     0.018 C 
HETATM   10  C   UNL     1      44.822 -21.540   2.055  1.00  0.00     0.049 C 
HETATM   11  C   UNL     1      43.297 -19.585   1.699  1.00  0.00     0.007 A 
HETATM   12  C   UNL     1      42.581 -18.463   2.135  1.00  0.00     0.001 A 
HETATM   13  C   UNL     1      44.021 -19.980   6.304  1.00  0.00     0.047 C 
HETATM   14  C   UNL     1      44.687 -22.160   5.230  1.00  0.00     0.015 C 
ENDBRANCH   1   4
BRANCH   1  15
HETATM   15  C   UNL     1      44.194 -16.479   7.004  1.00  0.00     0.240 C 
BRANCH  15  16
HETATM   16  C   UNL     1      44.063 -15.128   6.272  1.00  0.00     0.040 C 
BRANCH  16  17
HETATM   17  C   UNL     1      44.843 -14.041   7.028  1.00  0.00     0.170 C 
BRANCH  17  18
HETATM   18  O   UNL     1      44.374 -13.977   8.377  1.00  0.00    -0.400 OA
HETATM   19  H   UNL     1      43.395 -13.963   8.326  1.00  0.00     0.209 HD
ENDBRANCH  17  18
ENDBRANCH  16  17
BRANCH  16  20
HETATM   20  C   UNL     1      42.609 -14.654   6.061  1.00  0.00     0.067 C 
BRANCH  20  21
HETATM   21  C   UNL     1      42.163 -14.706   4.623  1.00  0.00     0.034 A 
HETATM   22  N   UNL     1      40.859 -15.041   4.414  1.00  0.00    -0.266 NA
HETATM   23  C   UNL     1      40.443 -15.059   3.122  1.00  0.00     0.117 A 
HETATM   24  C   UNL     1      41.265 -14.805   2.038  1.00  0.00     0.019 A 
HETATM   25  C   UNL     1      42.598 -14.499   2.281  1.00  0.00     0.003 A 
HETATM   26  C   UNL     1      43.058 -14.444   3.592  1.00  0.00     0.027 A 
ENDBRANCH  20  21
ENDBRANCH  16  20
ENDBRANCH  15  16
ENDBRANCH   1  15
TORSDOF 7
ENDMDL
MODEL 2
REMARK VINA RESULT:      -7.7      2.346      4.347
REMARK  7 active torsions:
REMARK  status: ('A' for Active; 'I' for Inactive)
REMARK    1  A    between atoms: C_5  and  N_6 
REMARK    2  A    between atoms: N_6  and  C_9 
REMARK    3  A    between atoms: C_9  and  C_10 
REMARK    4  A    between atoms: C_10  and  C_11 
REMARK    5  A    between atoms: C_10  and  C_13 
REMARK    6  A    between atoms: C_11  and  O_12 
REMARK    7  A    between atoms: C_13  and  C_14 
ROOT
HETATM    1  N   UNL     1      43.740 -16.325   5.319  1.00  0.00    -0.066 N 
HETATM    2  H   UNL     1      44.556 -16.485   4.696  1.00  0.00     0.278 HD
HETATM    3  H   UNL     1      43.261 -15.489   4.932  1.00  0.00     0.278 HD
ENDROOT
BRANCH   1   4
HETATM    4  C   UNL     1      42.809 -17.475   5.251  1.00  0.00     0.220 C 
HETATM    5  C   UNL     1      43.267 -18.489   4.250  1.00  0.00    -0.021 A 
HETATM    6  C   UNL     1      43.928 -19.568   4.869  1.00  0.00    -0.040 A 
HETATM    7  C   UNL     1      43.130 -18.408   2.871  1.00  0.00     0.010 A 
HETATM    8  C   UNL     1      44.509 -20.569   4.093  1.00  0.00    -0.055 A 
HETATM    9  C   UNL     1      43.940 -19.369   6.367  1.00  0.00     0.018 C 
HETATM   10  C   UNL     1      45.274 -21.720   4.678  1.00  0.00     0.049 C 
HETATM   11  C   UNL     1      44.348 -20.494   2.699  1.00  0.00     0.007 A 
HETATM   12  C   UNL     1      43.666 -19.430   2.095  1.00  0.00     0.001 A 
HETATM   13  C   UNL     1      42.841 -18.295   6.544  1.00  0.00     0.047 C 
HETATM   14  C   UNL     1      43.630 -20.587   7.228  1.00  0.00     0.015 C 
ENDBRANCH   1   4
BRANCH   1  15
HETATM   15  C   UNL     1      44.249 -15.953   6.665  1.00  0.00     0.240 C 
BRANCH  15  16
HETATM   16  C   UNL     1      44.046 -14.448   6.930  1.00  0.00     0.040 C 
BRANCH  16  17
HETATM   17  C   UNL     1      43.307 -13.799   5.749  1.00  0.00     0.170 C 
BRANCH  17  18
HETATM   18  O   UNL     1      44.231 -13.577   4.681  1.00  0.00    -0.400 OA
HETATM   19  H   UNL     1      44.579 -12.668   4.805  1.00  0.00     0.209 HD
ENDBRANCH  17  18
ENDBRANCH  16  17
BRANCH  16  20
HETATM   20  C   UNL     1      45.349 -13.665   7.204  1.00  0.00     0.067 C 
BRANCH  20  21
HETATM   21  C   UNL     1      45.281 -12.798   8.433  1.00  0.00     0.034 A 
HETATM   22  N   UNL     1      44.352 -13.152   9.364  1.00  0.00    -0.266 NA
HETATM   23  C   UNL     1      44.307 -12.393  10.489  1.00  0.00     0.117 A 
HETATM   24  C   UNL     1      45.104 -11.283  10.708  1.00  0.00     0.019 A 
HETATM   25  C   UNL     1      46.019 -10.926   9.726  1.00  0.00     0.003 A 
HETATM   26  C   UNL     1      46.115 -11.693   8.570  1.00  0.00     0.027 A 
ENDBRANCH  20  21
ENDBRANCH  16  20
ENDBRANCH  15  16
ENDBRANCH   1  15
TORSDOF 7
ENDMDL
MODEL 3
REMARK VINA RESULT:      -7.4      2.467      3.917
REMARK  7 active torsions:
REMARK  status: ('A' for Active; 'I' for Inactive)
REMARK    1  A    between atoms: C_5  and  N_6 
REMARK    2  A    between atoms: N_6  and  C_9 
REMARK    3  A    between atoms: C_9  and  C_10 
REMARK    4  A    between atoms: C_10  and  C_11 
REMARK    5  A    between atoms: C_10  and  C_13 
REMARK    6  A    between atoms: C_11  and  O_12 
REMARK    7  A    between atoms: C_13  and  C_14 
ROOT
HETATM    1  N   UNL     1      44.090 -17.487   2.901  1.00  0.00    -0.066 N 
HETATM    2  H   UNL     1      44.208 -16.726   3.598  1.00  0.00     0.278 HD
HETATM    3  H   UNL     1      45.021 -17.942   2.833  1.00  0.00     0.278 HD
ENDROOT
BRANCH   1   4
HETATM    4  C   UNL     1      43.113 -18.486   3.391  1.00  0.00     0.220 C 
HETATM    5  C   UNL     1      43.551 -19.881   3.068  1.00  0.00    -0.021 A 
HETATM    6  C   UNL     1      44.151 -20.507   4.177  1.00  0.00    -0.040 A 
HETATM    7  C   UNL     1      43.449 -20.513   1.836  1.00  0.00     0.010 A 
HETATM    8  C   UNL     1      44.707 -21.778   4.045  1.00  0.00    -0.055 A 
HETATM    9  C   UNL     1      44.137 -19.571   5.363  1.00  0.00     0.018 C 
HETATM   10  C   UNL     1      45.409 -22.487   5.166  1.00  0.00     0.049 C 
HETATM   11  C   UNL     1      44.582 -22.423   2.802  1.00  0.00     0.007 A 
HETATM   12  C   UNL     1      43.959 -21.800   1.712  1.00  0.00     0.001 A 
HETATM   13  C   UNL     1      43.080 -18.531   4.921  1.00  0.00     0.047 C 
HETATM   14  C   UNL     1      43.757 -20.169   6.711  1.00  0.00     0.015 C 
ENDBRANCH   1   4
BRANCH   1  15
HETATM   15  C   UNL     1      43.809 -16.868   1.579  1.00  0.00     0.240 C 
BRANCH  15  16
HETATM   16  C   UNL     1      42.402 -16.237   1.557  1.00  0.00     0.040 C 
BRANCH  16  17
HETATM   17  C   UNL     1      41.855 -16.219   0.122  1.00  0.00     0.170 C 
BRANCH  17  18
HETATM   18  O   UNL     1      40.454 -15.936   0.155  1.00  0.00    -0.400 OA
HETATM   19  H   UNL     1      40.089 -16.258  -0.696  1.00  0.00     0.209 HD
ENDBRANCH  17  18
ENDBRANCH  16  17
BRANCH  16  20
HETATM   20  C   UNL     1      42.333 -14.810   2.144  1.00  0.00     0.067 C 
BRANCH  20  21
HETATM   21  C   UNL     1      41.676 -14.749   3.498  1.00  0.00     0.034 A 
HETATM   22  N   UNL     1      42.455 -15.104   4.557  1.00  0.00    -0.266 NA
HETATM   23  C   UNL     1      41.879 -15.021   5.783  1.00  0.00     0.117 A 
HETATM   24  C   UNL     1      40.564 -14.649   5.999  1.00  0.00     0.019 A 
HETATM   25  C   UNL     1      39.783 -14.325   4.897  1.00  0.00     0.003 A 
HETATM   26  C   UNL     1      40.343 -14.371   3.625  1.00  0.00     0.027 A 
ENDBRANCH  20  21
ENDBRANCH  16  20
ENDBRANCH  15  16
ENDBRANCH   1  15
TORSDOF 7
ENDMDL
MODEL 4
REMARK VINA RESULT:      -7.4      2.028      3.224
REMARK  7 active torsions:
REMARK  status: ('A' for Active; 'I' for Inactive)
REMARK    1  A    between atoms: C_5  and  N_6 
REMARK    2  A    between atoms: N_6  and  C_9 
REMARK    3  A    between atoms: C_9  and  C_10 
REMARK    4  A    between atoms: C_10  and  C_11 
REMARK    5  A    between atoms: C_10  and  C_13 
REMARK    6  A    between atoms: C_11  and  O_12 
REMARK    7  A    between atoms: C_13  and  C_14 
ROOT
HETATM    1  N   UNL     1      42.593 -18.390   5.587  1.00  0.00    -0.066 N 
HETATM    2  H   UNL     1      41.858 -18.540   4.868  1.00  0.00     0.278 HD
HETATM    3  H   UNL     1      42.469 -19.162   6.270  1.00  0.00     0.278 HD
ENDROOT
BRANCH   1   4
HETATM    4  C   UNL     1      43.938 -18.510   4.980  1.00  0.00     0.220 C 
HETATM    5  C   UNL     1      44.259 -19.933   4.643  1.00  0.00    -0.021 A 
HETATM    6  C   UNL     1      44.052 -20.202   3.276  1.00  0.00    -0.040 A 
HETATM    7  C   UNL     1      44.666 -20.921   5.531  1.00  0.00     0.010 A 
HETATM    8  C   UNL     1      44.208 -21.498   2.788  1.00  0.00    -0.055 A 
HETATM    9  C   UNL     1      43.593 -18.948   2.572  1.00  0.00     0.018 C 
HETATM   10  C   UNL     1      43.954 -21.873   1.358  1.00  0.00     0.049 C 
HETATM   11  C   UNL     1      44.642 -22.489   3.686  1.00  0.00     0.007 A 
HETATM   12  C   UNL     1      44.870 -22.205   5.039  1.00  0.00     0.001 A 
HETATM   13  C   UNL     1      43.986 -17.857   3.596  1.00  0.00     0.047 C 
HETATM   14  C   UNL     1      44.220 -18.648   1.216  1.00  0.00     0.015 C 
ENDBRANCH   1   4
BRANCH   1  15
HETATM   15  C   UNL     1      42.291 -17.123   6.303  1.00  0.00     0.240 C 
BRANCH  15  16
HETATM   16  C   UNL     1      41.638 -16.099   5.352  1.00  0.00     0.040 C 
BRANCH  16  17
HETATM   17  C   UNL     1      40.854 -15.054   6.161  1.00  0.00     0.170 C 
BRANCH  17  18
HETATM   18  O   UNL     1      39.478 -15.095   5.774  1.00  0.00    -0.400 OA
HETATM   19  H   UNL     1      38.959 -14.947   6.593  1.00  0.00     0.209 HD
ENDBRANCH  17  18
ENDBRANCH  16  17
BRANCH  16  20
HETATM   20  C   UNL     1      40.707 -16.719   4.288  1.00  0.00     0.067 C 
BRANCH  20  21
HETATM   21  C   UNL     1      41.057 -16.321   2.879  1.00  0.00     0.034 A 
HETATM   22  N   UNL     1      41.705 -15.132   2.737  1.00  0.00    -0.266 NA
HETATM   23  C   UNL     1      42.052 -14.781   1.472  1.00  0.00     0.117 A 
HETATM   24  C   UNL     1      41.748 -15.530   0.349  1.00  0.00     0.019 A 
HETATM   25  C   UNL     1      41.057 -16.722   0.521  1.00  0.00     0.003 A 
HETATM   26  C   UNL     1      40.706 -17.130   1.803  1.00  0.00     0.027 A 
ENDBRANCH  20  21
ENDBRANCH  16  20
ENDBRANCH  15  16
ENDBRANCH   1  15
TORSDOF 7
ENDMDL
MODEL 5
REMARK VINA RESULT:      -7.3      2.840      4.683
REMARK  7 active torsions:
REMARK  status: ('A' for Active; 'I' for Inactive)
REMARK    1  A    between atoms: C_5  and  N_6 
REMARK    2  A    between atoms: N_6  and  C_9 
REMARK    3  A    between atoms: C_9  and  C_10 
REMARK    4  A    between atoms: C_10  and  C_11 
REMARK    5  A    between atoms: C_10  and  C_13 
REMARK    6  A    between atoms: C_11  and  O_12 
REMARK    7  A    between atoms: C_13  and  C_14 
ROOT
HETATM    1  N   UNL     1      42.562 -16.826   1.211  1.00  0.00    -0.066 N 
HETATM    2  H   UNL     1      43.043 -16.128   1.811  1.00  0.00     0.278 HD
HETATM    3  H   UNL     1      43.315 -17.274   0.654  1.00  0.00     0.278 HD
ENDROOT
BRANCH   1   4
HETATM    4  C   UNL     1      41.913 -17.863   2.046  1.00  0.00     0.220 C 
HETATM    5  C   UNL     1      42.914 -18.846   2.568  1.00  0.00    -0.021 A 
HETATM    6  C   UNL     1      43.277 -18.562   3.899  1.00  0.00    -0.040 A 
HETATM    7  C   UNL     1      43.486 -19.896   1.861  1.00  0.00     0.010 A 
HETATM    8  C   UNL     1      44.268 -19.313   4.528  1.00  0.00    -0.055 A 
HETATM    9  C   UNL     1      42.511 -17.357   4.391  1.00  0.00     0.018 C 
HETATM   10  C   UNL     1      44.745 -19.038   5.923  1.00  0.00     0.049 C 
HETATM   11  C   UNL     1      44.827 -20.389   3.816  1.00  0.00     0.007 A 
HETATM   12  C   UNL     1      44.440 -20.679   2.501  1.00  0.00     0.001 A 
HETATM   13  C   UNL     1      41.371 -17.270   3.350  1.00  0.00     0.047 C 
HETATM   14  C   UNL     1      41.933 -17.435   5.799  1.00  0.00     0.015 C 
ENDBRANCH   1   4
BRANCH   1  15
HETATM   15  C   UNL     1      41.690 -16.095   0.254  1.00  0.00     0.240 C 
BRANCH  15  16
HETATM   16  C   UNL     1      41.087 -14.837   0.913  1.00  0.00     0.040 C 
BRANCH  16  17
HETATM   17  C   UNL     1      40.110 -14.152  -0.054  1.00  0.00     0.170 C 
BRANCH  17  18
HETATM   18  O   UNL     1      39.862 -15.017  -1.166  1.00  0.00    -0.400 OA
HETATM   19  H   UNL     1      38.914 -15.262  -1.115  1.00  0.00     0.209 HD
ENDBRANCH  17  18
ENDBRANCH  16  17
BRANCH  16  20
HETATM   20  C   UNL     1      42.131 -13.806   1.394  1.00  0.00     0.067 C 
BRANCH  20  21
HETATM   21  C   UNL     1      42.311 -13.786   2.889  1.00  0.00     0.034 A 
HETATM   22  N   UNL     1      41.177 -13.617   3.625  1.00  0.00    -0.266 NA
HETATM   23  C   UNL     1      41.327 -13.629   4.974  1.00  0.00     0.117 A 
HETATM   24  C   UNL     1      42.545 -13.755   5.618  1.00  0.00     0.019 A 
HETATM   25  C   UNL     1      43.688 -13.893   4.841  1.00  0.00     0.003 A 
HETATM   26  C   UNL     1      43.575 -13.912   3.455  1.00  0.00     0.027 A 
ENDBRANCH  20  21
ENDBRANCH  16  20
ENDBRANCH  15  16
ENDBRANCH   1  15
TORSDOF 7
ENDMDL
MODEL 6
REMARK VINA RESULT:      -7.1      3.212      4.960
REMARK  7 active torsions:
REMARK  status: ('A' for Active; 'I' for Inactive)
REMARK    1  A    between atoms: C_5  and  N_6 
REMARK    2  A    between atoms: N_6  and  C_9 
REMARK    3  A    between atoms: C_9  and  C_10 
REMARK    4  A    between atoms: C_10  and  C_11 
REMARK    5  A    between atoms: C_10  and  C_13 
REMARK    6  A    between atoms: C_11  and  O_12 
REMARK    7  A    between atoms: C_13  and  C_14 
ROOT
HETATM    1  N   UNL     1      42.054 -16.924   2.835  1.00  0.00    -0.066 N 
HETATM    2  H   UNL     1      41.708 -17.323   1.941  1.00  0.00     0.278 HD
HETATM    3  H   UNL     1      41.551 -17.445   3.579  1.00  0.00     0.278 HD
ENDROOT
BRANCH   1   4
HETATM    4  C   UNL     1      43.506 -17.176   2.984  1.00  0.00     0.220 C 
HETATM    5  C   UNL     1      43.835 -17.674   4.356  1.00  0.00    -0.021 A 
HETATM    6  C   UNL     1      43.991 -19.074   4.377  1.00  0.00    -0.040 A 
HETATM    7  C   UNL     1      43.938 -16.908   5.511  1.00  0.00     0.010 A 
HETATM    8  C   UNL     1      44.209 -19.735   5.585  1.00  0.00    -0.055 A 
HETATM    9  C   UNL     1      43.802 -19.630   2.986  1.00  0.00     0.018 C 
HETATM   10  C   UNL     1      44.333 -21.226   5.694  1.00  0.00     0.049 C 
HETATM   11  C   UNL     1      44.335 -18.952   6.747  1.00  0.00     0.007 A 
HETATM   12  C   UNL     1      44.203 -17.558   6.710  1.00  0.00     0.001 A 
HETATM   13  C   UNL     1      43.958 -18.357   2.121  1.00  0.00     0.047 C 
HETATM   14  C   UNL     1      44.786 -20.701   2.531  1.00  0.00     0.015 C 
ENDBRANCH   1   4
BRANCH   1  15
HETATM   15  C   UNL     1      41.608 -15.508   2.917  1.00  0.00     0.240 C 
BRANCH  15  16
HETATM   16  C   UNL     1      40.961 -15.061   1.591  1.00  0.00     0.040 C 
BRANCH  16  17
HETATM   17  C   UNL     1      39.430 -15.066   1.724  1.00  0.00     0.170 C 
BRANCH  17  18
HETATM   18  O   UNL     1      38.999 -16.357   2.161  1.00  0.00    -0.400 OA
HETATM   19  H   UNL     1      39.277 -16.988   1.464  1.00  0.00     0.209 HD
ENDBRANCH  17  18
ENDBRANCH  16  17
BRANCH  16  20
HETATM   20  C   UNL     1      41.366 -15.907   0.364  1.00  0.00     0.067 C 
BRANCH  20  21
HETATM   21  C   UNL     1      41.379 -15.129  -0.924  1.00  0.00     0.034 A 
HETATM   22  N   UNL     1      41.864 -13.858  -0.850  1.00  0.00    -0.266 NA
HETATM   23  C   UNL     1      41.908 -13.161  -2.014  1.00  0.00     0.117 A 
HETATM   24  C   UNL     1      41.456 -13.649  -3.228  1.00  0.00     0.019 A 
HETATM   25  C   UNL     1      40.937 -14.937  -3.267  1.00  0.00     0.003 A 
HETATM   26  C   UNL     1      40.898 -15.694  -2.101  1.00  0.00     0.027 A 
ENDBRANCH  20  21
ENDBRANCH  16  20
ENDBRANCH  15  16
ENDBRANCH   1  15
TORSDOF 7
ENDMDL
MODEL 7
REMARK VINA RESULT:      -7.1      2.423      4.295
REMARK  7 active torsions:
REMARK  status: ('A' for Active; 'I' for Inactive)
REMARK    1  A    between atoms: C_5  and  N_6 
REMARK    2  A    between atoms: N_6  and  C_9 
REMARK    3  A    between atoms: C_9  and  C_10 
REMARK    4  A    between atoms: C_10  and  C_11 
REMARK    5  A    between atoms: C_10  and  C_13 
REMARK    6  A    between atoms: C_11  and  O_12 
REMARK    7  A    between atoms: C_13  and  C_14 
ROOT
HETATM    1  N   UNL     1      41.480 -17.837   2.521  1.00  0.00    -0.066 N 
HETATM    2  H   UNL     1      41.064 -18.786   2.442  1.00  0.00     0.278 HD
HETATM    3  H   UNL     1      41.246 -17.514   3.479  1.00  0.00     0.278 HD
ENDROOT
BRANCH   1   4
HETATM    4  C   UNL     1      42.954 -17.909   2.395  1.00  0.00     0.220 C 
HETATM    5  C   UNL     1      43.596 -18.246   3.704  1.00  0.00    -0.021 A 
HETATM    6  C   UNL     1      43.931 -19.612   3.782  1.00  0.00    -0.040 A 
HETATM    7  C   UNL     1      43.816 -17.376   4.765  1.00  0.00     0.010 A 
HETATM    8  C   UNL     1      44.456 -20.136   4.962  1.00  0.00    -0.055 A 
HETATM    9  C   UNL     1      43.557 -20.305   2.493  1.00  0.00     0.018 C 
HETATM   10  C   UNL     1      44.787 -21.589   5.138  1.00  0.00     0.049 C 
HETATM   11  C   UNL     1      44.697 -19.247   6.024  1.00  0.00     0.007 A 
HETATM   12  C   UNL     1      44.383 -17.885   5.927  1.00  0.00     0.001 A 
HETATM   13  C   UNL     1      43.383 -19.102   1.536  1.00  0.00     0.047 C 
HETATM   14  C   UNL     1      44.566 -21.292   1.921  1.00  0.00     0.015 C 
ENDBRANCH   1   4
BRANCH   1  15
HETATM   15  C   UNL     1      40.770 -16.938   1.573  1.00  0.00     0.240 C 
BRANCH  15  16
HETATM   16  C   UNL     1      40.336 -15.635   2.274  1.00  0.00     0.040 C 
BRANCH  16  17
HETATM   17  C   UNL     1      39.034 -15.110   1.652  1.00  0.00     0.170 C 
BRANCH  17  18
HETATM   18  O   UNL     1      39.242 -14.868   0.258  1.00  0.00    -0.400 OA
HETATM   19  H   UNL     1      38.882 -15.650  -0.212  1.00  0.00     0.209 HD
ENDBRANCH  17  18
ENDBRANCH  16  17
BRANCH  16  20
HETATM   20  C   UNL     1      41.398 -14.514   2.251  1.00  0.00     0.067 C 
BRANCH  20  21
HETATM   21  C   UNL     1      42.087 -14.312   3.574  1.00  0.00     0.034 A 
HETATM   22  N   UNL     1      41.327 -14.529   4.683  1.00  0.00    -0.266 NA
HETATM   23  C   UNL     1      41.951 -14.380   5.880  1.00  0.00     0.117 A 
HETATM   24  C   UNL     1      43.269 -13.985   6.023  1.00  0.00     0.019 A 
HETATM   25  C   UNL     1      44.011 -13.739   4.875  1.00  0.00     0.003 A 
HETATM   26  C   UNL     1      43.416 -13.906   3.629  1.00  0.00     0.027 A 
ENDBRANCH  20  21
ENDBRANCH  16  20
ENDBRANCH  15  16
ENDBRANCH   1  15
TORSDOF 7
ENDMDL
MODEL 8
REMARK VINA RESULT:      -7.0      1.445      2.268
REMARK  7 active torsions:
REMARK  status: ('A' for Active; 'I' for Inactive)
REMARK    1  A    between atoms: C_5  and  N_6 
REMARK    2  A    between atoms: N_6  and  C_9 
REMARK    3  A    between atoms: C_9  and  C_10 
REMARK    4  A    between atoms: C_10  and  C_11 
REMARK    5  A    between atoms: C_10  and  C_13 
REMARK    6  A    between atoms: C_11  and  O_12 
REMARK    7  A    between atoms: C_13  and  C_14 
ROOT
HETATM    1  N   UNL     1      43.773 -16.827   5.380  1.00  0.00    -0.066 N 
HETATM    2  H   UNL     1      44.629 -17.088   5.908  1.00  0.00     0.278 HD
HETATM    3  H   UNL     1      44.106 -16.571   4.431  1.00  0.00     0.278 HD
ENDROOT
BRANCH   1   4
HETATM    4  C   UNL     1      42.866 -17.992   5.262  1.00  0.00     0.220 C 
HETATM    5  C   UNL     1      43.416 -19.017   4.320  1.00  0.00    -0.021 A 
HETATM    6  C   UNL     1      44.041 -20.074   5.010  1.00  0.00    -0.040 A 
HETATM    7  C   UNL     1      43.387 -18.964   2.932  1.00  0.00     0.010 A 
HETATM    8  C   UNL     1      44.695 -21.080   4.301  1.00  0.00    -0.055 A 
HETATM    9  C   UNL     1      43.933 -19.848   6.499  1.00  0.00     0.018 C 
HETATM   10  C   UNL     1      45.428 -22.208   4.965  1.00  0.00     0.049 C 
HETATM   11  C   UNL     1      44.643 -21.033   2.897  1.00  0.00     0.007 A 
HETATM   12  C   UNL     1      43.996 -19.991   2.221  1.00  0.00     0.001 A 
HETATM   13  C   UNL     1      42.808 -18.788   6.569  1.00  0.00     0.047 C 
HETATM   14  C   UNL     1      43.574 -21.055   7.357  1.00  0.00     0.015 C 
ENDBRANCH   1   4
BRANCH   1  15
HETATM   15  C   UNL     1      43.207 -15.596   5.991  1.00  0.00     0.240 C 
BRANCH  15  16
HETATM   16  C   UNL     1      42.668 -14.644   4.905  1.00  0.00     0.040 C 
BRANCH  16  17
HETATM   17  C   UNL     1      42.613 -13.206   5.445  1.00  0.00     0.170 C 
BRANCH  17  18
HETATM   18  O   UNL     1      43.055 -13.196   6.805  1.00  0.00    -0.400 OA
HETATM   19  H   UNL     1      42.685 -12.381   7.206  1.00  0.00     0.209 HD
ENDBRANCH  17  18
ENDBRANCH  16  17
BRANCH  16  20
HETATM   20  C   UNL     1      41.280 -15.030   4.348  1.00  0.00     0.067 C 
BRANCH  20  21
HETATM   21  C   UNL     1      41.336 -15.666   2.985  1.00  0.00     0.034 A 
HETATM   22  N   UNL     1      42.242 -15.138   2.116  1.00  0.00    -0.266 NA
HETATM   23  C   UNL     1      42.320 -15.727   0.895  1.00  0.00     0.117 A 
HETATM   24  C   UNL     1      41.516 -16.777   0.488  1.00  0.00     0.019 A 
HETATM   25  C   UNL     1      40.579 -17.274   1.384  1.00  0.00     0.003 A 
HETATM   26  C   UNL     1      40.485 -16.715   2.654  1.00  0.00     0.027 A 
ENDBRANCH  20  21
ENDBRANCH  16  20
ENDBRANCH  15  16
ENDBRANCH   1  15
TORSDOF 7
ENDMDL
MODEL 9
REMARK VINA RESULT:      -6.8      3.269      5.032
REMARK  7 active torsions:
REMARK  status: ('A' for Active; 'I' for Inactive)
REMARK    1  A    between atoms: C_5  and  N_6 
REMARK    2  A    between atoms: N_6  and  C_9 
REMARK    3  A    between atoms: C_9  and  C_10 
REMARK    4  A    between atoms: C_10  and  C_11 
REMARK    5  A    between atoms: C_10  and  C_13 
REMARK    6  A    between atoms: C_11  and  O_12 
REMARK    7  A    between atoms: C_13  and  C_14 
ROOT
HETATM    1  N   UNL     1      42.551 -16.311   1.596  1.00  0.00    -0.066 N 
HETATM    2  H   UNL     1      43.568 -16.504   1.512  1.00  0.00     0.278 HD
HETATM    3  H   UNL     1      42.197 -16.284   0.620  1.00  0.00     0.278 HD
ENDROOT
BRANCH   1   4
HETATM    4  C   UNL     1      41.874 -17.417   2.312  1.00  0.00     0.220 C 
HETATM    5  C   UNL     1      42.851 -18.469   2.735  1.00  0.00    -0.021 A 
HETATM    6  C   UNL     1      43.205 -18.334   4.091  1.00  0.00    -0.040 A 
HETATM    7  C   UNL     1      43.410 -19.450   1.926  1.00  0.00     0.010 A 
HETATM    8  C   UNL     1      44.175 -19.166   4.647  1.00  0.00    -0.055 A 
HETATM    9  C   UNL     1      42.457 -17.173   4.702  1.00  0.00     0.018 C 
HETATM   10  C   UNL     1      44.642 -19.048   6.067  1.00  0.00     0.049 C 
HETATM   11  C   UNL     1      44.721 -20.172   3.830  1.00  0.00     0.007 A 
HETATM   12  C   UNL     1      44.343 -20.314   2.488  1.00  0.00     0.001 A 
HETATM   13  C   UNL     1      41.329 -16.953   3.665  1.00  0.00     0.047 C 
HETATM   14  C   UNL     1      41.863 -17.386   6.089  1.00  0.00     0.015 C 
ENDBRANCH   1   4
BRANCH   1  15
HETATM   15  C   UNL     1      42.381 -14.945   2.158  1.00  0.00     0.240 C 
BRANCH  15  16
HETATM   16  C   UNL     1      41.693 -14.015   1.139  1.00  0.00     0.040 C 
BRANCH  16  17
HETATM   17  C   UNL     1      41.588 -12.592   1.711  1.00  0.00     0.170 C 
BRANCH  17  18
HETATM   18  O   UNL     1      42.470 -11.729   0.989  1.00  0.00    -0.400 OA
HETATM   19  H   UNL     1      42.345 -10.832   1.367  1.00  0.00     0.209 HD
ENDBRANCH  17  18
ENDBRANCH  16  17
BRANCH  16  20
HETATM   20  C   UNL     1      40.292 -14.485   0.689  1.00  0.00     0.067 C 
BRANCH  20  21
HETATM   21  C   UNL     1      40.176 -14.688  -0.798  1.00  0.00     0.034 A 
HETATM   22  N   UNL     1      41.089 -15.528  -1.360  1.00  0.00    -0.266 NA
HETATM   23  C   UNL     1      40.971 -15.741  -2.695  1.00  0.00     0.117 A 
HETATM   24  C   UNL     1      40.024 -15.128  -3.497  1.00  0.00     0.019 A 
HETATM   25  C   UNL     1      39.127 -14.250  -2.903  1.00  0.00     0.003 A 
HETATM   26  C   UNL     1      39.197 -14.025  -1.532  1.00  0.00     0.027 A 
ENDBRANCH  20  21
ENDBRANCH  16  20
ENDBRANCH  15  16
ENDBRANCH   1  15
TORSDOF 7
ENDMDL
MODEL 10
REMARK VINA RESULT:      -6.8      3.906      5.690
REMARK  7 active torsions:
REMARK  status: ('A' for Active; 'I' for Inactive)
REMARK    1  A    between atoms: C_5  and  N_6 
REMARK    2  A    between atoms: N_6  and  C_9 
REMARK    3  A    between atoms: C_9  and  C_10 
REMARK    4  A    between atoms: C_10  and  C_11 
REMARK    5  A    between atoms: C_10  and  C_13 
REMARK    6  A    between atoms: C_11  and  O_12 
REMARK    7  A    between atoms: C_13  and  C_14 
ROOT
HETATM    1  N   UNL     1      42.313 -16.631   1.485  1.00  0.00    -0.066 N 
HETATM    2  H   UNL     1      42.291 -15.705   1.954  1.00  0.00     0.278 HD
HETATM    3  H   UNL     1      43.319 -16.838   1.336  1.00  0.00     0.278 HD
ENDROOT
BRANCH   1   4
HETATM    4  C   UNL     1      41.745 -17.671   2.374  1.00  0.00     0.220 C 
HETATM    5  C   UNL     1      42.791 -18.653   2.801  1.00  0.00    -0.021 A 
HETATM    6  C   UNL     1      43.271 -18.370   4.094  1.00  0.00    -0.040 A 
HETATM    7  C   UNL     1      43.299 -19.701   2.043  1.00  0.00     0.010 A 
HETATM    8  C   UNL     1      44.317 -19.120   4.630  1.00  0.00    -0.055 A 
HETATM    9  C   UNL     1      42.550 -17.168   4.657  1.00  0.00     0.018 C 
HETATM   10  C   UNL     1      44.916 -18.846   5.978  1.00  0.00     0.049 C 
HETATM   11  C   UNL     1      44.812 -20.193   3.869  1.00  0.00     0.007 A 
HETATM   12  C   UNL     1      44.309 -20.481   2.593  1.00  0.00     0.001 A 
HETATM   13  C   UNL     1      41.320 -17.082   3.722  1.00  0.00     0.047 C 
HETATM   14  C   UNL     1      42.102 -17.250   6.111  1.00  0.00     0.015 C 
ENDBRANCH   1   4
BRANCH   1  15
HETATM   15  C   UNL     1      41.693 -16.487   0.141  1.00  0.00     0.240 C 
BRANCH  15  16
HETATM   16  C   UNL     1      41.380 -15.008  -0.161  1.00  0.00     0.040 C 
BRANCH  16  17
HETATM   17  C   UNL     1      40.288 -14.495   0.791  1.00  0.00     0.170 C 
BRANCH  17  18
HETATM   18  O   UNL     1      39.425 -15.578   1.146  1.00  0.00    -0.400 OA
HETATM   19  H   UNL     1      39.273 -16.088   0.322  1.00  0.00     0.209 HD
ENDBRANCH  17  18
ENDBRANCH  16  17
BRANCH  16  20
HETATM   20  C   UNL     1      40.952 -14.731  -1.619  1.00  0.00     0.067 C 
BRANCH  20  21
HETATM   21  C   UNL     1      41.515 -13.451  -2.177  1.00  0.00     0.034 A 
HETATM   22  N   UNL     1      41.138 -13.136  -3.448  1.00  0.00    -0.266 NA
HETATM   23  C   UNL     1      41.617 -11.967  -3.946  1.00  0.00     0.117 A 
HETATM   24  C   UNL     1      42.481 -11.129  -3.263  1.00  0.00     0.019 A 
HETATM   25  C   UNL     1      42.875 -11.493  -1.982  1.00  0.00     0.003 A 
HETATM   26  C   UNL     1      42.385 -12.669  -1.424  1.00  0.00     0.027 A 
ENDBRANCH  20  21
ENDBRANCH  16  20
ENDBRANCH  15  16
ENDBRANCH   1  15
TORSDOF 7
ENDMDL
