MODEL 1
REMARK VINA RESULT:     -10.8      0.000      0.000
REMARK  4 active torsions:
REMARK  status: ('A' for Active; 'I' for Inactive)
REMARK    1  A    between atoms: N_5  and  C_6 
REMARK    2  A    between atoms: C_6  and  C_7 
REMARK    3  A    between atoms: C_7  and  C_8 
REMARK    4  A    between atoms: C_8  and  N_9 
ROOT
HETATM    1  C   UNL     1      40.227 -16.468   1.990  1.00  0.00     0.236 C 
ENDROOT
BRANCH   1   2
HETATM    2  C   UNL     1      41.366 -17.396   2.417  1.00  0.00     0.048 C 
BRANCH   2   3
HETATM    3  C   UNL     1      41.488 -17.661   3.922  1.00  0.00     0.131 C 
BRANCH   3   4
HETATM    4  N   UNL     1      42.898 -17.596   4.373  1.00  0.00    -0.346 N 
HETATM    5  C   UNL     1      43.292 -16.419   5.060  1.00  0.00     0.041 A 
HETATM    6  C   UNL     1      44.118 -16.391   6.204  1.00  0.00    -0.031 A 
HETATM    7  C   UNL     1      42.910 -15.164   4.520  1.00  0.00     0.030 A 
HETATM    8  C   UNL     1      44.498 -15.144   6.762  1.00  0.00     0.009 A 
HETATM    9  C   UNL     1      44.696 -17.598   6.907  1.00  0.00     0.045 C 
HETATM   10  C   UNL     1      44.077 -13.935   6.221  1.00  0.00     0.001 A 
HETATM   11  C   UNL     1      43.282 -13.945   5.090  1.00  0.00     0.002 A 
HETATM   12  C   UNL     1      43.857 -18.865   6.855  1.00  0.00     0.045 C 
HETATM   13  C   UNL     1      43.976 -19.520   5.507  1.00  0.00    -0.031 A 
HETATM   14  C   UNL     1      43.548 -18.855   4.348  1.00  0.00     0.042 A 
HETATM   15  C   UNL     1      44.547 -20.804   5.416  1.00  0.00     0.011 A 
HETATM   16  C   UNL     1      43.747 -19.493   3.108  1.00  0.00     0.054 A 
HETATM   17  C   UNL     1      44.306 -20.768   3.030  1.00  0.00     0.036 A 
HETATM   18 CL   UNL     1      44.433 -21.545   1.500  1.00  0.00    -0.084 Cl
HETATM   19  C   UNL     1      44.704 -21.431   4.181  1.00  0.00     0.024 A 
ENDBRANCH   3   4
ENDBRANCH   2   3
ENDBRANCH   1   2
BRANCH   1  20
HETATM   20  N   UNL     1      40.475 -15.579   0.751  1.00  0.00    -0.071 N 
HETATM   21  H   UNL     1      40.201 -16.223  -0.019  1.00  0.00     0.279 HD
HETATM   22  C   UNL     1      41.926 -15.256   0.461  1.00  0.00     0.238 C 
HETATM   23  C   UNL     1      42.081 -13.886  -0.202  1.00  0.00     0.077 C 
HETATM   24  C   UNL     1      41.011 -13.643  -1.258  1.00  0.00     0.212 C 
HETATM   25  N   UNL     1      41.218 -12.329  -2.011  1.00  0.00    -0.032 N 
HETATM   26  C   UNL     1      41.192 -14.660  -2.397  1.00  0.00     0.256 C 
HETATM   27  C   UNL     1      39.587 -13.729  -0.702  1.00  0.00     0.077 C 
HETATM   28  H   UNL     1      40.329 -12.126  -2.492  1.00  0.00     0.283 HD
HETATM   29  C   UNL     1      42.142 -12.671  -3.140  1.00  0.00     0.290 C 
HETATM   30  C   UNL     1      41.622 -11.070  -1.307  1.00  0.00     0.239 C 
HETATM   31  C   UNL     1      42.044 -11.589  -4.199  1.00  0.00     0.055 C 
HETATM   32  N   UNL     1      41.681 -13.967  -3.489  1.00  0.00    -0.331 N 
HETATM   33  C   UNL     1      42.387 -10.226  -3.583  1.00  0.00     0.005 C 
HETATM   34  C   UNL     1      41.567  -9.930  -2.320  1.00  0.00     0.028 C 
HETATM   35  H   UNL     1      42.026 -14.485  -4.295  1.00  0.00     0.164 HD
HETATM   36  O   UNL     1      40.956 -15.851  -2.313  1.00  0.00    -0.271 OA
HETATM   37  C   UNL     1      39.504 -14.432   0.653  1.00  0.00     0.238 C 
ENDBRANCH   1  20
TORSDOF 4
ENDMDL
MODEL 2
REMARK VINA RESULT:     -10.3      2.779      4.725
REMARK  4 active torsions:
REMARK  status: ('A' for Active; 'I' for Inactive)
REMARK    1  A    between atoms: N_5  and  C_6 
REMARK    2  A    between atoms: C_6  and  C_7 
REMARK    3  A    between atoms: C_7  and  C_8 
REMARK    4  A    between atoms: C_8  and  N_9 
ROOT
HETATM    1  C   UNL     1      41.554 -17.512   1.174  1.00  0.00     0.236 C 
ENDROOT
BRANCH   1   2
HETATM    2  C   UNL     1      43.063 -17.492   0.922  1.00  0.00     0.048 C 
BRANCH   2   3
HETATM    3  C   UNL     1      43.946 -17.282   2.157  1.00  0.00     0.131 C 
BRANCH   3   4
HETATM    4  N   UNL     1      43.549 -18.178   3.269  1.00  0.00    -0.346 N 
HETATM    5  C   UNL     1      43.918 -19.543   3.148  1.00  0.00     0.041 A 
HETATM    6  C   UNL     1      44.419 -20.339   4.200  1.00  0.00    -0.031 A 
HETATM    7  C   UNL     1      43.688 -20.195   1.910  1.00  0.00     0.030 A 
HETATM    8  C   UNL     1      44.688 -21.712   3.971  1.00  0.00     0.009 A 
HETATM    9  C   UNL     1      44.676 -19.874   5.615  1.00  0.00     0.045 C 
HETATM   10  C   UNL     1      44.479 -22.307   2.733  1.00  0.00     0.001 A 
HETATM   11  C   UNL     1      43.972 -21.546   1.697  1.00  0.00     0.002 A 
HETATM   12  C   UNL     1      45.082 -18.417   5.775  1.00  0.00     0.045 C 
HETATM   13  C   UNL     1      43.885 -17.519   5.635  1.00  0.00    -0.031 A 
HETATM   14  C   UNL     1      43.159 -17.475   4.436  1.00  0.00     0.042 A 
HETATM   15  C   UNL     1      43.482 -16.737   6.735  1.00  0.00     0.011 A 
HETATM   16  C   UNL     1      42.007 -16.665   4.389  1.00  0.00     0.054 A 
HETATM   17  C   UNL     1      41.622 -15.888   5.481  1.00  0.00     0.036 A 
HETATM   18 CL   UNL     1      40.267 -14.838   5.338  1.00  0.00    -0.084 Cl
HETATM   19  C   UNL     1      42.359 -15.915   6.656  1.00  0.00     0.024 A 
ENDBRANCH   3   4
ENDBRANCH   2   3
ENDBRANCH   1   2
BRANCH   1  20
HETATM   20  N   UNL     1      40.804 -16.168   1.042  1.00  0.00    -0.071 N 
HETATM   21  H   UNL     1      40.396 -16.255   0.089  1.00  0.00     0.279 HD
HETATM   22  C   UNL     1      41.684 -14.938   0.953  1.00  0.00     0.238 C 
HETATM   23  C   UNL     1      41.006 -13.710   1.565  1.00  0.00     0.077 C 
HETATM   24  C   UNL     1      39.531 -13.632   1.193  1.00  0.00     0.212 C 
HETATM   25  N   UNL     1      38.866 -12.353   1.700  1.00  0.00    -0.032 N 
HETATM   26  C   UNL     1      39.408 -13.439  -0.328  1.00  0.00     0.256 C 
HETATM   27  C   UNL     1      38.735 -14.865   1.629  1.00  0.00     0.077 C 
HETATM   28  H   UNL     1      37.849 -12.512   1.643  1.00  0.00     0.283 HD
HETATM   29  C   UNL     1      39.109 -11.338   0.624  1.00  0.00     0.290 C 
HETATM   30  C   UNL     1      39.139 -11.808   3.067  1.00  0.00     0.239 C 
HETATM   31  C   UNL     1      38.120 -10.200   0.791  1.00  0.00     0.055 C 
HETATM   32  N   UNL     1      38.989 -12.139  -0.542  1.00  0.00    -0.331 N 
HETATM   33  C   UNL     1      38.264  -9.585   2.189  1.00  0.00     0.005 C 
HETATM   34  C   UNL     1      38.188 -10.638   3.304  1.00  0.00     0.028 C 
HETATM   35  H   UNL     1      39.007 -11.758  -1.486  1.00  0.00     0.164 HD
HETATM   36  O   UNL     1      39.659 -14.289  -1.161  1.00  0.00    -0.271 OA
HETATM   37  C   UNL     1      39.614 -16.071   1.959  1.00  0.00     0.238 C 
ENDBRANCH   1  20
TORSDOF 4
ENDMDL
MODEL 3
REMARK VINA RESULT:     -10.3      2.141      4.083
REMARK  4 active torsions:
REMARK  status: ('A' for Active; 'I' for Inactive)
REMARK    1  A    between atoms: N_5  and  C_6 
REMARK    2  A    between atoms: C_6  and  C_7 
REMARK    3  A    between atoms: C_7  and  C_8 
REMARK    4  A    between atoms: C_8  and  N_9 
ROOT
HETATM    1  C   UNL     1      41.554 -17.021   0.910  1.00  0.00     0.236 C 
ENDROOT
BRANCH   1   2
HETATM    2  C   UNL     1      43.016 -17.469   0.851  1.00  0.00     0.048 C 
BRANCH   2   3
HETATM    3  C   UNL     1      43.853 -17.194   2.105  1.00  0.00     0.131 C 
BRANCH   3   4
HETATM    4  N   UNL     1      43.469 -18.089   3.222  1.00  0.00    -0.346 N 
HETATM    5  C   UNL     1      43.861 -19.449   3.111  1.00  0.00     0.041 A 
HETATM    6  C   UNL     1      44.374 -20.229   4.169  1.00  0.00    -0.031 A 
HETATM    7  C   UNL     1      43.646 -20.113   1.877  1.00  0.00     0.030 A 
HETATM    8  C   UNL     1      44.668 -21.599   3.950  1.00  0.00     0.009 A 
HETATM    9  C   UNL     1      44.620 -19.750   5.582  1.00  0.00     0.045 C 
HETATM   10  C   UNL     1      44.472 -22.206   2.715  1.00  0.00     0.001 A 
HETATM   11  C   UNL     1      43.954 -21.460   1.674  1.00  0.00     0.002 A 
HETATM   12  C   UNL     1      45.000 -18.286   5.733  1.00  0.00     0.045 C 
HETATM   13  C   UNL     1      43.788 -17.409   5.585  1.00  0.00    -0.031 A 
HETATM   14  C   UNL     1      43.064 -17.386   4.384  1.00  0.00     0.042 A 
HETATM   15  C   UNL     1      43.369 -16.627   6.678  1.00  0.00     0.011 A 
HETATM   16  C   UNL     1      41.898 -16.597   4.328  1.00  0.00     0.054 A 
HETATM   17  C   UNL     1      41.497 -15.819   5.415  1.00  0.00     0.036 A 
HETATM   18 CL   UNL     1      40.125 -14.794   5.261  1.00  0.00    -0.084 Cl
HETATM   19  C   UNL     1      42.232 -15.826   6.591  1.00  0.00     0.024 A 
ENDBRANCH   3   4
ENDBRANCH   2   3
ENDBRANCH   1   2
BRANCH   1  20
HETATM   20  N   UNL     1      41.158 -15.806   0.042  1.00  0.00    -0.071 N 
HETATM   21  H   UNL     1      40.210 -15.592   0.413  1.00  0.00     0.279 HD
HETATM   22  C   UNL     1      40.921 -16.102  -1.424  1.00  0.00     0.238 C 
HETATM   23  C   UNL     1      41.280 -14.907  -2.310  1.00  0.00     0.077 C 
HETATM   24  C   UNL     1      40.813 -13.591  -1.703  1.00  0.00     0.212 C 
HETATM   25  N   UNL     1      41.062 -12.399  -2.628  1.00  0.00    -0.032 N 
HETATM   26  C   UNL     1      39.277 -13.589  -1.636  1.00  0.00     0.256 C 
HETATM   27  C   UNL     1      41.398 -13.328  -0.314  1.00  0.00     0.077 C 
HETATM   28  H   UNL     1      40.971 -11.555  -2.044  1.00  0.00     0.283 HD
HETATM   29  C   UNL     1      39.850 -12.333  -3.508  1.00  0.00     0.290 C 
HETATM   30  C   UNL     1      42.335 -12.252  -3.402  1.00  0.00     0.239 C 
HETATM   31  C   UNL     1      39.768 -10.949  -4.125  1.00  0.00     0.055 C 
HETATM   32  N   UNL     1      38.827 -12.700  -2.595  1.00  0.00    -0.331 N 
HETATM   33  C   UNL     1      41.052 -10.652  -4.910  1.00  0.00     0.005 C 
HETATM   34  C   UNL     1      42.318 -10.881  -4.073  1.00  0.00     0.028 C 
HETATM   35  H   UNL     1      37.836 -12.675  -2.826  1.00  0.00     0.164 HD
HETATM   36  O   UNL     1      38.611 -14.269  -0.878  1.00  0.00    -0.271 OA
HETATM   37  C   UNL     1      41.974 -14.579   0.351  1.00  0.00     0.238 C 
ENDBRANCH   1  20
TORSDOF 4
ENDMDL
MODEL 4
REMARK VINA RESULT:     -10.2      2.685      4.562
REMARK  4 active torsions:
REMARK  status: ('A' for Active; 'I' for Inactive)
REMARK    1  A    between atoms: N_5  and  C_6 
REMARK    2  A    between atoms: C_6  and  C_7 
REMARK    3  A    between atoms: C_7  and  C_8 
REMARK    4  A    between atoms: C_8  and  N_9 
ROOT
HETATM    1  C   UNL     1      41.620 -17.054   0.970  1.00  0.00     0.236 C 
ENDROOT
BRANCH   1   2
HETATM    2  C   UNL     1      43.048 -17.604   0.942  1.00  0.00     0.048 C 
BRANCH   2   3
HETATM    3  C   UNL     1      43.896 -17.334   2.189  1.00  0.00     0.131 C 
BRANCH   3   4
HETATM    4  N   UNL     1      43.529 -18.240   3.303  1.00  0.00    -0.346 N 
HETATM    5  C   UNL     1      43.912 -19.600   3.169  1.00  0.00     0.041 A 
HETATM    6  C   UNL     1      44.441 -20.395   4.208  1.00  0.00    -0.031 A 
HETATM    7  C   UNL     1      43.669 -20.249   1.932  1.00  0.00     0.030 A 
HETATM    8  C   UNL     1      44.723 -21.764   3.968  1.00  0.00     0.009 A 
HETATM    9  C   UNL     1      44.718 -19.933   5.621  1.00  0.00     0.045 C 
HETATM   10  C   UNL     1      44.499 -22.356   2.730  1.00  0.00     0.001 A 
HETATM   11  C   UNL     1      43.965 -21.595   1.708  1.00  0.00     0.002 A 
HETATM   12  C   UNL     1      45.109 -18.473   5.781  1.00  0.00     0.045 C 
HETATM   13  C   UNL     1      43.898 -17.589   5.667  1.00  0.00    -0.031 A 
HETATM   14  C   UNL     1      43.151 -17.548   4.481  1.00  0.00     0.042 A 
HETATM   15  C   UNL     1      43.505 -16.816   6.777  1.00  0.00     0.011 A 
HETATM   16  C   UNL     1      41.989 -16.752   4.457  1.00  0.00     0.054 A 
HETATM   17  C   UNL     1      41.614 -15.984   5.560  1.00  0.00     0.036 A 
HETATM   18 CL   UNL     1      40.244 -14.950   5.445  1.00  0.00    -0.084 Cl
HETATM   19  C   UNL     1      42.371 -16.008   6.721  1.00  0.00     0.024 A 
ENDBRANCH   3   4
ENDBRANCH   2   3
ENDBRANCH   1   2
BRANCH   1  20
HETATM   20  N   UNL     1      41.456 -15.525   0.824  1.00  0.00    -0.071 N 
HETATM   21  H   UNL     1      42.389 -15.189   1.141  1.00  0.00     0.279 HD
HETATM   22  C   UNL     1      40.486 -14.879   1.791  1.00  0.00     0.238 C 
HETATM   23  C   UNL     1      39.808 -13.651   1.179  1.00  0.00     0.077 C 
HETATM   24  C   UNL     1      40.789 -12.798   0.386  1.00  0.00     0.212 C 
HETATM   25  N   UNL     1      40.155 -11.508  -0.136  1.00  0.00    -0.032 N 
HETATM   26  C   UNL     1      41.849 -12.232   1.346  1.00  0.00     0.256 C 
HETATM   27  C   UNL     1      41.469 -13.564  -0.751  1.00  0.00     0.077 C 
HETATM   28  H   UNL     1      40.790 -11.146  -0.863  1.00  0.00     0.283 HD
HETATM   29  C   UNL     1      40.318 -10.519   0.978  1.00  0.00     0.290 C 
HETATM   30  C   UNL     1      38.777 -11.485  -0.719  1.00  0.00     0.239 C 
HETATM   31  C   UNL     1      40.161  -9.118   0.417  1.00  0.00     0.055 C 
HETATM   32  N   UNL     1      41.596 -10.879   1.481  1.00  0.00    -0.331 N 
HETATM   33  C   UNL     1      38.793  -8.981  -0.264  1.00  0.00     0.005 C 
HETATM   34  C   UNL     1      38.535 -10.091  -1.292  1.00  0.00     0.028 C 
HETATM   35  H   UNL     1      42.082 -10.350   2.203  1.00  0.00     0.164 HD
HETATM   36  O   UNL     1      42.723 -12.885   1.883  1.00  0.00    -0.271 OA
HETATM   37  C   UNL     1      41.360 -15.083  -0.612  1.00  0.00     0.238 C 
ENDBRANCH   1  20
TORSDOF 4
ENDMDL
MODEL 5
REMARK VINA RESULT:     -10.0      3.192      9.659
REMARK  4 active torsions:
REMARK  status: ('A' for Active; 'I' for Inactive)
REMARK    1  A    between atoms: N_5  and  C_6 
REMARK    2  A    between atoms: C_6  and  C_7 
REMARK    3  A    between atoms: C_7  and  C_8 
REMARK    4  A    between atoms: C_8  and  N_9 
ROOT
HETATM    1  C   UNL     1      41.891 -14.108   2.074  1.00  0.00     0.236 C 
ENDROOT
BRANCH   1   2
HETATM    2  C   UNL     1      40.967 -14.095   0.854  1.00  0.00     0.048 C 
BRANCH   2   3
HETATM    3  C   UNL     1      41.652 -14.261  -0.508  1.00  0.00     0.131 C 
BRANCH   3   4
HETATM    4  N   UNL     1      40.954 -13.492  -1.565  1.00  0.00    -0.346 N 
HETATM    5  C   UNL     1      40.025 -14.208  -2.364  1.00  0.00     0.041 A 
HETATM    6  C   UNL     1      38.764 -13.719  -2.768  1.00  0.00    -0.031 A 
HETATM    7  C   UNL     1      40.412 -15.472  -2.877  1.00  0.00     0.030 A 
HETATM    8  C   UNL     1      37.952 -14.504  -3.625  1.00  0.00     0.009 A 
HETATM    9  C   UNL     1      38.177 -12.375  -2.400  1.00  0.00     0.045 C 
HETATM   10  C   UNL     1      38.354 -15.754  -4.081  1.00  0.00     0.001 A 
HETATM   11  C   UNL     1      39.593 -16.238  -3.709  1.00  0.00     0.002 A 
HETATM   12  C   UNL     1      38.583 -11.820  -1.044  1.00  0.00     0.045 C 
HETATM   13  C   UNL     1      39.977 -11.261  -1.100  1.00  0.00    -0.031 A 
HETATM   14  C   UNL     1      41.069 -12.089  -1.399  1.00  0.00     0.042 A 
HETATM   15  C   UNL     1      40.175  -9.885  -0.874  1.00  0.00     0.011 A 
HETATM   16  C   UNL     1      42.342 -11.495  -1.503  1.00  0.00     0.054 A 
HETATM   17  C   UNL     1      42.527 -10.133  -1.268  1.00  0.00     0.036 A 
HETATM   18 CL   UNL     1      44.117  -9.475  -1.307  1.00  0.00    -0.084 Cl
HETATM   19  C   UNL     1      41.448  -9.323  -0.948  1.00  0.00     0.024 A 
ENDBRANCH   3   4
ENDBRANCH   2   3
ENDBRANCH   1   2
BRANCH   1  20
HETATM   20  N   UNL     1      42.360 -15.489   2.582  1.00  0.00    -0.071 N 
HETATM   21  H   UNL     1      42.375 -15.334   3.610  1.00  0.00     0.279 HD
HETATM   22  C   UNL     1      43.791 -15.855   2.245  1.00  0.00     0.238 C 
HETATM   23  C   UNL     1      43.964 -17.365   2.070  1.00  0.00     0.077 C 
HETATM   24  C   UNL     1      43.195 -18.151   3.123  1.00  0.00     0.212 C 
HETATM   25  N   UNL     1      43.448 -19.656   3.033  1.00  0.00    -0.032 N 
HETATM   26  C   UNL     1      43.785 -17.840   4.509  1.00  0.00     0.256 C 
HETATM   27  C   UNL     1      41.693 -17.854   3.116  1.00  0.00     0.077 C 
HETATM   28  H   UNL     1      42.703 -20.109   3.583  1.00  0.00     0.283 HD
HETATM   29  C   UNL     1      44.672 -19.892   3.865  1.00  0.00     0.290 C 
HETATM   30  C   UNL     1      43.508 -20.370   1.719  1.00  0.00     0.239 C 
HETATM   31  C   UNL     1      44.741 -21.363   4.229  1.00  0.00     0.055 C 
HETATM   32  N   UNL     1      44.468 -18.969   4.924  1.00  0.00    -0.331 N 
HETATM   33  C   UNL     1      44.754 -22.215   2.952  1.00  0.00     0.005 C 
HETATM   34  C   UNL     1      43.599 -21.867   2.003  1.00  0.00     0.028 C 
HETATM   35  H   UNL     1      45.071 -18.914   5.743  1.00  0.00     0.164 HD
HETATM   36  O   UNL     1      43.669 -16.781   5.095  1.00  0.00    -0.271 OA
HETATM   37  C   UNL     1      41.330 -16.568   2.374  1.00  0.00     0.238 C 
ENDBRANCH   1  20
TORSDOF 4
ENDMDL
MODEL 6
REMARK VINA RESULT:     -10.0      3.121      8.773
REMARK  4 active torsions:
REMARK  status: ('A' for Active; 'I' for Inactive)
REMARK    1  A    between atoms: N_5  and  C_6 
REMARK    2  A    between atoms: C_6  and  C_7 
REMARK    3  A    between atoms: C_7  and  C_8 
REMARK    4  A    between atoms: C_8  and  N_9 
ROOT
HETATM    1  C   UNL     1      40.014 -13.348   1.696  1.00  0.00     0.236 C 
ENDROOT
BRANCH   1   2
HETATM    2  C   UNL     1      38.931 -13.654   0.659  1.00  0.00     0.048 C 
BRANCH   2   3
HETATM    3  C   UNL     1      38.573 -12.509  -0.295  1.00  0.00     0.131 C 
BRANCH   3   4
HETATM    4  N   UNL     1      39.441 -12.511  -1.497  1.00  0.00    -0.346 N 
HETATM    5  C   UNL     1      40.647 -11.768  -1.411  1.00  0.00     0.041 A 
HETATM    6  C   UNL     1      41.896 -12.197  -1.909  1.00  0.00    -0.031 A 
HETATM    7  C   UNL     1      40.594 -10.459  -0.867  1.00  0.00     0.030 A 
HETATM    8  C   UNL     1      43.017 -11.334  -1.823  1.00  0.00     0.009 A 
HETATM    9  C   UNL     1      42.169 -13.520  -2.588  1.00  0.00     0.045 C 
HETATM   10  C   UNL     1      42.932 -10.069  -1.254  1.00  0.00     0.001 A 
HETATM   11  C   UNL     1      41.712  -9.627  -0.777  1.00  0.00     0.002 A 
HETATM   12  C   UNL     1      41.319 -14.693  -2.128  1.00  0.00     0.045 C 
HETATM   13  C   UNL     1      39.940 -14.608  -2.721  1.00  0.00    -0.031 A 
HETATM   14  C   UNL     1      39.100 -13.524  -2.427  1.00  0.00     0.042 A 
HETATM   15  C   UNL     1      39.507 -15.620  -3.600  1.00  0.00     0.011 A 
HETATM   16  C   UNL     1      37.846 -13.466  -3.066  1.00  0.00     0.054 A 
HETATM   17  C   UNL     1      37.424 -14.478  -3.928  1.00  0.00     0.036 A 
HETATM   18 CL   UNL     1      35.843 -14.411  -4.602  1.00  0.00    -0.084 Cl
HETATM   19  C   UNL     1      38.248 -15.560  -4.195  1.00  0.00     0.024 A 
ENDBRANCH   3   4
ENDBRANCH   2   3
ENDBRANCH   1   2
BRANCH   1  20
HETATM   20  N   UNL     1      40.773 -14.553   2.293  1.00  0.00    -0.071 N 
HETATM   21  H   UNL     1      40.651 -14.386   3.313  1.00  0.00     0.279 HD
HETATM   22  C   UNL     1      42.274 -14.541   2.096  1.00  0.00     0.238 C 
HETATM   23  C   UNL     1      42.845 -15.957   1.991  1.00  0.00     0.077 C 
HETATM   24  C   UNL     1      42.208 -16.901   3.003  1.00  0.00     0.212 C 
HETATM   25  N   UNL     1      42.846 -18.290   2.991  1.00  0.00    -0.032 N 
HETATM   26  C   UNL     1      42.566 -16.430   4.422  1.00  0.00     0.256 C 
HETATM   27  C   UNL     1      40.688 -17.003   2.855  1.00  0.00     0.077 C 
HETATM   28  H   UNL     1      42.194 -18.913   3.490  1.00  0.00     0.283 HD
HETATM   29  C   UNL     1      44.007 -18.190   3.934  1.00  0.00     0.290 C 
HETATM   30  C   UNL     1      43.209 -18.982   1.714  1.00  0.00     0.239 C 
HETATM   31  C   UNL     1      44.416 -19.589   4.356  1.00  0.00     0.055 C 
HETATM   32  N   UNL     1      43.474 -17.337   4.936  1.00  0.00    -0.331 N 
HETATM   33  C   UNL     1      44.766 -20.425   3.118  1.00  0.00     0.005 C 
HETATM   34  C   UNL     1      43.654 -20.400   2.061  1.00  0.00     0.028 C 
HETATM   35  H   UNL     1      43.964 -17.118   5.801  1.00  0.00     0.164 HD
HETATM   36  O   UNL     1      42.128 -15.428   4.956  1.00  0.00    -0.271 OA
HETATM   37  C   UNL     1      40.078 -15.864   2.037  1.00  0.00     0.238 C 
ENDBRANCH   1  20
TORSDOF 4
ENDMDL
MODEL 7
REMARK VINA RESULT:     -10.0      1.597      2.135
REMARK  4 active torsions:
REMARK  status: ('A' for Active; 'I' for Inactive)
REMARK    1  A    between atoms: N_5  and  C_6 
REMARK    2  A    between atoms: C_6  and  C_7 
REMARK    3  A    between atoms: C_7  and  C_8 
REMARK    4  A    between atoms: C_8  and  N_9 
ROOT
HETATM    1  C   UNL     1      40.723 -17.194   1.496  1.00  0.00     0.236 C 
ENDROOT
BRANCH   1   2
HETATM    2  C   UNL     1      41.906 -17.870   2.195  1.00  0.00     0.048 C 
BRANCH   2   3
HETATM    3  C   UNL     1      41.813 -17.974   3.721  1.00  0.00     0.131 C 
BRANCH   3   4
HETATM    4  N   UNL     1      43.154 -17.948   4.350  1.00  0.00    -0.346 N 
HETATM    5  C   UNL     1      43.504 -16.766   5.054  1.00  0.00     0.041 A 
HETATM    6  C   UNL     1      44.176 -16.735   6.295  1.00  0.00    -0.031 A 
HETATM    7  C   UNL     1      43.246 -15.515   4.438  1.00  0.00     0.030 A 
HETATM    8  C   UNL     1      44.531 -15.487   6.867  1.00  0.00     0.009 A 
HETATM    9  C   UNL     1      44.609 -17.942   7.096  1.00  0.00     0.045 C 
HETATM   10  C   UNL     1      44.232 -14.280   6.246  1.00  0.00     0.001 A 
HETATM   11  C   UNL     1      43.591 -14.294   5.022  1.00  0.00     0.002 A 
HETATM   12  C   UNL     1      43.733 -19.178   6.966  1.00  0.00     0.045 C 
HETATM   13  C   UNL     1      43.998 -19.876   5.662  1.00  0.00    -0.031 A 
HETATM   14  C   UNL     1      43.750 -19.231   4.441  1.00  0.00     0.042 A 
HETATM   15  C   UNL     1      44.524 -21.182   5.677  1.00  0.00     0.011 A 
HETATM   16  C   UNL     1      44.082 -19.911   3.253  1.00  0.00     0.054 A 
HETATM   17  C   UNL     1      44.594 -21.208   3.280  1.00  0.00     0.036 A 
HETATM   18 CL   UNL     1      44.886 -22.034   1.799  1.00  0.00    -0.084 Cl
HETATM   19  C   UNL     1      44.813 -21.851   4.489  1.00  0.00     0.024 A 
ENDBRANCH   3   4
ENDBRANCH   2   3
ENDBRANCH   1   2
BRANCH   1  20
HETATM   20  N   UNL     1      40.919 -15.728   1.049  1.00  0.00    -0.071 N 
HETATM   21  H   UNL     1      41.824 -15.495   1.506  1.00  0.00     0.279 HD
HETATM   22  C   UNL     1      39.942 -14.732   1.638  1.00  0.00     0.238 C 
HETATM   23  C   UNL     1      39.669 -13.570   0.680  1.00  0.00     0.077 C 
HETATM   24  C   UNL     1      40.941 -13.090  -0.006  1.00  0.00     0.212 C 
HETATM   25  N   UNL     1      40.707 -11.857  -0.878  1.00  0.00    -0.032 N 
HETATM   26  C   UNL     1      41.895 -12.517   1.055  1.00  0.00     0.256 C 
HETATM   27  C   UNL     1      41.647 -14.190  -0.803  1.00  0.00     0.077 C 
HETATM   28  H   UNL     1      41.531 -11.775  -1.493  1.00  0.00     0.283 HD
HETATM   29  C   UNL     1      40.862 -10.691   0.051  1.00  0.00     0.290 C 
HETATM   30  C   UNL     1      39.501 -11.728  -1.756  1.00  0.00     0.239 C 
HETATM   31  C   UNL     1      41.115  -9.440  -0.770  1.00  0.00     0.055 C 
HETATM   32  N   UNL     1      41.915 -11.144   0.888  1.00  0.00    -0.331 N 
HETATM   33  C   UNL     1      39.962  -9.225  -1.759  1.00  0.00     0.005 C 
HETATM   34  C   UNL     1      39.674 -10.472  -2.606  1.00  0.00     0.028 C 
HETATM   35  H   UNL     1      42.356 -10.561   1.597  1.00  0.00     0.164 HD
HETATM   36  O   UNL     1      42.493 -13.176   1.885  1.00  0.00    -0.271 OA
HETATM   37  C   UNL     1      41.193 -15.601  -0.426  1.00  0.00     0.238 C 
ENDBRANCH   1  20
TORSDOF 4
ENDMDL
MODEL 8
REMARK VINA RESULT:      -9.9      4.067      8.943
REMARK  4 active torsions:
REMARK  status: ('A' for Active; 'I' for Inactive)
REMARK    1  A    between atoms: N_5  and  C_6 
REMARK    2  A    between atoms: C_6  and  C_7 
REMARK    3  A    between atoms: C_7  and  C_8 
REMARK    4  A    between atoms: C_8  and  N_9 
ROOT
HETATM    1  C   UNL     1      42.621 -14.877   6.210  1.00  0.00     0.236 C 
ENDROOT
BRANCH   1   2
HETATM    2  C   UNL     1      41.828 -14.159   5.116  1.00  0.00     0.048 C 
BRANCH   2   3
HETATM    3  C   UNL     1      42.653 -13.571   3.966  1.00  0.00     0.131 C 
BRANCH   3   4
HETATM    4  N   UNL     1      42.047 -13.881   2.649  1.00  0.00    -0.346 N 
HETATM    5  C   UNL     1      42.317 -15.167   2.112  1.00  0.00     0.041 A 
HETATM    6  C   UNL     1      41.368 -15.985   1.463  1.00  0.00    -0.031 A 
HETATM    7  C   UNL     1      43.653 -15.643   2.143  1.00  0.00     0.030 A 
HETATM    8  C   UNL     1      41.776 -17.224   0.907  1.00  0.00     0.009 A 
HETATM    9  C   UNL     1      39.908 -15.651   1.254  1.00  0.00     0.045 C 
HETATM   10  C   UNL     1      43.090 -17.670   0.986  1.00  0.00     0.001 A 
HETATM   11  C   UNL     1      44.035 -16.873   1.603  1.00  0.00     0.002 A 
HETATM   12  C   UNL     1      39.262 -14.789   2.327  1.00  0.00     0.045 C 
HETATM   13  C   UNL     1      39.674 -13.352   2.167  1.00  0.00    -0.031 A 
HETATM   14  C   UNL     1      41.020 -12.976   2.282  1.00  0.00     0.042 A 
HETATM   15  C   UNL     1      38.693 -12.386   1.872  1.00  0.00     0.011 A 
HETATM   16  C   UNL     1      41.352 -11.626   2.055  1.00  0.00     0.054 A 
HETATM   17  C   UNL     1      40.372 -10.676   1.773  1.00  0.00     0.036 A 
HETATM   18 CL   UNL     1      40.817  -9.023   1.605  1.00  0.00    -0.084 Cl
HETATM   19  C   UNL     1      39.039 -11.049   1.685  1.00  0.00     0.024 A 
ENDBRANCH   3   4
ENDBRANCH   2   3
ENDBRANCH   1   2
BRANCH   1  20
HETATM   20  N   UNL     1      42.900 -16.382   6.000  1.00  0.00    -0.071 N 
HETATM   21  H   UNL     1      42.593 -16.775   6.913  1.00  0.00     0.279 HD
HETATM   22  C   UNL     1      44.362 -16.767   5.907  1.00  0.00     0.238 C 
HETATM   23  C   UNL     1      44.572 -17.982   5.002  1.00  0.00     0.077 C 
HETATM   24  C   UNL     1      43.507 -19.047   5.226  1.00  0.00     0.212 C 
HETATM   25  N   UNL     1      43.767 -20.316   4.414  1.00  0.00    -0.032 N 
HETATM   26  C   UNL     1      43.636 -19.590   6.659  1.00  0.00     0.256 C 
HETATM   27  C   UNL     1      42.085 -18.534   4.988  1.00  0.00     0.077 C 
HETATM   28  H   UNL     1      42.884 -20.849   4.417  1.00  0.00     0.283 HD
HETATM   29  C   UNL     1      44.667 -21.149   5.275  1.00  0.00     0.290 C 
HETATM   30  C   UNL     1      44.230 -20.262   2.991  1.00  0.00     0.239 C 
HETATM   31  C   UNL     1      44.610 -22.587   4.796  1.00  0.00     0.055 C 
HETATM   32  N   UNL     1      44.147 -20.871   6.566  1.00  0.00    -0.331 N 
HETATM   33  C   UNL     1      45.016 -22.661   3.318  1.00  0.00     0.005 C 
HETATM   34  C   UNL     1      44.219 -21.686   2.441  1.00  0.00     0.028 C 
HETATM   35  H   UNL     1      44.464 -21.345   7.410  1.00  0.00     0.164 HD
HETATM   36  O   UNL     1      43.349 -18.973   7.667  1.00  0.00    -0.271 OA
HETATM   37  C   UNL     1      41.980 -17.009   4.987  1.00  0.00     0.238 C 
ENDBRANCH   1  20
TORSDOF 4
ENDMDL
MODEL 9
REMARK VINA RESULT:      -9.9      2.421      4.350
REMARK  4 active torsions:
REMARK  status: ('A' for Active; 'I' for Inactive)
REMARK    1  A    between atoms: N_5  and  C_6 
REMARK    2  A    between atoms: C_6  and  C_7 
REMARK    3  A    between atoms: C_7  and  C_8 
REMARK    4  A    between atoms: C_8  and  N_9 
ROOT
HETATM    1  C   UNL     1      41.651 -16.767   1.116  1.00  0.00     0.236 C 
ENDROOT
BRANCH   1   2
HETATM    2  C   UNL     1      43.078 -17.301   0.968  1.00  0.00     0.048 C 
BRANCH   2   3
HETATM    3  C   UNL     1      43.976 -17.168   2.203  1.00  0.00     0.131 C 
BRANCH   3   4
HETATM    4  N   UNL     1      43.552 -18.087   3.285  1.00  0.00    -0.346 N 
HETATM    5  C   UNL     1      43.911 -19.453   3.137  1.00  0.00     0.041 A 
HETATM    6  C   UNL     1      44.387 -20.278   4.177  1.00  0.00    -0.031 A 
HETATM    7  C   UNL     1      43.697 -20.072   1.879  1.00  0.00     0.030 A 
HETATM    8  C   UNL     1      44.648 -21.648   3.919  1.00  0.00     0.009 A 
HETATM    9  C   UNL     1      44.624 -19.850   5.608  1.00  0.00     0.045 C 
HETATM   10  C   UNL     1      44.456 -22.211   2.663  1.00  0.00     0.001 A 
HETATM   11  C   UNL     1      43.973 -21.420   1.638  1.00  0.00     0.002 A 
HETATM   12  C   UNL     1      45.039 -18.402   5.810  1.00  0.00     0.045 C 
HETATM   13  C   UNL     1      43.852 -17.490   5.672  1.00  0.00    -0.031 A 
HETATM   14  C   UNL     1      43.147 -17.410   4.462  1.00  0.00     0.042 A 
HETATM   15  C   UNL     1      43.437 -16.731   6.784  1.00  0.00     0.011 A 
HETATM   16  C   UNL     1      42.004 -16.589   4.415  1.00  0.00     0.054 A 
HETATM   17  C   UNL     1      41.606 -15.835   5.519  1.00  0.00     0.036 A 
HETATM   18 CL   UNL     1      40.263 -14.770   5.378  1.00  0.00    -0.084 Cl
HETATM   19  C   UNL     1      42.322 -15.898   6.705  1.00  0.00     0.024 A 
ENDBRANCH   3   4
ENDBRANCH   2   3
ENDBRANCH   1   2
BRANCH   1  20
HETATM   20  N   UNL     1      41.269 -15.541   0.258  1.00  0.00    -0.071 N 
HETATM   21  H   UNL     1      42.160 -15.004   0.262  1.00  0.00     0.279 HD
HETATM   22  C   UNL     1      40.267 -14.594   0.885  1.00  0.00     0.238 C 
HETATM   23  C   UNL     1      39.396 -13.910  -0.170  1.00  0.00     0.077 C 
HETATM   24  C   UNL     1      40.208 -13.480  -1.384  1.00  0.00     0.212 C 
HETATM   25  N   UNL     1      39.376 -12.693  -2.397  1.00  0.00    -0.032 N 
HETATM   26  C   UNL     1      41.225 -12.411  -0.953  1.00  0.00     0.256 C 
HETATM   27  C   UNL     1      40.931 -14.644  -2.067  1.00  0.00     0.077 C 
HETATM   28  H   UNL     1      39.917 -12.685  -3.274  1.00  0.00     0.283 HD
HETATM   29  C   UNL     1      39.455 -11.268  -1.939  1.00  0.00     0.290 C 
HETATM   30  C   UNL     1      37.980 -13.098  -2.757  1.00  0.00     0.239 C 
HETATM   31  C   UNL     1      39.076 -10.360  -3.094  1.00  0.00     0.055 C 
HETATM   32  N   UNL     1      40.794 -11.203  -1.472  1.00  0.00    -0.331 N 
HETATM   33  C   UNL     1      37.670 -10.715  -3.596  1.00  0.00     0.005 C 
HETATM   34  C   UNL     1      37.518 -12.209  -3.909  1.00  0.00     0.028 C 
HETATM   35  H   UNL     1      41.237 -10.340  -1.163  1.00  0.00     0.164 HD
HETATM   36  O   UNL     1      42.207 -12.619  -0.266  1.00  0.00    -0.271 OA
HETATM   37  C   UNL     1      41.041 -15.891  -1.189  1.00  0.00     0.238 C 
ENDBRANCH   1  20
TORSDOF 4
ENDMDL
MODEL 10
REMARK VINA RESULT:      -9.6      3.017      8.965
REMARK  4 active torsions:
REMARK  status: ('A' for Active; 'I' for Inactive)
REMARK    1  A    between atoms: N_5  and  C_6 
REMARK    2  A    between atoms: C_6  and  C_7 
REMARK    3  A    between atoms: C_7  and  C_8 
REMARK    4  A    between atoms: C_8  and  N_9 
ROOT
HETATM    1  C   UNL     1      41.572 -14.066   2.705  1.00  0.00     0.236 C 
ENDROOT
BRANCH   1   2
HETATM    2  C   UNL     1      41.402 -13.762   1.215  1.00  0.00     0.048 C 
BRANCH   2   3
HETATM    3  C   UNL     1      40.254 -12.813   0.850  1.00  0.00     0.131 C 
BRANCH   3   4
HETATM    4  N   UNL     1      40.523 -12.098  -0.420  1.00  0.00    -0.346 N 
HETATM    5  C   UNL     1      41.182 -10.845  -0.317  1.00  0.00     0.041 A 
HETATM    6  C   UNL     1      42.210 -10.402  -1.176  1.00  0.00    -0.031 A 
HETATM    7  C   UNL     1      40.724  -9.922   0.658  1.00  0.00     0.030 A 
HETATM    8  C   UNL     1      42.744  -9.098  -1.013  1.00  0.00     0.009 A 
HETATM    9  C   UNL     1      42.804 -11.188  -2.323  1.00  0.00     0.045 C 
HETATM   10  C   UNL     1      42.290  -8.234  -0.024  1.00  0.00     0.001 A 
HETATM   11  C   UNL     1      41.271  -8.646   0.813  1.00  0.00     0.002 A 
HETATM   12  C   UNL     1      42.830 -12.698  -2.153  1.00  0.00     0.045 C 
HETATM   13  C   UNL     1      41.463 -13.278  -2.387  1.00  0.00    -0.031 A 
HETATM   14  C   UNL     1      40.385 -12.924  -1.563  1.00  0.00     0.042 A 
HETATM   15  C   UNL     1      41.269 -14.164  -3.464  1.00  0.00     0.011 A 
HETATM   16  C   UNL     1      39.114 -13.448  -1.873  1.00  0.00     0.054 A 
HETATM   17  C   UNL     1      38.935 -14.332  -2.937  1.00  0.00     0.036 A 
HETATM   18 CL   UNL     1      37.384 -15.023  -3.211  1.00  0.00    -0.084 Cl
HETATM   19  C   UNL     1      40.009 -14.698  -3.733  1.00  0.00     0.024 A 
ENDBRANCH   3   4
ENDBRANCH   2   3
ENDBRANCH   1   2
BRANCH   1  20
HETATM   20  N   UNL     1      42.127 -15.459   3.076  1.00  0.00    -0.071 N 
HETATM   21  H   UNL     1      42.230 -15.369   4.107  1.00  0.00     0.279 HD
HETATM   22  C   UNL     1      43.532 -15.750   2.591  1.00  0.00     0.238 C 
HETATM   23  C   UNL     1      43.736 -17.238   2.300  1.00  0.00     0.077 C 
HETATM   24  C   UNL     1      43.089 -18.117   3.362  1.00  0.00     0.212 C 
HETATM   25  N   UNL     1      43.379 -19.603   3.150  1.00  0.00    -0.032 N 
HETATM   26  C   UNL     1      43.792 -17.874   4.708  1.00  0.00     0.256 C 
HETATM   27  C   UNL     1      41.584 -17.876   3.508  1.00  0.00     0.077 C 
HETATM   28  H   UNL     1      42.701 -20.117   3.732  1.00  0.00     0.283 HD
HETATM   29  C   UNL     1      44.680 -19.847   3.854  1.00  0.00     0.290 C 
HETATM   30  C   UNL     1      43.342 -20.229   1.791  1.00  0.00     0.239 C 
HETATM   31  C   UNL     1      44.827 -21.335   4.110  1.00  0.00     0.055 C 
HETATM   32  N   UNL     1      44.543 -19.001   4.986  1.00  0.00    -0.331 N 
HETATM   33  C   UNL     1      44.750 -22.102   2.784  1.00  0.00     0.005 C 
HETATM   34  C   UNL     1      43.504 -21.737   1.966  1.00  0.00     0.028 C 
HETATM   35  H   UNL     1      45.216 -18.977   5.750  1.00  0.00     0.164 HD
HETATM   36  O   UNL     1      43.696 -16.859   5.372  1.00  0.00    -0.271 OA
HETATM   37  C   UNL     1      41.116 -16.559   2.888  1.00  0.00     0.238 C 
ENDBRANCH   1  20
TORSDOF 4
ENDMDL
