MODEL 1
REMARK VINA RESULT:      -8.7      0.000      0.000
REMARK  11 active torsions:
REMARK  status: ('A' for Active; 'I' for Inactive)
REMARK    1  A    between atoms: C_6  and  O_9 
REMARK    2  A    between atoms: O_9  and  C_10 
REMARK    3  A    between atoms: C_10  and  C_12 
REMARK    4  A    between atoms: C_12  and  C_13 
REMARK    5  A    between atoms: C_16  and  N_17 
REMARK       I    between atoms: N_17  and  C_18 
REMARK    6  A    between atoms: C_18  and  C_20 
REMARK    7  A    between atoms: C_24  and  C_26 
REMARK    8  A    between atoms: C_28  and  C_34 
REMARK    9  A    between atoms: C_31  and  C_32 
REMARK   10  A    between atoms: C_32  and  N_33 
REMARK       I    between atoms: C_34  and  N_36 
REMARK   11  A    between atoms: N_36  and  C_37 
ROOT
HETATM    1  C   UNL     1      41.847 -12.834  -0.836  1.00  0.00     0.033 A 
HETATM    2  C   UNL     1      42.753 -12.120  -1.624  1.00  0.00     0.017 A 
HETATM    3  C   UNL     1      42.476 -11.919  -2.972  1.00  0.00     0.002 A 
HETATM    4  C   UNL     1      41.285 -12.405  -3.523  1.00  0.00     0.012 A 
HETATM    5  C   UNL     1      40.366 -13.147  -2.755  1.00  0.00    -0.024 A 
HETATM    6  C   UNL     1      40.697 -13.396  -1.412  1.00  0.00     0.029 A 
ENDROOT
BRANCH   1   7
HETATM    7  C   UNL     1      42.013 -12.925   0.641  1.00  0.00     0.256 C 
HETATM    8  N   UNL     1      41.715 -14.177   1.152  1.00  0.00    -0.323 N 
HETATM    9  H   UNL     1      41.428 -14.881   0.486  1.00  0.00     0.169 HD
HETATM   10  O   UNL     1      42.455 -11.958   1.246  1.00  0.00    -0.267 OA
BRANCH   8  11
HETATM   11  C   UNL     1      41.902 -14.639   2.472  1.00  0.00     0.035 A 
HETATM   12  C   UNL     1      43.123 -14.628   3.140  1.00  0.00     0.030 A 
HETATM   13  C   UNL     1      43.228 -15.144   4.438  1.00  0.00     0.010 A 
HETATM   14  C   UNL     1      42.109 -15.684   5.087  1.00  0.00    -0.049 A 
HETATM   15  C   UNL     1      40.878 -15.675   4.422  1.00  0.00     0.010 A 
HETATM   16  C   UNL     1      40.778 -15.158   3.127  1.00  0.00     0.030 A 
BRANCH  14  17
HETATM   17  C   UNL     1      42.226 -16.241   6.483  1.00  0.00     0.149 C 
BRANCH  17  18
HETATM   18  C   UNL     1      43.186 -17.405   6.586  1.00  0.00     0.263 C 
HETATM   19  O   UNL     1      44.128 -17.502   7.361  1.00  0.00    -0.265 OA
BRANCH  18  20
HETATM   20  O   UNL     1      42.822 -18.397   5.713  1.00  0.00    -0.316 OA
BRANCH  20  21
HETATM   21  C   UNL     1      43.837 -18.784   4.771  1.00  0.00     0.135 C 
HETATM   22  C   UNL     1      44.335 -20.197   5.072  1.00  0.00     0.060 C 
HETATM   23  C   UNL     1      45.334 -20.652   4.023  1.00  0.00     0.237 C 
HETATM   24  N   UNL     1      44.741 -20.556   2.637  1.00  0.00    -0.075 N 
HETATM   25  C   UNL     1      43.775 -21.666   2.314  1.00  0.00     0.269 C 
HETATM   26  C   UNL     1      44.214 -19.178   2.320  1.00  0.00     0.237 C 
HETATM   27  H   UNL     1      45.530 -20.705   1.990  1.00  0.00     0.279 HD
HETATM   28  C   UNL     1      43.221 -18.721   3.375  1.00  0.00     0.060 C 
ENDBRANCH  20  21
ENDBRANCH  18  20
ENDBRANCH  17  18
ENDBRANCH  14  17
ENDBRANCH   8  11
ENDBRANCH   1   7
BRANCH   5  29
HETATM   29  C   UNL     1      39.079 -13.601  -3.347  1.00  0.00    -0.017 A 
HETATM   30  C   UNL     1      38.042 -12.653  -3.533  1.00  0.00     0.030 A 
HETATM   31  C   UNL     1      36.786 -13.026  -4.032  1.00  0.00     0.033 A 
HETATM   32  C   UNL     1      36.560 -14.348  -4.405  1.00  0.00     0.017 A 
HETATM   33  C   UNL     1      37.567 -15.295  -4.250  1.00  0.00     0.011 A 
HETATM   34  C   UNL     1      38.812 -14.960  -3.677  1.00  0.00    -0.020 A 
BRANCH  31  35
HETATM   35  C   UNL     1      35.635 -12.083  -4.084  1.00  0.00     0.256 C 
HETATM   36  O   UNL     1      35.859 -10.892  -3.904  1.00  0.00    -0.267 OA
HETATM   37  N   UNL     1      34.397 -12.649  -4.320  1.00  0.00    -0.320 N 
HETATM   38  H   UNL     1      34.319 -13.660  -4.285  1.00  0.00     0.169 HD
BRANCH  37  39
HETATM   39  C   UNL     1      33.176 -11.954  -4.495  1.00  0.00     0.076 A 
HETATM   40  C   UNL     1      32.302 -11.632  -3.458  1.00  0.00     0.052 A 
HETATM   41  C   UNL     1      31.138 -10.935  -3.759  1.00  0.00     0.118 A 
HETATM   42  N   UNL     1      30.792 -10.544  -5.006  1.00  0.00    -0.270 NA
HETATM   43  C   UNL     1      31.656 -10.863  -5.996  1.00  0.00     0.160 A 
HETATM   44  C   UNL     1      32.838 -11.551  -5.787  1.00  0.00     0.160 A 
HETATM   45  F   UNL     1      33.651 -11.829  -6.817  1.00  0.00    -0.202 F 
ENDBRANCH  37  39
ENDBRANCH  31  35
BRANCH  34  46
HETATM   46  C   UNL     1      39.821 -16.072  -3.449  1.00  0.00     0.306 C 
BRANCH  46  47
HETATM   47  N   UNL     1      39.222 -17.407  -3.411  1.00  0.00     0.082 N 
HETATM   48  H   UNL     1      38.236 -17.328  -3.658  1.00  0.00     0.313 HD
HETATM   49  H   UNL     1      39.251 -17.758  -2.456  1.00  0.00     0.313 HD
ENDBRANCH  46  47
ENDBRANCH  34  46
ENDBRANCH   5  29
TORSDOF 11
ENDMDL
MODEL 2
REMARK VINA RESULT:      -8.5      5.111      8.897
REMARK  11 active torsions:
REMARK  status: ('A' for Active; 'I' for Inactive)
REMARK    1  A    between atoms: C_6  and  O_9 
REMARK    2  A    between atoms: O_9  and  C_10 
REMARK    3  A    between atoms: C_10  and  C_12 
REMARK    4  A    between atoms: C_12  and  C_13 
REMARK    5  A    between atoms: C_16  and  N_17 
REMARK       I    between atoms: N_17  and  C_18 
REMARK    6  A    between atoms: C_18  and  C_20 
REMARK    7  A    between atoms: C_24  and  C_26 
REMARK    8  A    between atoms: C_28  and  C_34 
REMARK    9  A    between atoms: C_31  and  C_32 
REMARK   10  A    between atoms: C_32  and  N_33 
REMARK       I    between atoms: C_34  and  N_36 
REMARK   11  A    between atoms: N_36  and  C_37 
ROOT
HETATM    1  C   UNL     1      39.953 -13.938   0.878  1.00  0.00     0.033 A 
HETATM    2  C   UNL     1      40.365 -13.456  -0.367  1.00  0.00     0.017 A 
HETATM    3  C   UNL     1      40.172 -12.114  -0.677  1.00  0.00     0.002 A 
HETATM    4  C   UNL     1      39.597 -11.253   0.263  1.00  0.00     0.012 A 
HETATM    5  C   UNL     1      39.152 -11.718   1.516  1.00  0.00    -0.024 A 
HETATM    6  C   UNL     1      39.295 -13.091   1.783  1.00  0.00     0.029 A 
ENDROOT
BRANCH   1   7
HETATM    7  C   UNL     1      40.293 -15.318   1.322  1.00  0.00     0.256 C 
HETATM    8  N   UNL     1      41.552 -15.732   0.917  1.00  0.00    -0.323 N 
HETATM    9  H   UNL     1      42.095 -15.068   0.381  1.00  0.00     0.169 HD
HETATM   10  O   UNL     1      39.507 -15.918   2.042  1.00  0.00    -0.267 OA
BRANCH   8  11
HETATM   11  C   UNL     1      42.233 -16.911   1.283  1.00  0.00     0.035 A 
HETATM   12  C   UNL     1      41.606 -18.116   1.585  1.00  0.00     0.030 A 
HETATM   13  C   UNL     1      42.360 -19.230   1.979  1.00  0.00     0.010 A 
HETATM   14  C   UNL     1      43.755 -19.152   2.081  1.00  0.00    -0.049 A 
HETATM   15  C   UNL     1      44.385 -17.946   1.756  1.00  0.00     0.010 A 
HETATM   16  C   UNL     1      43.630 -16.837   1.363  1.00  0.00     0.030 A 
BRANCH  14  17
HETATM   17  C   UNL     1      44.562 -20.352   2.508  1.00  0.00     0.149 C 
BRANCH  17  18
HETATM   18  C   UNL     1      44.679 -20.494   4.009  1.00  0.00     0.263 C 
HETATM   19  O   UNL     1      44.645 -21.539   4.643  1.00  0.00    -0.265 OA
BRANCH  18  20
HETATM   20  O   UNL     1      44.893 -19.268   4.584  1.00  0.00    -0.316 OA
BRANCH  20  21
HETATM   21  C   UNL     1      44.028 -18.953   5.689  1.00  0.00     0.135 C 
HETATM   22  C   UNL     1      44.851 -18.577   6.921  1.00  0.00     0.060 C 
HETATM   23  C   UNL     1      43.948 -18.146   8.062  1.00  0.00     0.237 C 
HETATM   24  N   UNL     1      43.041 -17.015   7.635  1.00  0.00    -0.075 N 
HETATM   25  C   UNL     1      43.731 -15.678   7.569  1.00  0.00     0.269 C 
HETATM   26  C   UNL     1      42.236 -17.346   6.402  1.00  0.00     0.237 C 
HETATM   27  H   UNL     1      42.353 -16.913   8.394  1.00  0.00     0.279 HD
HETATM   28  C   UNL     1      43.141 -17.785   5.263  1.00  0.00     0.060 C 
ENDBRANCH  20  21
ENDBRANCH  18  20
ENDBRANCH  17  18
ENDBRANCH  14  17
ENDBRANCH   8  11
ENDBRANCH   1   7
BRANCH   5  29
HETATM   29  C   UNL     1      38.600 -10.773   2.521  1.00  0.00    -0.017 A 
HETATM   30  C   UNL     1      39.371 -10.471   3.671  1.00  0.00     0.030 A 
HETATM   31  C   UNL     1      38.885  -9.633   4.684  1.00  0.00     0.033 A 
HETATM   32  C   UNL     1      37.635  -9.037   4.542  1.00  0.00     0.017 A 
HETATM   33  C   UNL     1      36.865  -9.301   3.414  1.00  0.00     0.011 A 
HETATM   34  C   UNL     1      37.299 -10.202   2.419  1.00  0.00    -0.020 A 
BRANCH  31  35
HETATM   35  C   UNL     1      39.608  -9.431   5.970  1.00  0.00     0.256 C 
HETATM   36  O   UNL     1      39.757  -8.283   6.371  1.00  0.00    -0.267 OA
HETATM   37  N   UNL     1      40.065 -10.575   6.595  1.00  0.00    -0.320 N 
HETATM   38  H   UNL     1      40.027 -11.449   6.081  1.00  0.00     0.169 HD
BRANCH  37  39
HETATM   39  C   UNL     1      40.703 -10.645   7.858  1.00  0.00     0.076 A 
HETATM   40  C   UNL     1      42.081 -10.564   8.046  1.00  0.00     0.052 A 
HETATM   41  C   UNL     1      42.582 -10.634   9.340  1.00  0.00     0.118 A 
HETATM   42  N   UNL     1      41.813 -10.775  10.442  1.00  0.00    -0.270 NA
HETATM   43  C   UNL     1      40.479 -10.847  10.237  1.00  0.00     0.160 A 
HETATM   44  C   UNL     1      39.893 -10.784   8.985  1.00  0.00     0.160 A 
HETATM   45  F   UNL     1      38.559 -10.856   8.856  1.00  0.00    -0.202 F 
ENDBRANCH  37  39
ENDBRANCH  31  35
BRANCH  34  46
HETATM   46  C   UNL     1      36.355 -10.514   1.270  1.00  0.00     0.306 C 
BRANCH  46  47
HETATM   47  N   UNL     1      34.950 -10.594   1.672  1.00  0.00     0.082 N 
HETATM   48  H   UNL     1      34.870 -11.252   2.447  1.00  0.00     0.313 HD
HETATM   49  H   UNL     1      34.406 -10.985   0.906  1.00  0.00     0.313 HD
ENDBRANCH  46  47
ENDBRANCH  34  46
ENDBRANCH   5  29
TORSDOF 11
ENDMDL
MODEL 3
REMARK VINA RESULT:      -8.4      4.031      5.151
REMARK  11 active torsions:
REMARK  status: ('A' for Active; 'I' for Inactive)
REMARK    1  A    between atoms: C_6  and  O_9 
REMARK    2  A    between atoms: O_9  and  C_10 
REMARK    3  A    between atoms: C_10  and  C_12 
REMARK    4  A    between atoms: C_12  and  C_13 
REMARK    5  A    between atoms: C_16  and  N_17 
REMARK       I    between atoms: N_17  and  C_18 
REMARK    6  A    between atoms: C_18  and  C_20 
REMARK    7  A    between atoms: C_24  and  C_26 
REMARK    8  A    between atoms: C_28  and  C_34 
REMARK    9  A    between atoms: C_31  and  C_32 
REMARK   10  A    between atoms: C_32  and  N_33 
REMARK       I    between atoms: C_34  and  N_36 
REMARK   11  A    between atoms: N_36  and  C_37 
ROOT
HETATM    1  C   UNL     1      40.737 -14.112  -0.233  1.00  0.00     0.033 A 
HETATM    2  C   UNL     1      41.828 -13.372  -0.696  1.00  0.00     0.017 A 
HETATM    3  C   UNL     1      41.607 -12.160  -1.343  1.00  0.00     0.002 A 
HETATM    4  C   UNL     1      40.303 -11.679  -1.502  1.00  0.00     0.012 A 
HETATM    5  C   UNL     1      39.185 -12.417  -1.066  1.00  0.00    -0.024 A 
HETATM    6  C   UNL     1      39.427 -13.669  -0.474  1.00  0.00     0.029 A 
ENDROOT
BRANCH   1   7
HETATM    7  C   UNL     1      40.929 -15.321   0.615  1.00  0.00     0.256 C 
HETATM    8  N   UNL     1      42.045 -16.064   0.269  1.00  0.00    -0.323 N 
HETATM    9  H   UNL     1      42.602 -15.714  -0.499  1.00  0.00     0.169 HD
HETATM   10  O   UNL     1      40.170 -15.510   1.555  1.00  0.00    -0.267 OA
BRANCH   8  11
HETATM   11  C   UNL     1      42.590 -17.173   0.949  1.00  0.00     0.035 A 
HETATM   12  C   UNL     1      41.843 -18.253   1.411  1.00  0.00     0.030 A 
HETATM   13  C   UNL     1      42.461 -19.295   2.114  1.00  0.00     0.010 A 
HETATM   14  C   UNL     1      43.838 -19.270   2.370  1.00  0.00    -0.049 A 
HETATM   15  C   UNL     1      44.591 -18.195   1.887  1.00  0.00     0.010 A 
HETATM   16  C   UNL     1      43.971 -17.157   1.185  1.00  0.00     0.030 A 
BRANCH  14  17
HETATM   17  C   UNL     1      44.499 -20.393   3.129  1.00  0.00     0.149 C 
BRANCH  17  18
HETATM   18  C   UNL     1      44.528 -20.171   4.624  1.00  0.00     0.263 C 
HETATM   19  O   UNL     1      44.347 -21.019   5.487  1.00  0.00    -0.265 OA
BRANCH  18  20
HETATM   20  O   UNL     1      44.852 -18.868   4.902  1.00  0.00    -0.316 OA
BRANCH  20  21
HETATM   21  C   UNL     1      43.920 -18.175   5.750  1.00  0.00     0.135 C 
HETATM   22  C   UNL     1      44.532 -17.929   7.128  1.00  0.00     0.060 C 
HETATM   23  C   UNL     1      43.594 -17.111   7.997  1.00  0.00     0.237 C 
HETATM   24  N   UNL     1      43.222 -15.814   7.316  1.00  0.00    -0.075 N 
HETATM   25  C   UNL     1      44.308 -14.771   7.364  1.00  0.00     0.269 C 
HETATM   26  C   UNL     1      42.641 -16.023   5.939  1.00  0.00     0.237 C 
HETATM   27  H   UNL     1      42.458 -15.417   7.880  1.00  0.00     0.279 HD
HETATM   28  C   UNL     1      43.577 -16.849   5.074  1.00  0.00     0.060 C 
ENDBRANCH  20  21
ENDBRANCH  18  20
ENDBRANCH  17  18
ENDBRANCH  14  17
ENDBRANCH   8  11
ENDBRANCH   1   7
BRANCH   5  29
HETATM   29  C   UNL     1      37.813 -11.857  -1.192  1.00  0.00    -0.017 A 
HETATM   30  C   UNL     1      37.224 -11.236  -0.063  1.00  0.00     0.030 A 
HETATM   31  C   UNL     1      35.913 -10.739  -0.097  1.00  0.00     0.033 A 
HETATM   32  C   UNL     1      35.184 -10.807  -1.282  1.00  0.00     0.017 A 
HETATM   33  C   UNL     1      35.746 -11.395  -2.410  1.00  0.00     0.011 A 
HETATM   34  C   UNL     1      37.033 -11.972  -2.377  1.00  0.00    -0.020 A 
BRANCH  31  35
HETATM   35  C   UNL     1      35.219 -10.231   1.117  1.00  0.00     0.256 C 
HETATM   36  O   UNL     1      35.899  -9.980   2.105  1.00  0.00    -0.267 OA
HETATM   37  N   UNL     1      33.847 -10.101   1.022  1.00  0.00    -0.320 N 
HETATM   38  H   UNL     1      33.383 -10.499   0.212  1.00  0.00     0.169 HD
BRANCH  37  39
HETATM   39  C   UNL     1      32.984  -9.564   2.009  1.00  0.00     0.076 A 
HETATM   40  C   UNL     1      32.864  -8.204   2.289  1.00  0.00     0.052 A 
HETATM   41  C   UNL     1      31.970  -7.804   3.276  1.00  0.00     0.118 A 
HETATM   42  N   UNL     1      31.201  -8.655   3.990  1.00  0.00    -0.270 NA
HETATM   43  C   UNL     1      31.331  -9.969   3.699  1.00  0.00     0.160 A 
HETATM   44  C   UNL     1      32.192 -10.456   2.732  1.00  0.00     0.160 A 
HETATM   45  F   UNL     1      32.264 -11.775   2.491  1.00  0.00    -0.202 F 
ENDBRANCH  37  39
ENDBRANCH  31  35
BRANCH  34  46
HETATM   46  C   UNL     1      37.534 -12.684  -3.623  1.00  0.00     0.306 C 
BRANCH  46  47
HETATM   47  N   UNL     1      37.282 -14.126  -3.613  1.00  0.00     0.082 N 
HETATM   48  H   UNL     1      38.121 -14.605  -3.938  1.00  0.00     0.313 HD
HETATM   49  H   UNL     1      36.550 -14.340  -4.288  1.00  0.00     0.313 HD
ENDBRANCH  46  47
ENDBRANCH  34  46
ENDBRANCH   5  29
TORSDOF 11
ENDMDL
MODEL 4
REMARK VINA RESULT:      -8.3      2.135      2.932
REMARK  11 active torsions:
REMARK  status: ('A' for Active; 'I' for Inactive)
REMARK    1  A    between atoms: C_6  and  O_9 
REMARK    2  A    between atoms: O_9  and  C_10 
REMARK    3  A    between atoms: C_10  and  C_12 
REMARK    4  A    between atoms: C_12  and  C_13 
REMARK    5  A    between atoms: C_16  and  N_17 
REMARK       I    between atoms: N_17  and  C_18 
REMARK    6  A    between atoms: C_18  and  C_20 
REMARK    7  A    between atoms: C_24  and  C_26 
REMARK    8  A    between atoms: C_28  and  C_34 
REMARK    9  A    between atoms: C_31  and  C_32 
REMARK   10  A    between atoms: C_32  and  N_33 
REMARK       I    between atoms: C_34  and  N_36 
REMARK   11  A    between atoms: N_36  and  C_37 
ROOT
HETATM    1  C   UNL     1      39.432 -12.285   2.353  1.00  0.00     0.033 A 
HETATM    2  C   UNL     1      38.891 -10.998   2.302  1.00  0.00     0.017 A 
HETATM    3  C   UNL     1      38.468 -10.482   1.081  1.00  0.00     0.002 A 
HETATM    4  C   UNL     1      38.559 -11.261  -0.078  1.00  0.00     0.012 A 
HETATM    5  C   UNL     1      39.122 -12.552  -0.057  1.00  0.00    -0.024 A 
HETATM    6  C   UNL     1      39.604 -13.028   1.175  1.00  0.00     0.029 A 
ENDROOT
BRANCH   1   7
HETATM    7  C   UNL     1      39.735 -12.943   3.654  1.00  0.00     0.256 C 
HETATM    8  N   UNL     1      40.591 -14.025   3.537  1.00  0.00    -0.323 N 
HETATM    9  H   UNL     1      40.916 -14.246   2.605  1.00  0.00     0.169 HD
HETATM   10  O   UNL     1      39.290 -12.452   4.682  1.00  0.00    -0.267 OA
BRANCH   8  11
HETATM   11  C   UNL     1      41.186 -14.773   4.573  1.00  0.00     0.035 A 
HETATM   12  C   UNL     1      42.522 -14.664   4.950  1.00  0.00     0.030 A 
HETATM   13  C   UNL     1      43.042 -15.476   5.966  1.00  0.00     0.010 A 
HETATM   14  C   UNL     1      42.232 -16.414   6.620  1.00  0.00    -0.049 A 
HETATM   15  C   UNL     1      40.885 -16.507   6.255  1.00  0.00     0.010 A 
HETATM   16  C   UNL     1      40.370 -15.695   5.241  1.00  0.00     0.030 A 
BRANCH  14  17
HETATM   17  C   UNL     1      42.796 -17.288   7.711  1.00  0.00     0.149 C 
BRANCH  17  18
HETATM   18  C   UNL     1      43.819 -18.285   7.214  1.00  0.00     0.263 C 
HETATM   19  O   UNL     1      44.951 -18.442   7.651  1.00  0.00    -0.265 OA
BRANCH  18  20
HETATM   20  O   UNL     1      43.281 -19.056   6.217  1.00  0.00    -0.316 OA
BRANCH  20  21
HETATM   21  C   UNL     1      44.085 -19.166   5.029  1.00  0.00     0.135 C 
HETATM   22  C   UNL     1      44.531 -20.613   4.818  1.00  0.00     0.060 C 
HETATM   23  C   UNL     1      45.296 -20.757   3.515  1.00  0.00     0.237 C 
HETATM   24  N   UNL     1      44.475 -20.254   2.350  1.00  0.00    -0.075 N 
HETATM   25  C   UNL     1      43.394 -21.208   1.916  1.00  0.00     0.269 C 
HETATM   26  C   UNL     1      43.995 -18.836   2.543  1.00  0.00     0.237 C 
HETATM   27  H   UNL     1      45.125 -20.219   1.551  1.00  0.00     0.279 HD
HETATM   28  C   UNL     1      43.237 -18.692   3.851  1.00  0.00     0.060 C 
ENDBRANCH  20  21
ENDBRANCH  18  20
ENDBRANCH  17  18
ENDBRANCH  14  17
ENDBRANCH   8  11
ENDBRANCH   1   7
BRANCH   5  29
HETATM   29  C   UNL     1      39.152 -13.384  -1.289  1.00  0.00    -0.017 A 
HETATM   30  C   UNL     1      38.075 -13.288  -2.204  1.00  0.00     0.030 A 
HETATM   31  C   UNL     1      38.014 -14.086  -3.355  1.00  0.00     0.033 A 
HETATM   32  C   UNL     1      39.060 -14.959  -3.642  1.00  0.00     0.017 A 
HETATM   33  C   UNL     1      40.140 -15.059  -2.771  1.00  0.00     0.011 A 
HETATM   34  C   UNL     1      40.185 -14.325  -1.566  1.00  0.00    -0.020 A 
BRANCH  31  35
HETATM   35  C   UNL     1      36.819 -14.119  -4.243  1.00  0.00     0.256 C 
HETATM   36  O   UNL     1      36.161 -15.152  -4.282  1.00  0.00    -0.267 OA
HETATM   37  N   UNL     1      36.567 -12.968  -4.964  1.00  0.00    -0.320 N 
HETATM   38  H   UNL     1      37.277 -12.244  -4.973  1.00  0.00     0.169 HD
BRANCH  37  39
HETATM   39  C   UNL     1      35.452 -12.732  -5.805  1.00  0.00     0.076 A 
HETATM   40  C   UNL     1      35.397 -13.085  -7.152  1.00  0.00     0.052 A 
HETATM   41  C   UNL     1      34.238 -12.808  -7.866  1.00  0.00     0.118 A 
HETATM   42  N   UNL     1      33.146 -12.213  -7.336  1.00  0.00    -0.270 NA
HETATM   43  C   UNL     1      33.219 -11.883  -6.027  1.00  0.00     0.160 A 
HETATM   44  C   UNL     1      34.331 -12.123  -5.239  1.00  0.00     0.160 A 
HETATM   45  F   UNL     1      34.332 -11.774  -3.943  1.00  0.00    -0.202 F 
ENDBRANCH  37  39
ENDBRANCH  31  35
BRANCH  34  46
HETATM   46  C   UNL     1      41.350 -14.566  -0.621  1.00  0.00     0.306 C 
BRANCH  46  47
HETATM   47  N   UNL     1      41.682 -15.981  -0.451  1.00  0.00     0.082 N 
HETATM   48  H   UNL     1      40.949 -16.541  -0.885  1.00  0.00     0.313 HD
HETATM   49  H   UNL     1      41.669 -16.209   0.541  1.00  0.00     0.313 HD
ENDBRANCH  46  47
ENDBRANCH  34  46
ENDBRANCH   5  29
TORSDOF 11
ENDMDL
MODEL 5
REMARK VINA RESULT:      -8.2      6.745     11.029
REMARK  11 active torsions:
REMARK  status: ('A' for Active; 'I' for Inactive)
REMARK    1  A    between atoms: C_6  and  O_9 
REMARK    2  A    between atoms: O_9  and  C_10 
REMARK    3  A    between atoms: C_10  and  C_12 
REMARK    4  A    between atoms: C_12  and  C_13 
REMARK    5  A    between atoms: C_16  and  N_17 
REMARK       I    between atoms: N_17  and  C_18 
REMARK    6  A    between atoms: C_18  and  C_20 
REMARK    7  A    between atoms: C_24  and  C_26 
REMARK    8  A    between atoms: C_28  and  C_34 
REMARK    9  A    between atoms: C_31  and  C_32 
REMARK   10  A    between atoms: C_32  and  N_33 
REMARK       I    between atoms: C_34  and  N_36 
REMARK   11  A    between atoms: N_36  and  C_37 
ROOT
HETATM    1  C   UNL     1      38.655 -11.243   2.302  1.00  0.00     0.033 A 
HETATM    2  C   UNL     1      37.384 -11.132   1.732  1.00  0.00     0.017 A 
HETATM    3  C   UNL     1      36.969 -12.077   0.799  1.00  0.00     0.002 A 
HETATM    4  C   UNL     1      37.810 -13.141   0.458  1.00  0.00     0.012 A 
HETATM    5  C   UNL     1      39.104 -13.263   1.001  1.00  0.00    -0.024 A 
HETATM    6  C   UNL     1      39.529 -12.261   1.891  1.00  0.00     0.029 A 
ENDROOT
BRANCH   1   7
HETATM    7  C   UNL     1      39.075 -10.363   3.428  1.00  0.00     0.256 C 
HETATM    8  N   UNL     1      38.742 -10.867   4.674  1.00  0.00    -0.323 N 
HETATM    9  H   UNL     1      38.265 -11.759   4.688  1.00  0.00     0.169 HD
HETATM   10  O   UNL     1      39.720  -9.354   3.180  1.00  0.00    -0.267 OA
BRANCH   8  11
HETATM   11  C   UNL     1      39.113 -10.364   5.938  1.00  0.00     0.035 A 
HETATM   12  C   UNL     1      38.940  -9.041   6.335  1.00  0.00     0.030 A 
HETATM   13  C   UNL     1      39.376  -8.616   7.597  1.00  0.00     0.010 A 
HETATM   14  C   UNL     1      39.996  -9.510   8.480  1.00  0.00    -0.049 A 
HETATM   15  C   UNL     1      40.149 -10.843   8.088  1.00  0.00     0.010 A 
HETATM   16  C   UNL     1      39.713 -11.264   6.828  1.00  0.00     0.030 A 
BRANCH  14  17
HETATM   17  C   UNL     1      40.465  -9.048   9.837  1.00  0.00     0.149 C 
BRANCH  17  18
HETATM   18  C   UNL     1      39.534  -9.442  10.961  1.00  0.00     0.263 C 
HETATM   19  O   UNL     1      38.318  -9.311  10.975  1.00  0.00    -0.265 OA
BRANCH  18  20
HETATM   20  O   UNL     1      40.240 -10.039  11.973  1.00  0.00    -0.316 OA
BRANCH  20  21
HETATM   21  C   UNL     1      41.199  -9.192  12.629  1.00  0.00     0.135 C 
HETATM   22  C   UNL     1      40.507  -8.299  13.659  1.00  0.00     0.060 C 
HETATM   23  C   UNL     1      41.522  -7.472  14.427  1.00  0.00     0.237 C 
HETATM   24  N   UNL     1      42.561  -8.360  15.072  1.00  0.00    -0.075 N 
HETATM   25  C   UNL     1      42.072  -9.061  16.312  1.00  0.00     0.269 C 
HETATM   26  C   UNL     1      43.243  -9.275  14.084  1.00  0.00     0.237 C 
HETATM   27  H   UNL     1      43.296  -7.722  15.409  1.00  0.00     0.279 HD
HETATM   28  C   UNL     1      42.225 -10.095  13.311  1.00  0.00     0.060 C 
ENDBRANCH  20  21
ENDBRANCH  18  20
ENDBRANCH  17  18
ENDBRANCH  14  17
ENDBRANCH   8  11
ENDBRANCH   1   7
BRANCH   5  29
HETATM   29  C   UNL     1      39.956 -14.435   0.670  1.00  0.00    -0.017 A 
HETATM   30  C   UNL     1      40.359 -15.303   1.715  1.00  0.00     0.030 A 
HETATM   31  C   UNL     1      41.209 -16.393   1.480  1.00  0.00     0.033 A 
HETATM   32  C   UNL     1      41.630 -16.668   0.182  1.00  0.00     0.017 A 
HETATM   33  C   UNL     1      41.234 -15.844  -0.866  1.00  0.00     0.011 A 
HETATM   34  C   UNL     1      40.444 -14.696  -0.642  1.00  0.00    -0.020 A 
BRANCH  31  35
HETATM   35  C   UNL     1      41.773 -17.219   2.583  1.00  0.00     0.256 C 
HETATM   36  O   UNL     1      41.127 -17.310   3.621  1.00  0.00    -0.267 OA
HETATM   37  N   UNL     1      43.000 -17.804   2.336  1.00  0.00    -0.320 N 
HETATM   38  H   UNL     1      43.508 -17.518   1.506  1.00  0.00     0.169 HD
BRANCH  37  39
HETATM   39  C   UNL     1      43.693 -18.693   3.193  1.00  0.00     0.076 A 
HETATM   40  C   UNL     1      44.093 -18.380   4.491  1.00  0.00     0.052 A 
HETATM   41  C   UNL     1      44.758 -19.347   5.235  1.00  0.00     0.118 A 
HETATM   42  N   UNL     1      45.046 -20.586   4.780  1.00  0.00    -0.270 NA
HETATM   43  C   UNL     1      44.646 -20.870   3.520  1.00  0.00     0.160 A 
HETATM   44  C   UNL     1      43.976 -19.971   2.710  1.00  0.00     0.160 A 
HETATM   45  F   UNL     1      43.603 -20.323   1.470  1.00  0.00    -0.202 F 
ENDBRANCH  37  39
ENDBRANCH  31  35
BRANCH  34  46
HETATM   46  C   UNL     1      40.139 -13.792  -1.825  1.00  0.00     0.306 C 
BRANCH  46  47
HETATM   47  N   UNL     1      39.144 -14.347  -2.744  1.00  0.00     0.082 N 
HETATM   48  H   UNL     1      39.418 -15.299  -2.983  1.00  0.00     0.313 HD
HETATM   49  H   UNL     1      39.161 -13.816  -3.612  1.00  0.00     0.313 HD
ENDBRANCH  46  47
ENDBRANCH  34  46
ENDBRANCH   5  29
TORSDOF 11
ENDMDL
MODEL 6
REMARK VINA RESULT:      -8.2      2.641      4.218
REMARK  11 active torsions:
REMARK  status: ('A' for Active; 'I' for Inactive)
REMARK    1  A    between atoms: C_6  and  O_9 
REMARK    2  A    between atoms: O_9  and  C_10 
REMARK    3  A    between atoms: C_10  and  C_12 
REMARK    4  A    between atoms: C_12  and  C_13 
REMARK    5  A    between atoms: C_16  and  N_17 
REMARK       I    between atoms: N_17  and  C_18 
REMARK    6  A    between atoms: C_18  and  C_20 
REMARK    7  A    between atoms: C_24  and  C_26 
REMARK    8  A    between atoms: C_28  and  C_34 
REMARK    9  A    between atoms: C_31  and  C_32 
REMARK   10  A    between atoms: C_32  and  N_33 
REMARK       I    between atoms: C_34  and  N_36 
REMARK   11  A    between atoms: N_36  and  C_37 
ROOT
HETATM    1  C   UNL     1      41.486 -13.521  -0.622  1.00  0.00     0.033 A 
HETATM    2  C   UNL     1      42.497 -12.664  -1.066  1.00  0.00     0.017 A 
HETATM    3  C   UNL     1      42.189 -11.661  -1.979  1.00  0.00     0.002 A 
HETATM    4  C   UNL     1      40.873 -11.499  -2.425  1.00  0.00     0.012 A 
HETATM    5  C   UNL     1      39.841 -12.363  -2.011  1.00  0.00    -0.024 A 
HETATM    6  C   UNL     1      40.186 -13.411  -1.139  1.00  0.00     0.029 A 
ENDROOT
BRANCH   1   7
HETATM    7  C   UNL     1      41.727 -14.492   0.481  1.00  0.00     0.256 C 
HETATM    8  N   UNL     1      42.027 -15.768   0.035  1.00  0.00    -0.323 N 
HETATM    9  H   UNL     1      42.054 -15.903  -0.967  1.00  0.00     0.169 HD
HETATM   10  O   UNL     1      41.722 -14.088   1.636  1.00  0.00    -0.267 OA
BRANCH   8  11
HETATM   11  C   UNL     1      42.443 -16.877   0.801  1.00  0.00     0.035 A 
HETATM   12  C   UNL     1      41.578 -17.719   1.494  1.00  0.00     0.030 A 
HETATM   13  C   UNL     1      42.081 -18.775   2.265  1.00  0.00     0.010 A 
HETATM   14  C   UNL     1      43.461 -19.002   2.357  1.00  0.00    -0.049 A 
HETATM   15  C   UNL     1      44.327 -18.169   1.642  1.00  0.00     0.010 A 
HETATM   16  C   UNL     1      43.821 -17.116   0.873  1.00  0.00     0.030 A 
BRANCH  14  17
HETATM   17  C   UNL     1      43.998 -20.139   3.189  1.00  0.00     0.149 C 
BRANCH  17  18
HETATM   18  C   UNL     1      44.260 -19.757   4.629  1.00  0.00     0.263 C 
HETATM   19  O   UNL     1      44.234 -20.507   5.595  1.00  0.00    -0.265 OA
BRANCH  18  20
HETATM   20  O   UNL     1      44.598 -18.431   4.712  1.00  0.00    -0.316 OA
BRANCH  20  21
HETATM   21  C   UNL     1      43.770 -17.644   5.586  1.00  0.00     0.135 C 
HETATM   22  C   UNL     1      44.474 -17.412   6.923  1.00  0.00     0.060 C 
HETATM   23  C   UNL     1      43.652 -16.500   7.815  1.00  0.00     0.237 C 
HETATM   24  N   UNL     1      43.347 -15.195   7.116  1.00  0.00    -0.075 N 
HETATM   25  C   UNL     1      44.512 -14.242   7.076  1.00  0.00     0.269 C 
HETATM   26  C   UNL     1      42.677 -15.393   5.778  1.00  0.00     0.237 C 
HETATM   27  H   UNL     1      42.648 -14.724   7.707  1.00  0.00     0.279 HD
HETATM   28  C   UNL     1      43.496 -16.312   4.890  1.00  0.00     0.060 C 
ENDBRANCH  20  21
ENDBRANCH  18  20
ENDBRANCH  17  18
ENDBRANCH  14  17
ENDBRANCH   8  11
ENDBRANCH   1   7
BRANCH   5  29
HETATM   29  C   UNL     1      38.440 -12.134  -2.451  1.00  0.00    -0.017 A 
HETATM   30  C   UNL     1      37.892 -12.974  -3.451  1.00  0.00     0.030 A 
HETATM   31  C   UNL     1      36.597 -12.776  -3.951  1.00  0.00     0.033 A 
HETATM   32  C   UNL     1      35.804 -11.762  -3.421  1.00  0.00     0.017 A 
HETATM   33  C   UNL     1      36.310 -10.934  -2.424  1.00  0.00     0.011 A 
HETATM   34  C   UNL     1      37.637 -11.064  -1.961  1.00  0.00    -0.020 A 
BRANCH  31  35
HETATM   35  C   UNL     1      36.062 -13.541  -5.110  1.00  0.00     0.256 C 
HETATM   36  O   UNL     1      35.882 -14.745  -4.970  1.00  0.00    -0.267 OA
HETATM   37  N   UNL     1      35.829 -12.814  -6.262  1.00  0.00    -0.320 N 
HETATM   38  H   UNL     1      36.175 -11.862  -6.305  1.00  0.00     0.169 HD
BRANCH  37  39
HETATM   39  C   UNL     1      35.249 -13.301  -7.459  1.00  0.00     0.076 A 
HETATM   40  C   UNL     1      35.848 -14.242  -8.294  1.00  0.00     0.052 A 
HETATM   41  C   UNL     1      35.168 -14.647  -9.437  1.00  0.00     0.118 A 
HETATM   42  N   UNL     1      33.949 -14.185  -9.796  1.00  0.00    -0.270 NA
HETATM   43  C   UNL     1      33.385 -13.276  -8.969  1.00  0.00     0.160 A 
HETATM   44  C   UNL     1      33.988 -12.818  -7.811  1.00  0.00     0.160 A 
HETATM   45  F   UNL     1      33.366 -11.919  -7.033  1.00  0.00    -0.202 F 
ENDBRANCH  37  39
ENDBRANCH  31  35
BRANCH  34  46
HETATM   46  C   UNL     1      38.146 -10.056  -0.944  1.00  0.00     0.306 C 
BRANCH  46  47
HETATM   47  N   UNL     1      37.328  -9.986   0.268  1.00  0.00     0.082 N 
HETATM   48  H   UNL     1      36.355 -10.149   0.014  1.00  0.00     0.313 HD
HETATM   49  H   UNL     1      37.373  -9.041   0.644  1.00  0.00     0.313 HD
ENDBRANCH  46  47
ENDBRANCH  34  46
ENDBRANCH   5  29
TORSDOF 11
ENDMDL
MODEL 7
REMARK VINA RESULT:      -8.0      4.104      5.667
REMARK  11 active torsions:
REMARK  status: ('A' for Active; 'I' for Inactive)
REMARK    1  A    between atoms: C_6  and  O_9 
REMARK    2  A    between atoms: O_9  and  C_10 
REMARK    3  A    between atoms: C_10  and  C_12 
REMARK    4  A    between atoms: C_12  and  C_13 
REMARK    5  A    between atoms: C_16  and  N_17 
REMARK       I    between atoms: N_17  and  C_18 
REMARK    6  A    between atoms: C_18  and  C_20 
REMARK    7  A    between atoms: C_24  and  C_26 
REMARK    8  A    between atoms: C_28  and  C_34 
REMARK    9  A    between atoms: C_31  and  C_32 
REMARK   10  A    between atoms: C_32  and  N_33 
REMARK       I    between atoms: C_34  and  N_36 
REMARK   11  A    between atoms: N_36  and  C_37 
ROOT
HETATM    1  C   UNL     1      40.295 -13.963   0.275  1.00  0.00     0.033 A 
HETATM    2  C   UNL     1      40.814 -13.706  -0.997  1.00  0.00     0.017 A 
HETATM    3  C   UNL     1      40.684 -12.433  -1.544  1.00  0.00     0.002 A 
HETATM    4  C   UNL     1      40.063 -11.416  -0.812  1.00  0.00     0.012 A 
HETATM    5  C   UNL     1      39.511 -11.655   0.462  1.00  0.00    -0.024 A 
HETATM    6  C   UNL     1      39.594 -12.964   0.968  1.00  0.00     0.029 A 
ENDROOT
BRANCH   1   7
HETATM    7  C   UNL     1      40.562 -15.251   0.971  1.00  0.00     0.256 C 
HETATM    8  N   UNL     1      41.727 -15.872   0.553  1.00  0.00    -0.323 N 
HETATM    9  H   UNL     1      42.263 -15.395  -0.160  1.00  0.00     0.169 HD
HETATM   10  O   UNL     1      39.811 -15.603   1.871  1.00  0.00    -0.267 OA
BRANCH   8  11
HETATM   11  C   UNL     1      42.340 -17.018   1.099  1.00  0.00     0.035 A 
HETATM   12  C   UNL     1      41.646 -18.135   1.557  1.00  0.00     0.030 A 
HETATM   13  C   UNL     1      42.333 -19.216   2.124  1.00  0.00     0.010 A 
HETATM   14  C   UNL     1      43.729 -19.193   2.245  1.00  0.00    -0.049 A 
HETATM   15  C   UNL     1      44.427 -18.080   1.766  1.00  0.00     0.010 A 
HETATM   16  C   UNL     1      43.737 -17.004   1.200  1.00  0.00     0.030 A 
BRANCH  14  17
HETATM   17  C   UNL     1      44.465 -20.358   2.858  1.00  0.00     0.149 C 
BRANCH  17  18
HETATM   18  C   UNL     1      44.609 -20.254   4.360  1.00  0.00     0.263 C 
HETATM   19  O   UNL     1      44.576 -21.180   5.158  1.00  0.00    -0.265 OA
BRANCH  18  20
HETATM   20  O   UNL     1      44.847 -18.954   4.723  1.00  0.00    -0.316 OA
BRANCH  20  21
HETATM   21  C   UNL     1      43.931 -18.413   5.692  1.00  0.00     0.135 C 
HETATM   22  C   UNL     1      44.659 -18.102   6.999  1.00  0.00     0.060 C 
HETATM   23  C   UNL     1      43.722 -17.440   7.994  1.00  0.00     0.237 C 
HETATM   24  N   UNL     1      43.096 -16.199   7.399  1.00  0.00    -0.075 N 
HETATM   25  C   UNL     1      44.023 -15.013   7.358  1.00  0.00     0.269 C 
HETATM   26  C   UNL     1      42.394 -16.469   6.091  1.00  0.00     0.237 C 
HETATM   27  H   UNL     1      42.354 -15.924   8.059  1.00  0.00     0.279 HD
HETATM   28  C   UNL     1      43.329 -17.140   5.100  1.00  0.00     0.060 C 
ENDBRANCH  20  21
ENDBRANCH  18  20
ENDBRANCH  17  18
ENDBRANCH  14  17
ENDBRANCH   8  11
ENDBRANCH   1   7
BRANCH   5  29
HETATM   29  C   UNL     1      38.910 -10.544   1.246  1.00  0.00    -0.017 A 
HETATM   30  C   UNL     1      37.511 -10.543   1.466  1.00  0.00     0.030 A 
HETATM   31  C   UNL     1      36.873  -9.496   2.147  1.00  0.00     0.033 A 
HETATM   32  C   UNL     1      37.634  -8.453   2.669  1.00  0.00     0.017 A 
HETATM   33  C   UNL     1      39.012  -8.438   2.484  1.00  0.00     0.011 A 
HETATM   34  C   UNL     1      39.666  -9.440   1.735  1.00  0.00    -0.020 A 
BRANCH  31  35
HETATM   35  C   UNL     1      35.392  -9.393   2.249  1.00  0.00     0.256 C 
HETATM   36  O   UNL     1      34.920  -8.398   2.787  1.00  0.00    -0.267 OA
HETATM   37  N   UNL     1      34.673 -10.454   1.733  1.00  0.00    -0.320 N 
HETATM   38  H   UNL     1      35.181 -11.292   1.467  1.00  0.00     0.169 HD
BRANCH  37  39
HETATM   39  C   UNL     1      33.263 -10.547   1.640  1.00  0.00     0.076 A 
HETATM   40  C   UNL     1      32.425 -10.845   2.713  1.00  0.00     0.052 A 
HETATM   41  C   UNL     1      31.054 -10.895   2.493  1.00  0.00     0.118 A 
HETATM   42  N   UNL     1      30.471 -10.672   1.293  1.00  0.00    -0.270 NA
HETATM   43  C   UNL     1      31.303 -10.381   0.268  1.00  0.00     0.160 A 
HETATM   44  C   UNL     1      32.678 -10.307   0.397  1.00  0.00     0.160 A 
HETATM   45  F   UNL     1      33.443 -10.007  -0.664  1.00  0.00    -0.202 F 
ENDBRANCH  37  39
ENDBRANCH  31  35
BRANCH  34  46
HETATM   46  C   UNL     1      41.159  -9.298   1.493  1.00  0.00     0.306 C 
BRANCH  46  47
HETATM   47  N   UNL     1      41.774  -8.207   2.253  1.00  0.00     0.082 N 
HETATM   48  H   UNL     1      41.725  -8.435   3.245  1.00  0.00     0.313 HD
HETATM   49  H   UNL     1      41.222  -7.362   2.125  1.00  0.00     0.313 HD
ENDBRANCH  46  47
ENDBRANCH  34  46
ENDBRANCH   5  29
TORSDOF 11
ENDMDL
MODEL 8
REMARK VINA RESULT:      -8.0      4.613     12.618
REMARK  11 active torsions:
REMARK  status: ('A' for Active; 'I' for Inactive)
REMARK    1  A    between atoms: C_6  and  O_9 
REMARK    2  A    between atoms: O_9  and  C_10 
REMARK    3  A    between atoms: C_10  and  C_12 
REMARK    4  A    between atoms: C_12  and  C_13 
REMARK    5  A    between atoms: C_16  and  N_17 
REMARK       I    between atoms: N_17  and  C_18 
REMARK    6  A    between atoms: C_18  and  C_20 
REMARK    7  A    between atoms: C_24  and  C_26 
REMARK    8  A    between atoms: C_28  and  C_34 
REMARK    9  A    between atoms: C_31  and  C_32 
REMARK   10  A    between atoms: C_32  and  N_33 
REMARK       I    between atoms: C_34  and  N_36 
REMARK   11  A    between atoms: N_36  and  C_37 
ROOT
HETATM    1  C   UNL     1      41.633 -15.739   0.689  1.00  0.00     0.033 A 
HETATM    2  C   UNL     1      41.103 -16.956   0.253  1.00  0.00     0.017 A 
HETATM    3  C   UNL     1      41.254 -18.090   1.044  1.00  0.00     0.002 A 
HETATM    4  C   UNL     1      41.909 -18.002   2.277  1.00  0.00     0.012 A 
HETATM    5  C   UNL     1      42.472 -16.793   2.729  1.00  0.00    -0.024 A 
HETATM    6  C   UNL     1      42.366 -15.674   1.885  1.00  0.00     0.029 A 
ENDROOT
BRANCH   1   7
HETATM    7  C   UNL     1      41.346 -14.469  -0.033  1.00  0.00     0.256 C 
HETATM    8  N   UNL     1      42.429 -13.988  -0.751  1.00  0.00    -0.323 N 
HETATM    9  H   UNL     1      43.276 -14.539  -0.715  1.00  0.00     0.169 HD
HETATM   10  O   UNL     1      40.211 -14.015  -0.003  1.00  0.00    -0.267 OA
BRANCH   8  11
HETATM   11  C   UNL     1      42.456 -12.901  -1.649  1.00  0.00     0.035 A 
HETATM   12  C   UNL     1      42.714 -11.584  -1.277  1.00  0.00     0.030 A 
HETATM   13  C   UNL     1      42.682 -10.558  -2.230  1.00  0.00     0.010 A 
HETATM   14  C   UNL     1      42.387 -10.834  -3.572  1.00  0.00    -0.049 A 
HETATM   15  C   UNL     1      42.150 -12.160  -3.948  1.00  0.00     0.010 A 
HETATM   16  C   UNL     1      42.183 -13.182  -2.994  1.00  0.00     0.030 A 
BRANCH  14  17
HETATM   17  C   UNL     1      42.352  -9.725  -4.593  1.00  0.00     0.149 C 
BRANCH  17  18
HETATM   18  C   UNL     1      41.055  -9.666  -5.369  1.00  0.00     0.263 C 
HETATM   19  O   UNL     1      40.928  -9.785  -6.580  1.00  0.00    -0.265 OA
BRANCH  18  20
HETATM   20  O   UNL     1      39.997  -9.514  -4.511  1.00  0.00    -0.316 OA
BRANCH  20  21
HETATM   21  C   UNL     1      38.872 -10.371  -4.770  1.00  0.00     0.135 C 
HETATM   22  C   UNL     1      38.665 -11.346  -3.611  1.00  0.00     0.060 C 
HETATM   23  C   UNL     1      37.421 -12.188  -3.830  1.00  0.00     0.237 C 
HETATM   24  N   UNL     1      36.208 -11.312  -4.041  1.00  0.00    -0.075 N 
HETATM   25  C   UNL     1      35.673 -10.704  -2.771  1.00  0.00     0.269 C 
HETATM   26  C   UNL     1      36.393 -10.318  -5.161  1.00  0.00     0.237 C 
HETATM   27  H   UNL     1      35.462 -11.948  -4.357  1.00  0.00     0.279 HD
HETATM   28  C   UNL     1      37.643  -9.482  -4.945  1.00  0.00     0.060 C 
ENDBRANCH  20  21
ENDBRANCH  18  20
ENDBRANCH  17  18
ENDBRANCH  14  17
ENDBRANCH   8  11
ENDBRANCH   1   7
BRANCH   5  29
HETATM   29  C   UNL     1      43.109 -16.710   4.070  1.00  0.00    -0.017 A 
HETATM   30  C   UNL     1      43.091 -15.472   4.759  1.00  0.00     0.030 A 
HETATM   31  C   UNL     1      43.722 -15.312   6.001  1.00  0.00     0.033 A 
HETATM   32  C   UNL     1      44.341 -16.404   6.603  1.00  0.00     0.017 A 
HETATM   33  C   UNL     1      44.358 -17.636   5.957  1.00  0.00     0.011 A 
HETATM   34  C   UNL     1      43.798 -17.802   4.672  1.00  0.00    -0.020 A 
BRANCH  31  35
HETATM   35  C   UNL     1      43.855 -13.986   6.664  1.00  0.00     0.256 C 
HETATM   36  O   UNL     1      43.104 -13.086   6.305  1.00  0.00    -0.267 OA
HETATM   37  N   UNL     1      44.838 -13.886   7.630  1.00  0.00    -0.320 N 
HETATM   38  H   UNL     1      45.501 -14.648   7.718  1.00  0.00     0.169 HD
BRANCH  37  39
HETATM   39  C   UNL     1      45.097 -12.761   8.451  1.00  0.00     0.076 A 
HETATM   40  C   UNL     1      44.240 -12.306   9.451  1.00  0.00     0.052 A 
HETATM   41  C   UNL     1      44.617 -11.195  10.196  1.00  0.00     0.118 A 
HETATM   42  N   UNL     1      45.773 -10.519  10.014  1.00  0.00    -0.270 NA
HETATM   43  C   UNL     1      46.591 -10.980   9.042  1.00  0.00     0.160 A 
HETATM   44  C   UNL     1      46.298 -12.079   8.254  1.00  0.00     0.160 A 
HETATM   45  F   UNL     1      47.161 -12.486   7.310  1.00  0.00    -0.202 F 
ENDBRANCH  37  39
ENDBRANCH  31  35
BRANCH  34  46
HETATM   46  C   UNL     1      43.946 -19.152   3.992  1.00  0.00     0.306 C 
BRANCH  46  47
HETATM   47  N   UNL     1      44.762 -20.102   4.750  1.00  0.00     0.082 N 
HETATM   48  H   UNL     1      44.536 -20.007   5.739  1.00  0.00     0.313 HD
HETATM   49  H   UNL     1      45.743 -19.848   4.653  1.00  0.00     0.313 HD
ENDBRANCH  46  47
ENDBRANCH  34  46
ENDBRANCH   5  29
TORSDOF 11
ENDMDL
MODEL 9
REMARK VINA RESULT:      -8.0      2.075      3.297
REMARK  11 active torsions:
REMARK  status: ('A' for Active; 'I' for Inactive)
REMARK    1  A    between atoms: C_6  and  O_9 
REMARK    2  A    between atoms: O_9  and  C_10 
REMARK    3  A    between atoms: C_10  and  C_12 
REMARK    4  A    between atoms: C_12  and  C_13 
REMARK    5  A    between atoms: C_16  and  N_17 
REMARK       I    between atoms: N_17  and  C_18 
REMARK    6  A    between atoms: C_18  and  C_20 
REMARK    7  A    between atoms: C_24  and  C_26 
REMARK    8  A    between atoms: C_28  and  C_34 
REMARK    9  A    between atoms: C_31  and  C_32 
REMARK   10  A    between atoms: C_32  and  N_33 
REMARK       I    between atoms: C_34  and  N_36 
REMARK   11  A    between atoms: N_36  and  C_37 
ROOT
HETATM    1  C   UNL     1      41.529 -13.679  -0.572  1.00  0.00     0.033 A 
HETATM    2  C   UNL     1      42.189 -12.456  -0.716  1.00  0.00     0.017 A 
HETATM    3  C   UNL     1      41.731 -11.538  -1.655  1.00  0.00     0.002 A 
HETATM    4  C   UNL     1      40.602 -11.830  -2.427  1.00  0.00     0.012 A 
HETATM    5  C   UNL     1      39.932 -13.065  -2.318  1.00  0.00    -0.024 A 
HETATM    6  C   UNL     1      40.452 -14.004  -1.410  1.00  0.00     0.029 A 
ENDROOT
BRANCH   1   7
HETATM    7  C   UNL     1      41.872 -14.615   0.534  1.00  0.00     0.256 C 
HETATM    8  N   UNL     1      42.041 -15.924   0.113  1.00  0.00    -0.323 N 
HETATM    9  H   UNL     1      41.922 -16.101  -0.875  1.00  0.00     0.169 HD
HETATM   10  O   UNL     1      42.049 -14.165   1.657  1.00  0.00    -0.267 OA
BRANCH   8  11
HETATM   11  C   UNL     1      42.503 -17.022   0.868  1.00  0.00     0.035 A 
HETATM   12  C   UNL     1      41.675 -17.901   1.560  1.00  0.00     0.030 A 
HETATM   13  C   UNL     1      42.221 -18.943   2.320  1.00  0.00     0.010 A 
HETATM   14  C   UNL     1      43.609 -19.119   2.402  1.00  0.00    -0.049 A 
HETATM   15  C   UNL     1      44.439 -18.248   1.689  1.00  0.00     0.010 A 
HETATM   16  C   UNL     1      43.890 -17.210   0.931  1.00  0.00     0.030 A 
BRANCH  14  17
HETATM   17  C   UNL     1      44.194 -20.241   3.222  1.00  0.00     0.149 C 
BRANCH  17  18
HETATM   18  C   UNL     1      44.327 -19.904   4.691  1.00  0.00     0.263 C 
HETATM   19  O   UNL     1      44.202 -20.681   5.627  1.00  0.00    -0.265 OA
BRANCH  18  20
HETATM   20  O   UNL     1      44.674 -18.587   4.843  1.00  0.00    -0.316 OA
BRANCH  20  21
HETATM   21  C   UNL     1      43.792 -17.816   5.677  1.00  0.00     0.135 C 
HETATM   22  C   UNL     1      44.440 -17.545   7.034  1.00  0.00     0.060 C 
HETATM   23  C   UNL     1      43.558 -16.648   7.884  1.00  0.00     0.237 C 
HETATM   24  N   UNL     1      43.236 -15.363   7.157  1.00  0.00    -0.075 N 
HETATM   25  C   UNL     1      44.372 -14.374   7.145  1.00  0.00     0.269 C 
HETATM   26  C   UNL     1      42.621 -15.599   5.799  1.00  0.00     0.237 C 
HETATM   27  H   UNL     1      42.502 -14.907   7.717  1.00  0.00     0.279 HD
HETATM   28  C   UNL     1      43.501 -16.503   4.953  1.00  0.00     0.060 C 
ENDBRANCH  20  21
ENDBRANCH  18  20
ENDBRANCH  17  18
ENDBRANCH  14  17
ENDBRANCH   8  11
ENDBRANCH   1   7
BRANCH   5  29
HETATM   29  C   UNL     1      38.699 -13.329  -3.105  1.00  0.00    -0.017 A 
HETATM   30  C   UNL     1      37.706 -12.320  -3.177  1.00  0.00     0.030 A 
HETATM   31  C   UNL     1      36.496 -12.525  -3.854  1.00  0.00     0.033 A 
HETATM   32  C   UNL     1      36.277 -13.728  -4.519  1.00  0.00     0.017 A 
HETATM   33  C   UNL     1      37.243 -14.729  -4.481  1.00  0.00     0.011 A 
HETATM   34  C   UNL     1      38.434 -14.575  -3.740  1.00  0.00    -0.020 A 
BRANCH  31  35
HETATM   35  C   UNL     1      35.377 -11.544  -3.807  1.00  0.00     0.256 C 
HETATM   36  O   UNL     1      34.563 -11.645  -2.897  1.00  0.00    -0.267 OA
HETATM   37  N   UNL     1      35.351 -10.604  -4.819  1.00  0.00    -0.320 N 
HETATM   38  H   UNL     1      35.982 -10.729  -5.604  1.00  0.00     0.169 HD
BRANCH  37  39
HETATM   39  C   UNL     1      34.440  -9.526  -4.941  1.00  0.00     0.076 A 
HETATM   40  C   UNL     1      34.659  -8.253  -4.418  1.00  0.00     0.052 A 
HETATM   41  C   UNL     1      33.690  -7.277  -4.616  1.00  0.00     0.118 A 
HETATM   42  N   UNL     1      32.536  -7.481  -5.290  1.00  0.00    -0.270 NA
HETATM   43  C   UNL     1      32.347  -8.722  -5.792  1.00  0.00     0.160 A 
HETATM   44  C   UNL     1      33.258  -9.753  -5.646  1.00  0.00     0.160 A 
HETATM   45  F   UNL     1      33.007 -10.960  -6.177  1.00  0.00    -0.202 F 
ENDBRANCH  37  39
ENDBRANCH  31  35
BRANCH  34  46
HETATM   46  C   UNL     1      39.391 -15.753  -3.666  1.00  0.00     0.306 C 
BRANCH  46  47
HETATM   47  N   UNL     1      38.719 -17.053  -3.662  1.00  0.00     0.082 N 
HETATM   48  H   UNL     1      38.899 -17.509  -2.768  1.00  0.00     0.313 HD
HETATM   49  H   UNL     1      39.139 -17.646  -4.376  1.00  0.00     0.313 HD
ENDBRANCH  46  47
ENDBRANCH  34  46
ENDBRANCH   5  29
TORSDOF 11
ENDMDL
MODEL 10
REMARK VINA RESULT:      -7.9      2.253      3.102
REMARK  11 active torsions:
REMARK  status: ('A' for Active; 'I' for Inactive)
REMARK    1  A    between atoms: C_6  and  O_9 
REMARK    2  A    between atoms: O_9  and  C_10 
REMARK    3  A    between atoms: C_10  and  C_12 
REMARK    4  A    between atoms: C_12  and  C_13 
REMARK    5  A    between atoms: C_16  and  N_17 
REMARK       I    between atoms: N_17  and  C_18 
REMARK    6  A    between atoms: C_18  and  C_20 
REMARK    7  A    between atoms: C_24  and  C_26 
REMARK    8  A    between atoms: C_28  and  C_34 
REMARK    9  A    between atoms: C_31  and  C_32 
REMARK   10  A    between atoms: C_32  and  N_33 
REMARK       I    between atoms: C_34  and  N_36 
REMARK   11  A    between atoms: N_36  and  C_37 
ROOT
HETATM    1  C   UNL     1      40.975 -14.193  -1.670  1.00  0.00     0.033 A 
HETATM    2  C   UNL     1      41.972 -13.758  -2.548  1.00  0.00     0.017 A 
HETATM    3  C   UNL     1      41.643 -12.877  -3.573  1.00  0.00     0.002 A 
HETATM    4  C   UNL     1      40.330 -12.412  -3.703  1.00  0.00     0.012 A 
HETATM    5  C   UNL     1      39.303 -12.853  -2.846  1.00  0.00    -0.024 A 
HETATM    6  C   UNL     1      39.643 -13.794  -1.859  1.00  0.00     0.029 A 
ENDROOT
BRANCH   1   7
HETATM    7  C   UNL     1      41.308 -14.993  -0.460  1.00  0.00     0.256 C 
HETATM    8  N   UNL     1      41.435 -14.227   0.688  1.00  0.00    -0.323 N 
HETATM    9  H   UNL     1      41.287 -13.232   0.586  1.00  0.00     0.169 HD
HETATM   10  O   UNL     1      41.361 -16.211  -0.552  1.00  0.00    -0.267 OA
BRANCH   8  11
HETATM   11  C   UNL     1      41.601 -14.678   2.014  1.00  0.00     0.035 A 
HETATM   12  C   UNL     1      40.596 -15.274   2.770  1.00  0.00     0.030 A 
HETATM   13  C   UNL     1      40.837 -15.656   4.096  1.00  0.00     0.010 A 
HETATM   14  C   UNL     1      42.089 -15.442   4.688  1.00  0.00    -0.049 A 
HETATM   15  C   UNL     1      43.104 -14.863   3.920  1.00  0.00     0.010 A 
HETATM   16  C   UNL     1      42.860 -14.484   2.596  1.00  0.00     0.030 A 
BRANCH  14  17
HETATM   17  C   UNL     1      42.343 -15.853   6.116  1.00  0.00     0.149 C 
BRANCH  17  18
HETATM   18  C   UNL     1      43.366 -16.959   6.250  1.00  0.00     0.263 C 
HETATM   19  O   UNL     1      44.389 -16.924   6.920  1.00  0.00    -0.265 OA
BRANCH  18  20
HETATM   20  O   UNL     1      42.960 -18.064   5.549  1.00  0.00    -0.316 OA
BRANCH  20  21
HETATM   21  C   UNL     1      43.914 -18.566   4.596  1.00  0.00     0.135 C 
HETATM   22  C   UNL     1      44.327 -19.993   4.954  1.00  0.00     0.060 C 
HETATM   23  C   UNL     1      45.256 -20.567   3.899  1.00  0.00     0.237 C 
HETATM   24  N   UNL     1      44.622 -20.500   2.529  1.00  0.00    -0.075 N 
HETATM   25  C   UNL     1      43.573 -21.556   2.296  1.00  0.00     0.269 C 
HETATM   26  C   UNL     1      44.176 -19.107   2.159  1.00  0.00     0.237 C 
HETATM   27  H   UNL     1      45.375 -20.734   1.867  1.00  0.00     0.279 HD
HETATM   28  C   UNL     1      43.254 -18.531   3.219  1.00  0.00     0.060 C 
ENDBRANCH  20  21
ENDBRANCH  18  20
ENDBRANCH  17  18
ENDBRANCH  14  17
ENDBRANCH   8  11
ENDBRANCH   1   7
BRANCH   5  29
HETATM   29  C   UNL     1      37.928 -12.298  -2.966  1.00  0.00    -0.017 A 
HETATM   30  C   UNL     1      37.021 -12.912  -3.864  1.00  0.00     0.030 A 
HETATM   31  C   UNL     1      35.729 -12.405  -4.067  1.00  0.00     0.033 A 
HETATM   32  C   UNL     1      35.302 -11.301  -3.333  1.00  0.00     0.017 A 
HETATM   33  C   UNL     1      36.166 -10.691  -2.430  1.00  0.00     0.011 A 
HETATM   34  C   UNL     1      37.496 -11.135  -2.267  1.00  0.00    -0.020 A 
BRANCH  31  35
HETATM   35  C   UNL     1      34.819 -12.933  -5.120  1.00  0.00     0.256 C 
HETATM   36  O   UNL     1      33.938 -13.713  -4.778  1.00  0.00    -0.267 OA
HETATM   37  N   UNL     1      35.065 -12.500  -6.408  1.00  0.00    -0.320 N 
HETATM   38  H   UNL     1      35.924 -11.989  -6.586  1.00  0.00     0.169 HD
BRANCH  37  39
HETATM   39  C   UNL     1      34.290 -12.797  -7.556  1.00  0.00     0.076 A 
HETATM   40  C   UNL     1      33.151 -12.090  -7.937  1.00  0.00     0.052 A 
HETATM   41  C   UNL     1      32.485 -12.474  -9.095  1.00  0.00     0.118 A 
HETATM   42  N   UNL     1      32.872 -13.500  -9.885  1.00  0.00    -0.270 NA
HETATM   43  C   UNL     1      33.982 -14.169  -9.499  1.00  0.00     0.160 A 
HETATM   44  C   UNL     1      34.708 -13.854  -8.364  1.00  0.00     0.160 A 
HETATM   45  F   UNL     1      35.805 -14.558  -8.045  1.00  0.00    -0.202 F 
ENDBRANCH  37  39
ENDBRANCH  31  35
BRANCH  34  46
HETATM   46  C   UNL     1      38.407 -10.352  -1.337  1.00  0.00     0.306 C 
BRANCH  46  47
HETATM   47  N   UNL     1      37.685  -9.474  -0.414  1.00  0.00     0.082 N 
HETATM   48  H   UNL     1      36.798  -9.212  -0.842  1.00  0.00     0.313 HD
HETATM   49  H   UNL     1      38.213  -8.612  -0.294  1.00  0.00     0.313 HD
ENDBRANCH  46  47
ENDBRANCH  34  46
ENDBRANCH   5  29
TORSDOF 11
ENDMDL
