MODEL 1
REMARK VINA RESULT:      -8.9      0.000      0.000
REMARK  11 active torsions:
REMARK  status: ('A' for Active; 'I' for Inactive)
REMARK    1  A    between atoms: C_3  and  C_4 
REMARK    2  A    between atoms: C_4  and  O_5 
REMARK    3  A    between atoms: C_12  and  C_13 
REMARK    4  A    between atoms: C_13  and  C_14 
REMARK    5  A    between atoms: C_15  and  C_16 
REMARK    6  A    between atoms: C_18  and  N_19 
REMARK    7  A    between atoms: N_25  and  C_26 
REMARK    8  A    between atoms: C_26  and  C_27 
REMARK    9  A    between atoms: C_27  and  C_28 
REMARK   10  A    between atoms: C_28  and  N_29 
REMARK   11  A    between atoms: C_38  and  O_39 
ROOT
HETATM    1  C   UNL     1      41.631 -15.473   4.492  1.00  0.00     0.059 A 
HETATM    2  C   UNL     1      43.049 -15.657   4.987  1.00  0.00     0.161 A 
HETATM    3  N   UNL     1      43.236 -14.444   5.765  1.00  0.00    -0.333 N 
HETATM    4  C   UNL     1      42.106 -13.657   5.764  1.00  0.00     0.278 A 
HETATM    5  O   UNL     1      42.040 -12.525   6.219  1.00  0.00    -0.265 OA
HETATM    6  C   UNL     1      41.082 -14.326   4.927  1.00  0.00     0.146 A 
ENDROOT
BRANCH   1   7
HETATM    7  C   UNL     1      41.170 -16.466   3.493  1.00  0.00     0.196 C 
HETATM    8  O   UNL     1      40.738 -17.547   3.881  1.00  0.00    -0.287 OA
BRANCH   7   9
HETATM    9  C   UNL     1      41.373 -16.164   2.082  1.00  0.00     0.045 A 
HETATM   10  C   UNL     1      40.441 -15.455   1.238  1.00  0.00    -0.013 A 
HETATM   11  C   UNL     1      39.108 -14.929   1.665  1.00  0.00     0.052 C 
HETATM   12  C   UNL     1      41.017 -15.336  -0.023  1.00  0.00     0.115 A 
HETATM   13  N   UNL     1      42.251 -15.945   0.044  1.00  0.00    -0.354 N 
HETATM   14  H   UNL     1      42.895 -15.973  -0.740  1.00  0.00     0.166 HD
HETATM   15  C   UNL     1      42.500 -16.417   1.308  1.00  0.00     0.020 A 
HETATM   16  C   UNL     1      43.824 -17.023   1.621  1.00  0.00     0.069 C 
BRANCH  12  17
HETATM   17  C   UNL     1      40.580 -14.716  -1.258  1.00  0.00     0.310 C 
HETATM   18  O   UNL     1      40.134 -13.578  -1.323  1.00  0.00    -0.258 OA
BRANCH  17  19
HETATM   19  O   UNL     1      40.733 -15.560  -2.311  1.00  0.00    -0.321 OA
HETATM   20  C   UNL     1      41.093 -14.913  -3.531  1.00  0.00     0.213 C 
ENDBRANCH  17  19
ENDBRANCH  12  17
ENDBRANCH   7   9
ENDBRANCH   1   7
BRANCH   2  21
HETATM   21  C   UNL     1      43.331 -16.906   5.804  1.00  0.00    -0.028 A 
HETATM   22  C   UNL     1      43.796 -18.099   5.228  1.00  0.00     0.045 A 
HETATM   23  C   UNL     1      44.105 -19.207   6.036  1.00  0.00     0.103 A 
HETATM   24  C   UNL     1      43.899 -19.163   7.418  1.00  0.00     0.036 A 
HETATM   25  C   UNL     1      43.396 -17.998   7.993  1.00  0.00     0.003 A 
HETATM   26  C   UNL     1      43.125 -16.880   7.196  1.00  0.00     0.010 A 
BRANCH  23  27
HETATM   27  N   UNL     1      44.677 -20.413   5.422  1.00  0.00    -0.116 N 
HETATM   28  O   UNL     1      45.403 -20.257   4.430  1.00  0.00    -0.532 OA
HETATM   29  O   UNL     1      44.401 -21.507   5.932  1.00  0.00    -0.532 OA
ENDBRANCH  23  27
ENDBRANCH   2  21
BRANCH   6  30
HETATM   30  O   UNL     1      39.927 -13.686   4.596  1.00  0.00    -0.355 OA
HETATM   31  H   UNL     1      39.220 -13.885   5.234  1.00  0.00     0.218 HD
ENDBRANCH   6  30
BRANCH   3  32
HETATM   32  C   UNL     1      44.536 -13.937   6.171  1.00  0.00     0.129 C 
BRANCH  32  33
HETATM   33  C   UNL     1      44.768 -13.949   7.689  1.00  0.00     0.048 C 
BRANCH  33  34
HETATM   34  C   UNL     1      44.997 -12.601   8.384  1.00  0.00     0.236 C 
BRANCH  34  35
HETATM   35  N   UNL     1      44.016 -12.297   9.481  1.00  0.00    -0.067 N 
HETATM   36  H   UNL     1      43.277 -13.031   9.461  1.00  0.00     0.280 HD
HETATM   37  C   UNL     1      44.613 -12.234  10.874  1.00  0.00     0.261 C 
HETATM   38  C   UNL     1      43.517 -11.926  11.901  1.00  0.00     0.195 C 
HETATM   39  O   UNL     1      42.836 -10.708  11.580  1.00  0.00    -0.388 OA
HETATM   40  C   UNL     1      42.193 -10.792  10.302  1.00  0.00     0.195 C 
HETATM   41  C   UNL     1      43.227 -11.015   9.193  1.00  0.00     0.261 C 
ENDBRANCH  34  35
ENDBRANCH  33  34
ENDBRANCH  32  33
ENDBRANCH   3  32
TORSDOF 11
ENDMDL
MODEL 2
REMARK VINA RESULT:      -8.4      3.131      8.506
REMARK  11 active torsions:
REMARK  status: ('A' for Active; 'I' for Inactive)
REMARK    1  A    between atoms: C_3  and  C_4 
REMARK    2  A    between atoms: C_4  and  O_5 
REMARK    3  A    between atoms: C_12  and  C_13 
REMARK    4  A    between atoms: C_13  and  C_14 
REMARK    5  A    between atoms: C_15  and  C_16 
REMARK    6  A    between atoms: C_18  and  N_19 
REMARK    7  A    between atoms: N_25  and  C_26 
REMARK    8  A    between atoms: C_26  and  C_27 
REMARK    9  A    between atoms: C_27  and  C_28 
REMARK   10  A    between atoms: C_28  and  N_29 
REMARK   11  A    between atoms: C_38  and  O_39 
ROOT
HETATM    1  C   UNL     1      40.883 -14.746   2.704  1.00  0.00     0.059 A 
HETATM    2  C   UNL     1      40.538 -13.278   2.819  1.00  0.00     0.161 A 
HETATM    3  N   UNL     1      39.241 -13.240   2.166  1.00  0.00    -0.333 N 
HETATM    4  C   UNL     1      38.846 -14.489   1.742  1.00  0.00     0.278 A 
HETATM    5  O   UNL     1      37.869 -14.716   1.044  1.00  0.00    -0.265 OA
HETATM    6  C   UNL     1      39.922 -15.450   2.082  1.00  0.00     0.146 A 
ENDROOT
BRANCH   1   7
HETATM    7  C   UNL     1      42.259 -15.113   3.116  1.00  0.00     0.196 C 
HETATM    8  O   UNL     1      43.149 -14.273   3.039  1.00  0.00    -0.287 OA
BRANCH   7   9
HETATM    9  C   UNL     1      42.520 -16.502   3.474  1.00  0.00     0.045 A 
HETATM   10  C   UNL     1      43.320 -17.425   2.705  1.00  0.00    -0.013 A 
HETATM   11  C   UNL     1      43.998 -17.117   1.409  1.00  0.00     0.052 C 
HETATM   12  C   UNL     1      43.357 -18.632   3.398  1.00  0.00     0.115 A 
HETATM   13  N   UNL     1      42.613 -18.456   4.544  1.00  0.00    -0.354 N 
HETATM   14  H   UNL     1      42.503 -19.180   5.246  1.00  0.00     0.166 HD
HETATM   15  C   UNL     1      42.131 -17.174   4.627  1.00  0.00     0.020 A 
HETATM   16  C   UNL     1      41.383 -16.746   5.842  1.00  0.00     0.069 C 
BRANCH  12  17
HETATM   17  C   UNL     1      44.009 -19.900   3.143  1.00  0.00     0.310 C 
HETATM   18  O   UNL     1      44.920 -20.344   3.829  1.00  0.00    -0.258 OA
BRANCH  17  19
HETATM   19  O   UNL     1      43.476 -20.514   2.055  1.00  0.00    -0.321 OA
HETATM   20  C   UNL     1      44.031 -21.800   1.779  1.00  0.00     0.213 C 
ENDBRANCH  17  19
ENDBRANCH  12  17
ENDBRANCH   7   9
ENDBRANCH   1   7
BRANCH   2  21
HETATM   21  C   UNL     1      40.487 -12.696   4.221  1.00  0.00    -0.028 A 
HETATM   22  C   UNL     1      41.159 -11.514   4.576  1.00  0.00     0.045 A 
HETATM   23  C   UNL     1      41.025 -10.981   5.870  1.00  0.00     0.103 A 
HETATM   24  C   UNL     1      40.274 -11.646   6.843  1.00  0.00     0.036 A 
HETATM   25  C   UNL     1      39.641 -12.842   6.512  1.00  0.00     0.003 A 
HETATM   26  C   UNL     1      39.738 -13.354   5.214  1.00  0.00     0.010 A 
BRANCH  23  27
HETATM   27  N   UNL     1      41.662  -9.696   6.191  1.00  0.00    -0.116 N 
HETATM   28  O   UNL     1      42.044  -9.527   7.358  1.00  0.00    -0.532 OA
HETATM   29  O   UNL     1      41.777  -8.865   5.281  1.00  0.00    -0.532 OA
ENDBRANCH  23  27
ENDBRANCH   2  21
BRANCH   6  30
HETATM   30  O   UNL     1      39.886 -16.729   1.617  1.00  0.00    -0.355 OA
HETATM   31  H   UNL     1      40.781 -17.107   1.563  1.00  0.00     0.218 HD
ENDBRANCH   6  30
BRANCH   3  32
HETATM   32  C   UNL     1      38.614 -12.021   1.684  1.00  0.00     0.129 C 
BRANCH  32  33
HETATM   33  C   UNL     1      39.256 -11.445   0.413  1.00  0.00     0.048 C 
BRANCH  33  34
HETATM   34  C   UNL     1      38.640 -11.835  -0.935  1.00  0.00     0.236 C 
BRANCH  34  35
HETATM   35  N   UNL     1      39.146 -13.134  -1.494  1.00  0.00    -0.067 N 
HETATM   36  H   UNL     1      38.692 -13.909  -0.966  1.00  0.00     0.280 HD
HETATM   37  C   UNL     1      38.894 -13.334  -2.977  1.00  0.00     0.261 C 
HETATM   38  C   UNL     1      39.448 -14.692  -3.424  1.00  0.00     0.195 C 
HETATM   39  O   UNL     1      40.842 -14.807  -3.122  1.00  0.00    -0.388 OA
HETATM   40  C   UNL     1      41.078 -14.709  -1.712  1.00  0.00     0.195 C 
HETATM   41  C   UNL     1      40.633 -13.341  -1.185  1.00  0.00     0.261 C 
ENDBRANCH  34  35
ENDBRANCH  33  34
ENDBRANCH  32  33
ENDBRANCH   3  32
TORSDOF 11
ENDMDL
MODEL 3
REMARK VINA RESULT:      -8.3      2.210      3.163
REMARK  11 active torsions:
REMARK  status: ('A' for Active; 'I' for Inactive)
REMARK    1  A    between atoms: C_3  and  C_4 
REMARK    2  A    between atoms: C_4  and  O_5 
REMARK    3  A    between atoms: C_12  and  C_13 
REMARK    4  A    between atoms: C_13  and  C_14 
REMARK    5  A    between atoms: C_15  and  C_16 
REMARK    6  A    between atoms: C_18  and  N_19 
REMARK    7  A    between atoms: N_25  and  C_26 
REMARK    8  A    between atoms: C_26  and  C_27 
REMARK    9  A    between atoms: C_27  and  C_28 
REMARK   10  A    between atoms: C_28  and  N_29 
REMARK   11  A    between atoms: C_38  and  O_39 
ROOT
HETATM    1  C   UNL     1      40.849 -13.103   3.149  1.00  0.00     0.059 A 
HETATM    2  C   UNL     1      41.263 -13.137   4.604  1.00  0.00     0.161 A 
HETATM    3  N   UNL     1      40.165 -12.419   5.228  1.00  0.00    -0.333 N 
HETATM    4  C   UNL     1      39.220 -12.029   4.305  1.00  0.00     0.278 A 
HETATM    5  O   UNL     1      38.274 -11.292   4.540  1.00  0.00    -0.265 OA
HETATM    6  C   UNL     1      39.681 -12.463   2.965  1.00  0.00     0.146 A 
ENDROOT
BRANCH   1   7
HETATM    7  C   UNL     1      41.860 -13.599   2.186  1.00  0.00     0.196 C 
HETATM    8  O   UNL     1      43.034 -13.277   2.334  1.00  0.00    -0.287 OA
BRANCH   7   9
HETATM    9  C   UNL     1      41.392 -14.344   1.023  1.00  0.00     0.045 A 
HETATM   10  C   UNL     1      41.420 -13.868  -0.339  1.00  0.00    -0.013 A 
HETATM   11  C   UNL     1      41.917 -12.530  -0.783  1.00  0.00     0.052 C 
HETATM   12  C   UNL     1      40.924 -14.883  -1.152  1.00  0.00     0.115 A 
HETATM   13  N   UNL     1      40.607 -15.937  -0.325  1.00  0.00    -0.354 N 
HETATM   14  H   UNL     1      40.250 -16.822  -0.670  1.00  0.00     0.166 HD
HETATM   15  C   UNL     1      40.913 -15.648   0.982  1.00  0.00     0.020 A 
HETATM   16  C   UNL     1      40.740 -16.694   2.028  1.00  0.00     0.069 C 
BRANCH  12  17
HETATM   17  C   UNL     1      40.735 -15.002  -2.584  1.00  0.00     0.310 C 
HETATM   18  O   UNL     1      41.656 -15.047  -3.388  1.00  0.00    -0.258 OA
BRANCH  17  19
HETATM   19  O   UNL     1      39.415 -15.054  -2.900  1.00  0.00    -0.321 OA
HETATM   20  C   UNL     1      39.093 -16.012  -3.908  1.00  0.00     0.213 C 
ENDBRANCH  17  19
ENDBRANCH  12  17
ENDBRANCH   7   9
ENDBRANCH   1   7
BRANCH   2  21
HETATM   21  C   UNL     1      41.470 -14.510   5.222  1.00  0.00    -0.028 A 
HETATM   22  C   UNL     1      42.745 -15.048   5.461  1.00  0.00     0.045 A 
HETATM   23  C   UNL     1      42.883 -16.294   6.097  1.00  0.00     0.103 A 
HETATM   24  C   UNL     1      41.759 -17.046   6.448  1.00  0.00     0.036 A 
HETATM   25  C   UNL     1      40.490 -16.539   6.174  1.00  0.00     0.003 A 
HETATM   26  C   UNL     1      40.349 -15.281   5.578  1.00  0.00     0.010 A 
BRANCH  23  27
HETATM   27  N   UNL     1      44.226 -16.796   6.420  1.00  0.00    -0.116 N 
HETATM   28  O   UNL     1      45.024 -15.997   6.931  1.00  0.00    -0.532 OA
HETATM   29  O   UNL     1      44.477 -17.981   6.164  1.00  0.00    -0.532 OA
ENDBRANCH  23  27
ENDBRANCH   2  21
BRANCH   6  30
HETATM   30  O   UNL     1      39.036 -12.051   1.839  1.00  0.00    -0.355 OA
HETATM   31  H   UNL     1      39.551 -12.265   1.042  1.00  0.00     0.218 HD
ENDBRANCH   6  30
BRANCH   3  32
HETATM   32  C   UNL     1      40.225 -11.854   6.566  1.00  0.00     0.129 C 
BRANCH  32  33
HETATM   33  C   UNL     1      41.581 -11.230   6.923  1.00  0.00     0.048 C 
BRANCH  33  34
HETATM   34  C   UNL     1      41.664 -10.394   8.206  1.00  0.00     0.236 C 
BRANCH  34  35
HETATM   35  N   UNL     1      42.231 -11.129   9.387  1.00  0.00    -0.067 N 
HETATM   36  H   UNL     1      41.767 -12.061   9.438  1.00  0.00     0.280 HD
HETATM   37  C   UNL     1      43.735 -11.329   9.353  1.00  0.00     0.261 C 
HETATM   38  C   UNL     1      44.190 -12.095  10.602  1.00  0.00     0.195 C 
HETATM   39  O   UNL     1      43.791 -11.416  11.798  1.00  0.00    -0.388 OA
HETATM   40  C   UNL     1      42.365 -11.304  11.880  1.00  0.00     0.195 C 
HETATM   41  C   UNL     1      41.822 -10.475  10.711  1.00  0.00     0.261 C 
ENDBRANCH  34  35
ENDBRANCH  33  34
ENDBRANCH  32  33
ENDBRANCH   3  32
TORSDOF 11
ENDMDL
MODEL 4
REMARK VINA RESULT:      -8.2      3.026      5.124
REMARK  11 active torsions:
REMARK  status: ('A' for Active; 'I' for Inactive)
REMARK    1  A    between atoms: C_3  and  C_4 
REMARK    2  A    between atoms: C_4  and  O_5 
REMARK    3  A    between atoms: C_12  and  C_13 
REMARK    4  A    between atoms: C_13  and  C_14 
REMARK    5  A    between atoms: C_15  and  C_16 
REMARK    6  A    between atoms: C_18  and  N_19 
REMARK    7  A    between atoms: N_25  and  C_26 
REMARK    8  A    between atoms: C_26  and  C_27 
REMARK    9  A    between atoms: C_27  and  C_28 
REMARK   10  A    between atoms: C_28  and  N_29 
REMARK   11  A    between atoms: C_38  and  O_39 
ROOT
HETATM    1  C   UNL     1      39.810 -12.354   2.471  1.00  0.00     0.059 A 
HETATM    2  C   UNL     1      40.837 -13.254   3.121  1.00  0.00     0.161 A 
HETATM    3  N   UNL     1      40.363 -13.279   4.494  1.00  0.00    -0.333 N 
HETATM    4  C   UNL     1      39.217 -12.533   4.652  1.00  0.00     0.278 A 
HETATM    5  O   UNL     1      38.694 -12.271   5.725  1.00  0.00    -0.265 OA
HETATM    6  C   UNL     1      38.879 -11.929   3.342  1.00  0.00     0.146 A 
ENDROOT
BRANCH   1   7
HETATM    7  C   UNL     1      40.103 -11.956   1.073  1.00  0.00     0.196 C 
HETATM    8  O   UNL     1      40.487 -10.814   0.845  1.00  0.00    -0.287 OA
BRANCH   7   9
HETATM    9  C   UNL     1      39.794 -12.907   0.011  1.00  0.00     0.045 A 
HETATM   10  C   UNL     1      40.726 -13.375  -0.986  1.00  0.00    -0.013 A 
HETATM   11  C   UNL     1      42.155 -12.953  -1.106  1.00  0.00     0.052 C 
HETATM   12  C   UNL     1      40.060 -14.296  -1.789  1.00  0.00     0.115 A 
HETATM   13  N   UNL     1      38.774 -14.390  -1.304  1.00  0.00    -0.354 N 
HETATM   14  H   UNL     1      38.082 -15.021  -1.695  1.00  0.00     0.166 HD
HETATM   15  C   UNL     1      38.603 -13.591  -0.201  1.00  0.00     0.020 A 
HETATM   16  C   UNL     1      37.310 -13.622   0.537  1.00  0.00     0.069 C 
BRANCH  12  17
HETATM   17  C   UNL     1      40.471 -15.106  -2.918  1.00  0.00     0.310 C 
HETATM   18  O   UNL     1      41.430 -14.839  -3.629  1.00  0.00    -0.258 OA
BRANCH  17  19
HETATM   19  O   UNL     1      39.655 -16.180  -3.073  1.00  0.00    -0.321 OA
HETATM   20  C   UNL     1      38.970 -16.219  -4.325  1.00  0.00     0.213 C 
ENDBRANCH  17  19
ENDBRANCH  12  17
ENDBRANCH   7   9
ENDBRANCH   1   7
BRANCH   2  21
HETATM   21  C   UNL     1      40.983 -14.652   2.543  1.00  0.00    -0.028 A 
HETATM   22  C   UNL     1      42.211 -15.158   2.085  1.00  0.00     0.045 A 
HETATM   23  C   UNL     1      42.306 -16.481   1.622  1.00  0.00     0.103 A 
HETATM   24  C   UNL     1      41.173 -17.297   1.551  1.00  0.00     0.036 A 
HETATM   25  C   UNL     1      39.943 -16.788   1.961  1.00  0.00     0.003 A 
HETATM   26  C   UNL     1      39.852 -15.485   2.461  1.00  0.00     0.010 A 
BRANCH  23  27
HETATM   27  N   UNL     1      43.618 -17.019   1.234  1.00  0.00    -0.116 N 
HETATM   28  O   UNL     1      44.621 -16.393   1.604  1.00  0.00    -0.532 OA
HETATM   29  O   UNL     1      43.640 -18.060   0.565  1.00  0.00    -0.532 OA
ENDBRANCH  23  27
ENDBRANCH   2  21
BRANCH   6  30
HETATM   30  O   UNL     1      37.898 -10.990   3.240  1.00  0.00    -0.355 OA
HETATM   31  H   UNL     1      37.024 -11.406   3.145  1.00  0.00     0.218 HD
ENDBRANCH   6  30
BRANCH   3  32
HETATM   32  C   UNL     1      41.175 -13.707   5.622  1.00  0.00     0.129 C 
BRANCH  32  33
HETATM   33  C   UNL     1      42.656 -13.317   5.513  1.00  0.00     0.048 C 
BRANCH  33  34
HETATM   34  C   UNL     1      43.693 -14.446   5.555  1.00  0.00     0.236 C 
BRANCH  34  35
HETATM   35  N   UNL     1      43.155 -15.762   6.039  1.00  0.00    -0.067 N 
HETATM   36  H   UNL     1      42.135 -15.645   6.218  1.00  0.00     0.280 HD
HETATM   37  C   UNL     1      43.359 -16.925   5.086  1.00  0.00     0.261 C 
HETATM   38  C   UNL     1      42.763 -18.204   5.686  1.00  0.00     0.195 C 
HETATM   39  O   UNL     1      43.333 -18.488   6.968  1.00  0.00    -0.388 OA
HETATM   40  C   UNL     1      43.067 -17.432   7.900  1.00  0.00     0.195 C 
HETATM   41  C   UNL     1      43.702 -16.121   7.425  1.00  0.00     0.261 C 
ENDBRANCH  34  35
ENDBRANCH  33  34
ENDBRANCH  32  33
ENDBRANCH   3  32
TORSDOF 11
ENDMDL
MODEL 5
REMARK VINA RESULT:      -8.1      2.538      8.399
REMARK  11 active torsions:
REMARK  status: ('A' for Active; 'I' for Inactive)
REMARK    1  A    between atoms: C_3  and  C_4 
REMARK    2  A    between atoms: C_4  and  O_5 
REMARK    3  A    between atoms: C_12  and  C_13 
REMARK    4  A    between atoms: C_13  and  C_14 
REMARK    5  A    between atoms: C_15  and  C_16 
REMARK    6  A    between atoms: C_18  and  N_19 
REMARK    7  A    between atoms: N_25  and  C_26 
REMARK    8  A    between atoms: C_26  and  C_27 
REMARK    9  A    between atoms: C_27  and  C_28 
REMARK   10  A    between atoms: C_28  and  N_29 
REMARK   11  A    between atoms: C_38  and  O_39 
ROOT
HETATM    1  C   UNL     1      42.065 -15.108   3.930  1.00  0.00     0.059 A 
HETATM    2  C   UNL     1      41.916 -15.668   2.533  1.00  0.00     0.161 A 
HETATM    3  N   UNL     1      41.702 -17.077   2.815  1.00  0.00    -0.333 N 
HETATM    4  C   UNL     1      41.699 -17.332   4.167  1.00  0.00     0.278 A 
HETATM    5  O   UNL     1      41.682 -18.446   4.670  1.00  0.00    -0.265 OA
HETATM    6  C   UNL     1      41.949 -16.055   4.876  1.00  0.00     0.146 A 
ENDROOT
BRANCH   1   7
HETATM    7  C   UNL     1      42.487 -13.689   4.007  1.00  0.00     0.196 C 
HETATM    8  O   UNL     1      43.336 -13.275   3.225  1.00  0.00    -0.287 OA
BRANCH   7   9
HETATM    9  C   UNL     1      41.966 -12.877   5.100  1.00  0.00     0.045 A 
HETATM   10  C   UNL     1      40.686 -12.209   5.107  1.00  0.00    -0.013 A 
HETATM   11  C   UNL     1      39.692 -12.224   3.990  1.00  0.00     0.052 C 
HETATM   12  C   UNL     1      40.546 -11.576   6.338  1.00  0.00     0.115 A 
HETATM   13  N   UNL     1      41.690 -11.844   7.057  1.00  0.00    -0.354 N 
HETATM   14  H   UNL     1      41.831 -11.522   8.009  1.00  0.00     0.166 HD
HETATM   15  C   UNL     1      42.540 -12.654   6.346  1.00  0.00     0.020 A 
HETATM   16  C   UNL     1      43.792 -13.147   6.983  1.00  0.00     0.069 C 
BRANCH  12  17
HETATM   17  C   UNL     1      39.486 -10.784   6.929  1.00  0.00     0.310 C 
HETATM   18  O   UNL     1      39.027  -9.774   6.413  1.00  0.00    -0.258 OA
BRANCH  17  19
HETATM   19  O   UNL     1      39.085 -11.311   8.115  1.00  0.00    -0.321 OA
HETATM   20  C   UNL     1      39.044 -10.370   9.188  1.00  0.00     0.213 C 
ENDBRANCH  17  19
ENDBRANCH  12  17
ENDBRANCH   7   9
ENDBRANCH   1   7
BRANCH   2  21
HETATM   21  C   UNL     1      40.804 -15.083   1.678  1.00  0.00    -0.028 A 
HETATM   22  C   UNL     1      41.044 -14.470   0.438  1.00  0.00     0.045 A 
HETATM   23  C   UNL     1      39.974 -14.004  -0.345  1.00  0.00     0.103 A 
HETATM   24  C   UNL     1      38.658 -14.088   0.120  1.00  0.00     0.036 A 
HETATM   25  C   UNL     1      38.415 -14.656   1.369  1.00  0.00     0.003 A 
HETATM   26  C   UNL     1      39.474 -15.156   2.133  1.00  0.00     0.010 A 
BRANCH  23  27
HETATM   27  N   UNL     1      40.241 -13.449  -1.679  1.00  0.00    -0.116 N 
HETATM   28  O   UNL     1      39.742 -14.034  -2.650  1.00  0.00    -0.532 OA
HETATM   29  O   UNL     1      40.946 -12.433  -1.751  1.00  0.00    -0.532 OA
ENDBRANCH  23  27
ENDBRANCH   2  21
BRANCH   6  30
HETATM   30  O   UNL     1      42.183 -16.037   6.217  1.00  0.00    -0.355 OA
HETATM   31  H   UNL     1      41.511 -16.550   6.697  1.00  0.00     0.218 HD
ENDBRANCH   6  30
BRANCH   3  32
HETATM   32  C   UNL     1      41.851 -18.131   1.824  1.00  0.00     0.129 C 
BRANCH  32  33
HETATM   33  C   UNL     1      43.297 -18.357   1.361  1.00  0.00     0.048 C 
BRANCH  33  34
HETATM   34  C   UNL     1      44.359 -18.607   2.438  1.00  0.00     0.236 C 
BRANCH  34  35
HETATM   35  N   UNL     1      44.179 -19.891   3.198  1.00  0.00    -0.067 N 
HETATM   36  H   UNL     1      43.168 -19.983   3.435  1.00  0.00     0.280 HD
HETATM   37  C   UNL     1      44.628 -21.138   2.460  1.00  0.00     0.261 C 
HETATM   38  C   UNL     1      44.387 -22.377   3.330  1.00  0.00     0.195 C 
HETATM   39  O   UNL     1      45.054 -22.260   4.592  1.00  0.00    -0.388 OA
HETATM   40  C   UNL     1      44.569 -21.134   5.333  1.00  0.00     0.195 C 
HETATM   41  C   UNL     1      44.846 -19.831   4.576  1.00  0.00     0.261 C 
ENDBRANCH  34  35
ENDBRANCH  33  34
ENDBRANCH  32  33
ENDBRANCH   3  32
TORSDOF 11
ENDMDL
MODEL 6
REMARK VINA RESULT:      -8.0      2.132      8.749
REMARK  11 active torsions:
REMARK  status: ('A' for Active; 'I' for Inactive)
REMARK    1  A    between atoms: C_3  and  C_4 
REMARK    2  A    between atoms: C_4  and  O_5 
REMARK    3  A    between atoms: C_12  and  C_13 
REMARK    4  A    between atoms: C_13  and  C_14 
REMARK    5  A    between atoms: C_15  and  C_16 
REMARK    6  A    between atoms: C_18  and  N_19 
REMARK    7  A    between atoms: N_25  and  C_26 
REMARK    8  A    between atoms: C_26  and  C_27 
REMARK    9  A    between atoms: C_27  and  C_28 
REMARK   10  A    between atoms: C_28  and  N_29 
REMARK   11  A    between atoms: C_38  and  O_39 
ROOT
HETATM    1  C   UNL     1      42.570 -15.283   4.445  1.00  0.00     0.059 A 
HETATM    2  C   UNL     1      42.345 -15.765   3.030  1.00  0.00     0.161 A 
HETATM    3  N   UNL     1      41.870 -17.118   3.264  1.00  0.00    -0.333 N 
HETATM    4  C   UNL     1      41.795 -17.407   4.608  1.00  0.00     0.278 A 
HETATM    5  O   UNL     1      41.564 -18.513   5.075  1.00  0.00    -0.265 OA
HETATM    6  C   UNL     1      42.264 -16.219   5.359  1.00  0.00     0.146 A 
ENDROOT
BRANCH   1   7
HETATM    7  C   UNL     1      43.245 -13.969   4.573  1.00  0.00     0.196 C 
HETATM    8  O   UNL     1      43.982 -13.586   3.670  1.00  0.00    -0.287 OA
BRANCH   7   9
HETATM    9  C   UNL     1      43.106 -13.246   5.831  1.00  0.00     0.045 A 
HETATM   10  C   UNL     1      44.080 -13.229   6.895  1.00  0.00    -0.013 A 
HETATM   11  C   UNL     1      45.383 -13.961   6.893  1.00  0.00     0.052 C 
HETATM   12  C   UNL     1      43.594 -12.397   7.900  1.00  0.00     0.115 A 
HETATM   13  N   UNL     1      42.374 -11.923   7.470  1.00  0.00    -0.354 N 
HETATM   14  H   UNL     1      41.817 -11.267   8.007  1.00  0.00     0.166 HD
HETATM   15  C   UNL     1      42.078 -12.392   6.214  1.00  0.00     0.020 A 
HETATM   16  C   UNL     1      40.848 -11.918   5.522  1.00  0.00     0.069 C 
BRANCH  12  17
HETATM   17  C   UNL     1      44.126 -11.975   9.180  1.00  0.00     0.310 C 
HETATM   18  O   UNL     1      44.587 -12.748  10.010  1.00  0.00    -0.258 OA
BRANCH  17  19
HETATM   19  O   UNL     1      44.040 -10.628   9.326  1.00  0.00    -0.321 OA
HETATM   20  C   UNL     1      43.485 -10.209  10.573  1.00  0.00     0.213 C 
ENDBRANCH  17  19
ENDBRANCH  12  17
ENDBRANCH   7   9
ENDBRANCH   1   7
BRANCH   2  21
HETATM   21  C   UNL     1      41.375 -14.960   2.180  1.00  0.00    -0.028 A 
HETATM   22  C   UNL     1      41.696 -14.502   0.892  1.00  0.00     0.045 A 
HETATM   23  C   UNL     1      40.740 -13.819   0.121  1.00  0.00     0.103 A 
HETATM   24  C   UNL     1      39.476 -13.530   0.642  1.00  0.00     0.036 A 
HETATM   25  C   UNL     1      39.164 -13.943   1.936  1.00  0.00     0.003 A 
HETATM   26  C   UNL     1      40.099 -14.658   2.691  1.00  0.00     0.010 A 
BRANCH  23  27
HETATM   27  N   UNL     1      41.067 -13.429  -1.257  1.00  0.00    -0.116 N 
HETATM   28  O   UNL     1      40.394 -13.936  -2.166  1.00  0.00    -0.532 OA
HETATM   29  O   UNL     1      41.990 -12.622  -1.426  1.00  0.00    -0.532 OA
ENDBRANCH  23  27
ENDBRANCH   2  21
BRANCH   6  30
HETATM   30  O   UNL     1      42.474 -16.284   6.703  1.00  0.00    -0.355 OA
HETATM   31  H   UNL     1      43.062 -15.568   7.000  1.00  0.00     0.218 HD
ENDBRANCH   6  30
BRANCH   3  32
HETATM   32  C   UNL     1      41.839 -18.152   2.243  1.00  0.00     0.129 C 
BRANCH  32  33
HETATM   33  C   UNL     1      43.176 -18.356   1.515  1.00  0.00     0.048 C 
BRANCH  33  34
HETATM   34  C   UNL     1      44.394 -18.746   2.361  1.00  0.00     0.236 C 
BRANCH  34  35
HETATM   35  N   UNL     1      44.201 -19.987   3.186  1.00  0.00    -0.067 N 
HETATM   36  H   UNL     1      43.181 -20.096   3.365  1.00  0.00     0.280 HD
HETATM   37  C   UNL     1      44.732 -21.261   2.558  1.00  0.00     0.261 C 
HETATM   38  C   UNL     1      44.470 -22.452   3.487  1.00  0.00     0.195 C 
HETATM   39  O   UNL     1      45.051 -22.238   4.778  1.00  0.00    -0.388 OA
HETATM   40  C   UNL     1      44.489 -21.085   5.416  1.00  0.00     0.195 C 
HETATM   41  C   UNL     1      44.777 -19.822   4.597  1.00  0.00     0.261 C 
ENDBRANCH  34  35
ENDBRANCH  33  34
ENDBRANCH  32  33
ENDBRANCH   3  32
TORSDOF 11
ENDMDL
MODEL 7
REMARK VINA RESULT:      -7.9      3.413      7.787
REMARK  11 active torsions:
REMARK  status: ('A' for Active; 'I' for Inactive)
REMARK    1  A    between atoms: C_3  and  C_4 
REMARK    2  A    between atoms: C_4  and  O_5 
REMARK    3  A    between atoms: C_12  and  C_13 
REMARK    4  A    between atoms: C_13  and  C_14 
REMARK    5  A    between atoms: C_15  and  C_16 
REMARK    6  A    between atoms: C_18  and  N_19 
REMARK    7  A    between atoms: N_25  and  C_26 
REMARK    8  A    between atoms: C_26  and  C_27 
REMARK    9  A    between atoms: C_27  and  C_28 
REMARK   10  A    between atoms: C_28  and  N_29 
REMARK   11  A    between atoms: C_38  and  O_39 
ROOT
HETATM    1  C   UNL     1      41.493 -14.693   3.929  1.00  0.00     0.059 A 
HETATM    2  C   UNL     1      41.478 -15.306   2.546  1.00  0.00     0.161 A 
HETATM    3  N   UNL     1      41.337 -16.717   2.864  1.00  0.00    -0.333 N 
HETATM    4  C   UNL     1      41.255 -16.929   4.222  1.00  0.00     0.278 A 
HETATM    5  O   UNL     1      41.275 -18.025   4.762  1.00  0.00    -0.265 OA
HETATM    6  C   UNL     1      41.372 -15.616   4.899  1.00  0.00     0.146 A 
ENDROOT
BRANCH   1   7
HETATM    7  C   UNL     1      41.816 -13.248   3.983  1.00  0.00     0.196 C 
HETATM    8  O   UNL     1      42.985 -12.902   4.123  1.00  0.00    -0.287 OA
BRANCH   7   9
HETATM    9  C   UNL     1      40.710 -12.298   3.999  1.00  0.00     0.045 A 
HETATM   10  C   UNL     1      40.379 -11.386   2.931  1.00  0.00    -0.013 A 
HETATM   11  C   UNL     1      41.122 -11.251   1.641  1.00  0.00     0.052 C 
HETATM   12  C   UNL     1      39.241 -10.681   3.315  1.00  0.00     0.115 A 
HETATM   13  N   UNL     1      38.889 -11.142   4.564  1.00  0.00    -0.354 N 
HETATM   14  H   UNL     1      38.069 -10.812   5.063  1.00  0.00     0.166 HD
HETATM   15  C   UNL     1      39.737 -12.139   4.978  1.00  0.00     0.020 A 
HETATM   16  C   UNL     1      39.471 -12.846   6.262  1.00  0.00     0.069 C 
BRANCH  12  17
HETATM   17  C   UNL     1      38.439  -9.665   2.663  1.00  0.00     0.310 C 
HETATM   18  O   UNL     1      38.889  -8.598   2.268  1.00  0.00    -0.258 OA
BRANCH  17  19
HETATM   19  O   UNL     1      37.143 -10.057   2.559  1.00  0.00    -0.321 OA
HETATM   20  C   UNL     1      36.856 -10.817   1.385  1.00  0.00     0.213 C 
ENDBRANCH  17  19
ENDBRANCH  12  17
ENDBRANCH   7   9
ENDBRANCH   1   7
BRANCH   2  21
HETATM   21  C   UNL     1      40.394 -14.825   1.597  1.00  0.00    -0.028 A 
HETATM   22  C   UNL     1      40.663 -14.430   0.277  1.00  0.00     0.045 A 
HETATM   23  C   UNL     1      39.615 -14.055  -0.582  1.00  0.00     0.103 A 
HETATM   24  C   UNL     1      38.296 -14.011  -0.122  1.00  0.00     0.036 A 
HETATM   25  C   UNL     1      38.025 -14.359   1.200  1.00  0.00     0.003 A 
HETATM   26  C   UNL     1      39.061 -14.771   2.045  1.00  0.00     0.010 A 
BRANCH  23  27
HETATM   27  N   UNL     1      39.910 -13.734  -1.985  1.00  0.00    -0.116 N 
HETATM   28  O   UNL     1      38.956 -13.711  -2.775  1.00  0.00    -0.532 OA
HETATM   29  O   UNL     1      41.087 -13.505  -2.290  1.00  0.00    -0.532 OA
ENDBRANCH  23  27
ENDBRANCH   2  21
BRANCH   6  30
HETATM   30  O   UNL     1      41.510 -15.540   6.251  1.00  0.00    -0.355 OA
HETATM   31  H   UNL     1      41.314 -16.394   6.672  1.00  0.00     0.218 HD
ENDBRANCH   6  30
BRANCH   3  32
HETATM   32  C   UNL     1      41.622 -17.790   1.925  1.00  0.00     0.129 C 
BRANCH  32  33
HETATM   33  C   UNL     1      43.093 -17.870   1.492  1.00  0.00     0.048 C 
BRANCH  33  34
HETATM   34  C   UNL     1      44.154 -17.986   2.593  1.00  0.00     0.236 C 
BRANCH  34  35
HETATM   35  N   UNL     1      44.061 -19.243   3.410  1.00  0.00    -0.067 N 
HETATM   36  H   UNL     1      43.052 -19.451   3.564  1.00  0.00     0.280 HD
HETATM   37  C   UNL     1      44.727 -20.458   2.792  1.00  0.00     0.261 C 
HETATM   38  C   UNL     1      44.558 -21.673   3.712  1.00  0.00     0.195 C 
HETATM   39  O   UNL     1      45.084 -21.410   5.017  1.00  0.00    -0.388 OA
HETATM   40  C   UNL     1      44.398 -20.319   5.644  1.00  0.00     0.195 C 
HETATM   41  C   UNL     1      44.583 -19.031   4.835  1.00  0.00     0.261 C 
ENDBRANCH  34  35
ENDBRANCH  33  34
ENDBRANCH  32  33
ENDBRANCH   3  32
TORSDOF 11
ENDMDL
MODEL 8
REMARK VINA RESULT:      -7.8      2.830      8.678
REMARK  11 active torsions:
REMARK  status: ('A' for Active; 'I' for Inactive)
REMARK    1  A    between atoms: C_3  and  C_4 
REMARK    2  A    between atoms: C_4  and  O_5 
REMARK    3  A    between atoms: C_12  and  C_13 
REMARK    4  A    between atoms: C_13  and  C_14 
REMARK    5  A    between atoms: C_15  and  C_16 
REMARK    6  A    between atoms: C_18  and  N_19 
REMARK    7  A    between atoms: N_25  and  C_26 
REMARK    8  A    between atoms: C_26  and  C_27 
REMARK    9  A    between atoms: C_27  and  C_28 
REMARK   10  A    between atoms: C_28  and  N_29 
REMARK   11  A    between atoms: C_38  and  O_39 
ROOT
HETATM    1  C   UNL     1      41.164 -14.380   2.774  1.00  0.00     0.059 A 
HETATM    2  C   UNL     1      40.560 -13.007   2.965  1.00  0.00     0.161 A 
HETATM    3  N   UNL     1      39.254 -13.185   2.352  1.00  0.00    -0.333 N 
HETATM    4  C   UNL     1      39.081 -14.468   1.883  1.00  0.00     0.278 A 
HETATM    5  O   UNL     1      38.138 -14.844   1.203  1.00  0.00    -0.265 OA
HETATM    6  C   UNL     1      40.327 -15.225   2.148  1.00  0.00     0.146 A 
ENDROOT
BRANCH   1   7
HETATM    7  C   UNL     1      42.598 -14.502   3.129  1.00  0.00     0.196 C 
HETATM    8  O   UNL     1      43.364 -13.587   2.844  1.00  0.00    -0.287 OA
BRANCH   7   9
HETATM    9  C   UNL     1      43.061 -15.766   3.688  1.00  0.00     0.045 A 
HETATM   10  C   UNL     1      42.922 -16.169   5.067  1.00  0.00    -0.013 A 
HETATM   11  C   UNL     1      42.296 -15.353   6.152  1.00  0.00     0.052 C 
HETATM   12  C   UNL     1      43.452 -17.450   5.189  1.00  0.00     0.115 A 
HETATM   13  N   UNL     1      43.897 -17.818   3.938  1.00  0.00    -0.354 N 
HETATM   14  H   UNL     1      44.304 -18.727   3.743  1.00  0.00     0.166 HD
HETATM   15  C   UNL     1      43.639 -16.836   3.015  1.00  0.00     0.020 A 
HETATM   16  C   UNL     1      43.951 -17.075   1.578  1.00  0.00     0.069 C 
BRANCH  12  17
HETATM   17  C   UNL     1      43.574 -18.370   6.302  1.00  0.00     0.310 C 
HETATM   18  O   UNL     1      43.751 -18.014   7.459  1.00  0.00    -0.258 OA
BRANCH  17  19
HETATM   19  O   UNL     1      43.465 -19.659   5.886  1.00  0.00    -0.321 OA
HETATM   20  C   UNL     1      43.731 -20.625   6.902  1.00  0.00     0.213 C 
ENDBRANCH  17  19
ENDBRANCH  12  17
ENDBRANCH   7   9
ENDBRANCH   1   7
BRANCH   2  21
HETATM   21  C   UNL     1      40.454 -12.501   4.394  1.00  0.00    -0.028 A 
HETATM   22  C   UNL     1      41.177 -11.391   4.860  1.00  0.00     0.045 A 
HETATM   23  C   UNL     1      40.993 -10.922   6.172  1.00  0.00     0.103 A 
HETATM   24  C   UNL     1      40.135 -11.584   7.054  1.00  0.00     0.036 A 
HETATM   25  C   UNL     1      39.447 -12.713   6.614  1.00  0.00     0.003 A 
HETATM   26  C   UNL     1      39.597 -13.158   5.296  1.00  0.00     0.010 A 
BRANCH  23  27
HETATM   27  N   UNL     1      41.691  -9.705   6.609  1.00  0.00    -0.116 N 
HETATM   28  O   UNL     1      42.312  -9.759   7.681  1.00  0.00    -0.532 OA
HETATM   29  O   UNL     1      41.618  -8.705   5.884  1.00  0.00    -0.532 OA
ENDBRANCH  23  27
ENDBRANCH   2  21
BRANCH   6  30
HETATM   30  O   UNL     1      40.510 -16.469   1.625  1.00  0.00    -0.355 OA
HETATM   31  H   UNL     1      39.769 -16.719   1.047  1.00  0.00     0.218 HD
ENDBRANCH   6  30
BRANCH   3  32
HETATM   32  C   UNL     1      38.396 -12.085   1.944  1.00  0.00     0.129 C 
BRANCH  32  33
HETATM   33  C   UNL     1      38.932 -11.279   0.752  1.00  0.00     0.048 C 
BRANCH  33  34
HETATM   34  C   UNL     1      38.383 -11.618  -0.639  1.00  0.00     0.236 C 
BRANCH  34  35
HETATM   35  N   UNL     1      38.860 -12.932  -1.189  1.00  0.00    -0.067 N 
HETATM   36  H   UNL     1      38.578 -13.680  -0.520  1.00  0.00     0.280 HD
HETATM   37  C   UNL     1      38.331 -13.278  -2.568  1.00  0.00     0.261 C 
HETATM   38  C   UNL     1      38.880 -14.638  -3.014  1.00  0.00     0.195 C 
HETATM   39  O   UNL     1      40.312 -14.649  -2.998  1.00  0.00    -0.388 OA
HETATM   40  C   UNL     1      40.818 -14.412  -1.678  1.00  0.00     0.195 C 
HETATM   41  C   UNL     1      40.389 -13.028  -1.178  1.00  0.00     0.261 C 
ENDBRANCH  34  35
ENDBRANCH  33  34
ENDBRANCH  32  33
ENDBRANCH   3  32
TORSDOF 11
ENDMDL
MODEL 9
REMARK VINA RESULT:      -7.8      3.892      7.850
REMARK  11 active torsions:
REMARK  status: ('A' for Active; 'I' for Inactive)
REMARK    1  A    between atoms: C_3  and  C_4 
REMARK    2  A    between atoms: C_4  and  O_5 
REMARK    3  A    between atoms: C_12  and  C_13 
REMARK    4  A    between atoms: C_13  and  C_14 
REMARK    5  A    between atoms: C_15  and  C_16 
REMARK    6  A    between atoms: C_18  and  N_19 
REMARK    7  A    between atoms: N_25  and  C_26 
REMARK    8  A    between atoms: C_26  and  C_27 
REMARK    9  A    between atoms: C_27  and  C_28 
REMARK   10  A    between atoms: C_28  and  N_29 
REMARK   11  A    between atoms: C_38  and  O_39 
ROOT
HETATM    1  C   UNL     1      40.732 -13.987   1.637  1.00  0.00     0.059 A 
HETATM    2  C   UNL     1      41.731 -14.537   0.643  1.00  0.00     0.161 A 
HETATM    3  N   UNL     1      41.690 -15.955   0.957  1.00  0.00    -0.333 N 
HETATM    4  C   UNL     1      40.794 -16.229   1.965  1.00  0.00     0.278 A 
HETATM    5  O   UNL     1      40.669 -17.313   2.516  1.00  0.00    -0.265 OA
HETATM    6  C   UNL     1      40.193 -14.948   2.406  1.00  0.00     0.146 A 
ENDROOT
BRANCH   1   7
HETATM    7  C   UNL     1      40.661 -12.509   1.718  1.00  0.00     0.196 C 
HETATM    8  O   UNL     1      41.701 -11.864   1.804  1.00  0.00    -0.287 OA
BRANCH   7   9
HETATM    9  C   UNL     1      39.344 -11.891   1.824  1.00  0.00     0.045 A 
HETATM   10  C   UNL     1      38.461 -11.613   0.717  1.00  0.00    -0.013 A 
HETATM   11  C   UNL     1      38.755 -11.896  -0.721  1.00  0.00     0.052 C 
HETATM   12  C   UNL     1      37.294 -11.060   1.235  1.00  0.00     0.115 A 
HETATM   13  N   UNL     1      37.453 -11.002   2.602  1.00  0.00    -0.354 N 
HETATM   14  H   UNL     1      36.729 -10.664   3.227  1.00  0.00     0.166 HD
HETATM   15  C   UNL     1      38.662 -11.529   2.980  1.00  0.00     0.020 A 
HETATM   16  C   UNL     1      38.991 -11.654   4.427  1.00  0.00     0.069 C 
BRANCH  12  17
HETATM   17  C   UNL     1      36.058 -10.608   0.628  1.00  0.00     0.310 C 
HETATM   18  O   UNL     1      35.005 -11.228   0.693  1.00  0.00    -0.258 OA
BRANCH  17  19
HETATM   19  O   UNL     1      36.232  -9.423  -0.012  1.00  0.00    -0.321 OA
HETATM   20  C   UNL     1      35.886  -9.449  -1.396  1.00  0.00     0.213 C 
ENDBRANCH  17  19
ENDBRANCH  12  17
ENDBRANCH   7   9
ENDBRANCH   1   7
BRANCH   2  21
HETATM   21  C   UNL     1      41.449 -14.271  -0.826  1.00  0.00    -0.028 A 
HETATM   22  C   UNL     1      40.464 -14.966  -1.547  1.00  0.00     0.045 A 
HETATM   23  C   UNL     1      40.197 -14.636  -2.887  1.00  0.00     0.103 A 
HETATM   24  C   UNL     1      40.944 -13.655  -3.544  1.00  0.00     0.036 A 
HETATM   25  C   UNL     1      41.953 -12.991  -2.849  1.00  0.00     0.003 A 
HETATM   26  C   UNL     1      42.194 -13.289  -1.504  1.00  0.00     0.010 A 
BRANCH  23  27
HETATM   27  N   UNL     1      39.100 -15.314  -3.593  1.00  0.00    -0.116 N 
HETATM   28  O   UNL     1      37.943 -15.026  -3.256  1.00  0.00    -0.532 OA
HETATM   29  O   UNL     1      39.398 -16.125  -4.479  1.00  0.00    -0.532 OA
ENDBRANCH  23  27
ENDBRANCH   2  21
BRANCH   6  30
HETATM   30  O   UNL     1      39.408 -14.893   3.517  1.00  0.00    -0.355 OA
HETATM   31  H   UNL     1      39.739 -15.490   4.210  1.00  0.00     0.218 HD
ENDBRANCH   6  30
BRANCH   3  32
HETATM   32  C   UNL     1      42.712 -16.904   0.545  1.00  0.00     0.129 C 
BRANCH  32  33
HETATM   33  C   UNL     1      43.842 -17.093   1.567  1.00  0.00     0.048 C 
BRANCH  33  34
HETATM   34  C   UNL     1      43.996 -18.476   2.211  1.00  0.00     0.236 C 
BRANCH  34  35
HETATM   35  N   UNL     1      43.565 -18.540   3.649  1.00  0.00    -0.067 N 
HETATM   36  H   UNL     1      42.563 -18.822   3.671  1.00  0.00     0.280 HD
HETATM   37  C   UNL     1      44.366 -19.495   4.513  1.00  0.00     0.261 C 
HETATM   38  C   UNL     1      43.830 -19.477   5.950  1.00  0.00     0.195 C 
HETATM   39  O   UNL     1      43.853 -18.153   6.493  1.00  0.00    -0.388 OA
HETATM   40  C   UNL     1      43.026 -17.264   5.732  1.00  0.00     0.195 C 
HETATM   41  C   UNL     1      43.540 -17.150   4.293  1.00  0.00     0.261 C 
ENDBRANCH  34  35
ENDBRANCH  33  34
ENDBRANCH  32  33
ENDBRANCH   3  32
TORSDOF 11
ENDMDL
MODEL 10
REMARK VINA RESULT:      -7.6      3.118      9.120
REMARK  11 active torsions:
REMARK  status: ('A' for Active; 'I' for Inactive)
REMARK    1  A    between atoms: C_3  and  C_4 
REMARK    2  A    between atoms: C_4  and  O_5 
REMARK    3  A    between atoms: C_12  and  C_13 
REMARK    4  A    between atoms: C_13  and  C_14 
REMARK    5  A    between atoms: C_15  and  C_16 
REMARK    6  A    between atoms: C_18  and  N_19 
REMARK    7  A    between atoms: N_25  and  C_26 
REMARK    8  A    between atoms: C_26  and  C_27 
REMARK    9  A    between atoms: C_27  and  C_28 
REMARK   10  A    between atoms: C_28  and  N_29 
REMARK   11  A    between atoms: C_38  and  O_39 
ROOT
HETATM    1  C   UNL     1      40.455 -14.154   2.117  1.00  0.00     0.059 A 
HETATM    2  C   UNL     1      40.026 -12.748   1.764  1.00  0.00     0.161 A 
HETATM    3  N   UNL     1      38.658 -12.970   1.327  1.00  0.00    -0.333 N 
HETATM    4  C   UNL     1      38.302 -14.297   1.421  1.00  0.00     0.278 A 
HETATM    5  O   UNL     1      37.264 -14.776   0.988  1.00  0.00    -0.265 OA
HETATM    6  C   UNL     1      39.475 -15.053   1.918  1.00  0.00     0.146 A 
ENDROOT
BRANCH   1   7
HETATM    7  C   UNL     1      41.893 -14.323   2.434  1.00  0.00     0.196 C 
HETATM    8  O   UNL     1      42.720 -13.644   1.834  1.00  0.00    -0.287 OA
BRANCH   7   9
HETATM    9  C   UNL     1      42.272 -15.386   3.356  1.00  0.00     0.045 A 
HETATM   10  C   UNL     1      42.754 -16.691   2.972  1.00  0.00    -0.013 A 
HETATM   11  C   UNL     1      42.930 -17.175   1.569  1.00  0.00     0.052 C 
HETATM   12  C   UNL     1      43.042 -17.396   4.138  1.00  0.00     0.115 A 
HETATM   13  N   UNL     1      42.749 -16.559   5.192  1.00  0.00    -0.354 N 
HETATM   14  H   UNL     1      42.899 -16.819   6.161  1.00  0.00     0.166 HD
HETATM   15  C   UNL     1      42.320 -15.334   4.745  1.00  0.00     0.020 A 
HETATM   16  C   UNL     1      42.046 -14.247   5.724  1.00  0.00     0.069 C 
BRANCH  12  17
HETATM   17  C   UNL     1      43.569 -18.722   4.389  1.00  0.00     0.310 C 
HETATM   18  O   UNL     1      44.346 -19.295   3.637  1.00  0.00    -0.258 OA
BRANCH  17  19
HETATM   19  O   UNL     1      43.086 -19.228   5.553  1.00  0.00    -0.321 OA
HETATM   20  C   UNL     1      44.089 -19.756   6.421  1.00  0.00     0.213 C 
ENDBRANCH  17  19
ENDBRANCH  12  17
ENDBRANCH   7   9
ENDBRANCH   1   7
BRANCH   2  21
HETATM   21  C   UNL     1      40.108 -11.710   2.871  1.00  0.00    -0.028 A 
HETATM   22  C   UNL     1      39.591 -11.933   4.158  1.00  0.00     0.045 A 
HETATM   23  C   UNL     1      39.752 -10.967   5.166  1.00  0.00     0.103 A 
HETATM   24  C   UNL     1      40.374  -9.745   4.893  1.00  0.00     0.036 A 
HETATM   25  C   UNL     1      40.850  -9.498   3.607  1.00  0.00     0.003 A 
HETATM   26  C   UNL     1      40.728 -10.474   2.612  1.00  0.00     0.010 A 
BRANCH  23  27
HETATM   27  N   UNL     1      39.284 -11.259   6.528  1.00  0.00    -0.116 N 
HETATM   28  O   UNL     1      39.110 -12.449   6.827  1.00  0.00    -0.532 OA
HETATM   29  O   UNL     1      39.095 -10.303   7.291  1.00  0.00    -0.532 OA
ENDBRANCH  23  27
ENDBRANCH   2  21
BRANCH   6  30
HETATM   30  O   UNL     1      39.471 -16.414   1.933  1.00  0.00    -0.355 OA
HETATM   31  H   UNL     1      40.115 -16.760   2.575  1.00  0.00     0.218 HD
ENDBRANCH   6  30
BRANCH   3  32
HETATM   32  C   UNL     1      37.893 -12.013   0.546  1.00  0.00     0.129 C 
BRANCH  32  33
HETATM   33  C   UNL     1      38.399 -11.829  -0.893  1.00  0.00     0.048 C 
BRANCH  33  34
HETATM   34  C   UNL     1      37.841 -12.768  -1.968  1.00  0.00     0.236 C 
BRANCH  34  35
HETATM   35  N   UNL     1      38.681 -13.988  -2.221  1.00  0.00    -0.067 N 
HETATM   36  H   UNL     1      38.465 -14.685  -1.477  1.00  0.00     0.280 HD
HETATM   37  C   UNL     1      38.477 -14.635  -3.578  1.00  0.00     0.261 C 
HETATM   38  C   UNL     1      39.380 -15.867  -3.712  1.00  0.00     0.195 C 
HETATM   39  O   UNL     1      40.755 -15.524  -3.510  1.00  0.00    -0.388 OA
HETATM   40  C   UNL     1      40.971 -14.995  -2.196  1.00  0.00     0.195 C 
HETATM   41  C   UNL     1      40.170 -13.704  -1.997  1.00  0.00     0.261 C 
ENDBRANCH  34  35
ENDBRANCH  33  34
ENDBRANCH  32  33
ENDBRANCH   3  32
TORSDOF 11
ENDMDL
