MODEL 1
REMARK VINA RESULT:      -9.3      0.000      0.000
REMARK  7 active torsions:
REMARK  status: ('A' for Active; 'I' for Inactive)
REMARK    1  A    between atoms: C_3  and  C_4 
REMARK    2  A    between atoms: C_4  and  S_5 
REMARK    3  A    between atoms: S_5  and  C_6 
REMARK    4  A    between atoms: C_6  and  C_7 
REMARK    5  A    between atoms: C_16  and  C_17 
REMARK       I    between atoms: C_17  and  N_18 
REMARK    6  A    between atoms: N_18  and  C_19 
REMARK    7  A    between atoms: C_19  and  C_20 
ROOT
HETATM    1  C   UNL     1      40.356 -11.670   4.291  1.00  0.00     0.162 C 
HETATM    2  N   UNL     1      41.743 -12.104   3.966  1.00  0.00    -0.277 NA
HETATM    3  C   UNL     1      42.035 -13.435   4.322  1.00  0.00     0.036 A 
HETATM    4  C   UNL     1      41.369 -14.067   5.390  1.00  0.00     0.057 A 
HETATM    5  N   UNL     1      40.362 -13.381   6.080  1.00  0.00    -0.324 N 
HETATM    6  C   UNL     1      39.928 -12.136   5.693  1.00  0.00     0.240 C 
HETATM    7  O   UNL     1      39.174 -11.483   6.415  1.00  0.00    -0.271 OA
HETATM    8  C   UNL     1      43.113 -14.094   3.722  1.00  0.00     0.027 A 
HETATM    9  C   UNL     1      43.458 -15.389   4.117  1.00  0.00     0.019 A 
HETATM   10  C   UNL     1      42.745 -16.032   5.137  1.00  0.00     0.034 A 
HETATM   11  C   UNL     1      41.716 -15.355   5.800  1.00  0.00     0.048 A 
HETATM   12  H   UNL     1      42.041 -11.869   3.024  1.00  0.00     0.128 HD
HETATM   13  H   UNL     1      39.997 -13.733   6.955  1.00  0.00     0.169 HD
ENDROOT
BRANCH  10  14
HETATM   14  C   UNL     1      43.134 -17.416   5.517  1.00  0.00     0.252 C 
HETATM   15  N   UNL     1      44.278 -17.902   4.928  1.00  0.00    -0.353 N 
HETATM   16  H   UNL     1      44.854 -17.305   4.350  1.00  0.00     0.163 HD
HETATM   17  O   UNL     1      42.470 -18.045   6.332  1.00  0.00    -0.268 OA
BRANCH  15  18
HETATM   18  C   UNL     1      44.715 -19.258   5.159  1.00  0.00     0.163 C 
BRANCH  18  19
HETATM   19  C   UNL     1      44.449 -20.133   3.961  1.00  0.00    -0.019 A 
HETATM   20  C   UNL     1      44.681 -21.518   3.971  1.00  0.00     0.042 A 
HETATM   21 CL   UNL     1      45.291 -22.330   5.369  1.00  0.00    -0.084 Cl
HETATM   22  C   UNL     1      44.404 -22.294   2.841  1.00  0.00     0.024 A 
HETATM   23  C   UNL     1      43.889 -21.700   1.691  1.00  0.00     0.002 A 
HETATM   24  C   UNL     1      43.648 -20.329   1.668  1.00  0.00     0.001 A 
HETATM   25  C   UNL     1      43.922 -19.552   2.794  1.00  0.00     0.010 A 
ENDBRANCH  18  19
ENDBRANCH  15  18
ENDBRANCH  10  14
BRANCH   1  26
HETATM   26  C   UNL     1      39.390 -12.183   3.202  1.00  0.00     0.103 C 
BRANCH  26  27
HETATM   27  S   UNL     1      39.959 -12.141   1.467  1.00  0.00    -0.162 SA
BRANCH  27  28
HETATM   28  C   UNL     1      39.131 -13.627   0.817  1.00  0.00     0.112 C 
BRANCH  28  29
HETATM   29  C   UNL     1      39.987 -14.859   1.011  1.00  0.00    -0.043 A 
HETATM   30  C   UNL     1      41.003 -15.225   0.101  1.00  0.00    -0.055 A 
HETATM   31  C   UNL     1      41.319 -14.399  -1.117  1.00  0.00     0.049 C 
HETATM   32  C   UNL     1      41.755 -16.387   0.344  1.00  0.00     0.007 A 
HETATM   33  C   UNL     1      41.499 -17.189   1.455  1.00  0.00     0.001 A 
HETATM   34  C   UNL     1      40.486 -16.841   2.342  1.00  0.00     0.001 A 
HETATM   35  C   UNL     1      39.736 -15.686   2.122  1.00  0.00     0.008 A 
ENDBRANCH  28  29
ENDBRANCH  27  28
ENDBRANCH  26  27
ENDBRANCH   1  26
TORSDOF 7
ENDMDL
MODEL 2
REMARK VINA RESULT:      -8.8      3.764      7.415
REMARK  7 active torsions:
REMARK  status: ('A' for Active; 'I' for Inactive)
REMARK    1  A    between atoms: C_3  and  C_4 
REMARK    2  A    between atoms: C_4  and  S_5 
REMARK    3  A    between atoms: S_5  and  C_6 
REMARK    4  A    between atoms: C_6  and  C_7 
REMARK    5  A    between atoms: C_16  and  C_17 
REMARK       I    between atoms: C_17  and  N_18 
REMARK    6  A    between atoms: N_18  and  C_19 
REMARK    7  A    between atoms: C_19  and  C_20 
ROOT
HETATM    1  C   UNL     1      43.371 -16.604   7.642  1.00  0.00     0.162 C 
HETATM    2  N   UNL     1      42.092 -16.945   6.960  1.00  0.00    -0.277 NA
HETATM    3  C   UNL     1      42.112 -16.768   5.563  1.00  0.00     0.036 A 
HETATM    4  C   UNL     1      42.959 -15.817   4.961  1.00  0.00     0.057 A 
HETATM    5  N   UNL     1      43.836 -15.068   5.757  1.00  0.00    -0.324 N 
HETATM    6  C   UNL     1      43.970 -15.292   7.106  1.00  0.00     0.240 C 
HETATM    7  O   UNL     1      44.608 -14.511   7.810  1.00  0.00    -0.271 OA
HETATM    8  C   UNL     1      41.167 -17.420   4.766  1.00  0.00     0.027 A 
HETATM    9  C   UNL     1      41.130 -17.198   3.386  1.00  0.00     0.019 A 
HETATM   10  C   UNL     1      42.023 -16.298   2.791  1.00  0.00     0.034 A 
HETATM   11  C   UNL     1      42.921 -15.579   3.587  1.00  0.00     0.048 A 
HETATM   12  H   UNL     1      41.696 -17.837   7.243  1.00  0.00     0.128 HD
HETATM   13  H   UNL     1      44.318 -14.261   5.384  1.00  0.00     0.169 HD
ENDROOT
BRANCH  10  14
HETATM   14  C   UNL     1      41.961 -16.101   1.318  1.00  0.00     0.252 C 
HETATM   15  N   UNL     1      41.235 -15.016   0.886  1.00  0.00    -0.353 N 
HETATM   16  H   UNL     1      40.856 -14.353   1.548  1.00  0.00     0.163 HD
HETATM   17  O   UNL     1      42.558 -16.862   0.566  1.00  0.00    -0.268 OA
BRANCH  15  18
HETATM   18  C   UNL     1      41.041 -14.764  -0.522  1.00  0.00     0.163 C 
BRANCH  18  19
HETATM   19  C   UNL     1      41.691 -13.471  -0.943  1.00  0.00    -0.019 A 
HETATM   20  C   UNL     1      41.954 -13.161  -2.288  1.00  0.00     0.042 A 
HETATM   21 CL   UNL     1      41.545 -14.245  -3.570  1.00  0.00    -0.084 Cl
HETATM   22  C   UNL     1      42.544 -11.942  -2.635  1.00  0.00     0.024 A 
HETATM   23  C   UNL     1      42.875 -11.016  -1.647  1.00  0.00     0.002 A 
HETATM   24  C   UNL     1      42.616 -11.307  -0.311  1.00  0.00     0.001 A 
HETATM   25  C   UNL     1      42.026 -12.523   0.039  1.00  0.00     0.010 A 
ENDBRANCH  18  19
ENDBRANCH  15  18
ENDBRANCH  10  14
BRANCH   1  26
HETATM   26  C   UNL     1      44.358 -17.782   7.498  1.00  0.00     0.103 C 
BRANCH  26  27
HETATM   27  S   UNL     1      43.795 -19.262   6.589  1.00  0.00    -0.162 SA
BRANCH  27  28
HETATM   28  C   UNL     1      45.085 -19.367   5.308  1.00  0.00     0.112 C 
BRANCH  28  29
HETATM   29  C   UNL     1      44.593 -20.127   4.096  1.00  0.00    -0.043 A 
HETATM   30  C   UNL     1      44.698 -21.531   3.990  1.00  0.00    -0.055 A 
HETATM   31  C   UNL     1      45.289 -22.372   5.089  1.00  0.00     0.049 C 
HETATM   32  C   UNL     1      44.223 -22.169   2.831  1.00  0.00     0.007 A 
HETATM   33  C   UNL     1      43.671 -21.434   1.783  1.00  0.00     0.001 A 
HETATM   34  C   UNL     1      43.583 -20.050   1.877  1.00  0.00     0.001 A 
HETATM   35  C   UNL     1      44.041 -19.401   3.024  1.00  0.00     0.008 A 
ENDBRANCH  28  29
ENDBRANCH  27  28
ENDBRANCH  26  27
ENDBRANCH   1  26
TORSDOF 7
ENDMDL
MODEL 3
REMARK VINA RESULT:      -8.7      3.731      7.148
REMARK  7 active torsions:
REMARK  status: ('A' for Active; 'I' for Inactive)
REMARK    1  A    between atoms: C_3  and  C_4 
REMARK    2  A    between atoms: C_4  and  S_5 
REMARK    3  A    between atoms: S_5  and  C_6 
REMARK    4  A    between atoms: C_6  and  C_7 
REMARK    5  A    between atoms: C_16  and  C_17 
REMARK       I    between atoms: C_17  and  N_18 
REMARK    6  A    between atoms: N_18  and  C_19 
REMARK    7  A    between atoms: C_19  and  C_20 
ROOT
HETATM    1  C   UNL     1      43.447 -15.927   7.096  1.00  0.00     0.162 C 
HETATM    2  N   UNL     1      42.173 -16.002   6.329  1.00  0.00    -0.277 NA
HETATM    3  C   UNL     1      42.221 -15.398   5.058  1.00  0.00     0.036 A 
HETATM    4  C   UNL     1      43.100 -14.330   4.792  1.00  0.00     0.057 A 
HETATM    5  N   UNL     1      43.979 -13.891   5.791  1.00  0.00    -0.324 N 
HETATM    6  C   UNL     1      44.085 -14.530   7.003  1.00  0.00     0.240 C 
HETATM    7  O   UNL     1      44.728 -14.025   7.922  1.00  0.00    -0.271 OA
HETATM    8  C   UNL     1      41.276 -15.743   4.088  1.00  0.00     0.027 A 
HETATM    9  C   UNL     1      41.267 -15.099   2.847  1.00  0.00     0.019 A 
HETATM   10  C   UNL     1      42.190 -14.082   2.572  1.00  0.00     0.034 A 
HETATM   11  C   UNL     1      43.090 -13.673   3.562  1.00  0.00     0.048 A 
HETATM   12  H   UNL     1      41.752 -16.927   6.315  1.00  0.00     0.128 HD
HETATM   13  H   UNL     1      44.486 -13.022   5.694  1.00  0.00     0.169 HD
ENDROOT
BRANCH  10  14
HETATM   14  C   UNL     1      42.159 -13.433   1.234  1.00  0.00     0.252 C 
HETATM   15  N   UNL     1      41.720 -14.220   0.195  1.00  0.00    -0.353 N 
HETATM   16  H   UNL     1      41.357 -15.147   0.368  1.00  0.00     0.163 HD
HETATM   17  O   UNL     1      42.482 -12.258   1.107  1.00  0.00    -0.268 OA
BRANCH  15  18
HETATM   18  C   UNL     1      41.716 -13.726  -1.161  1.00  0.00     0.163 C 
BRANCH  18  19
HETATM   19  C   UNL     1      40.591 -14.329  -1.962  1.00  0.00    -0.019 A 
HETATM   20  C   UNL     1      39.300 -13.777  -1.986  1.00  0.00     0.042 A 
HETATM   21 CL   UNL     1      38.902 -12.352  -1.094  1.00  0.00    -0.084 Cl
HETATM   22  C   UNL     1      38.290 -14.361  -2.757  1.00  0.00     0.024 A 
HETATM   23  C   UNL     1      38.556 -15.499  -3.517  1.00  0.00     0.002 A 
HETATM   24  C   UNL     1      39.833 -16.054  -3.509  1.00  0.00     0.001 A 
HETATM   25  C   UNL     1      40.843 -15.473  -2.741  1.00  0.00     0.010 A 
ENDBRANCH  18  19
ENDBRANCH  15  18
ENDBRANCH  10  14
BRANCH   1  26
HETATM   26  C   UNL     1      44.410 -17.026   6.600  1.00  0.00     0.103 C 
BRANCH  26  27
HETATM   27  S   UNL     1      43.691 -18.627   6.094  1.00  0.00    -0.162 SA
BRANCH  27  28
HETATM   28  C   UNL     1      45.102 -19.348   5.197  1.00  0.00     0.112 C 
BRANCH  28  29
HETATM   29  C   UNL     1      44.639 -20.141   3.995  1.00  0.00    -0.043 A 
HETATM   30  C   UNL     1      44.062 -19.529   2.861  1.00  0.00    -0.055 A 
HETATM   31  C   UNL     1      43.888 -18.037   2.761  1.00  0.00     0.049 C 
HETATM   32  C   UNL     1      43.650 -20.331   1.783  1.00  0.00     0.007 A 
HETATM   33  C   UNL     1      43.785 -21.718   1.828  1.00  0.00     0.001 A 
HETATM   34  C   UNL     1      44.335 -22.325   2.951  1.00  0.00     0.001 A 
HETATM   35  C   UNL     1      44.759 -21.543   4.026  1.00  0.00     0.008 A 
ENDBRANCH  28  29
ENDBRANCH  27  28
ENDBRANCH  26  27
ENDBRANCH   1  26
TORSDOF 7
ENDMDL
MODEL 4
REMARK VINA RESULT:      -8.7      3.667      7.341
REMARK  7 active torsions:
REMARK  status: ('A' for Active; 'I' for Inactive)
REMARK    1  A    between atoms: C_3  and  C_4 
REMARK    2  A    between atoms: C_4  and  S_5 
REMARK    3  A    between atoms: S_5  and  C_6 
REMARK    4  A    between atoms: C_6  and  C_7 
REMARK    5  A    between atoms: C_16  and  C_17 
REMARK       I    between atoms: C_17  and  N_18 
REMARK    6  A    between atoms: N_18  and  C_19 
REMARK    7  A    between atoms: C_19  and  C_20 
ROOT
HETATM    1  C   UNL     1      43.437 -15.752   7.046  1.00  0.00     0.162 C 
HETATM    2  N   UNL     1      42.123 -15.711   6.347  1.00  0.00    -0.277 NA
HETATM    3  C   UNL     1      42.170 -15.164   5.050  1.00  0.00     0.036 A 
HETATM    4  C   UNL     1      43.147 -14.213   4.695  1.00  0.00     0.057 A 
HETATM    5  N   UNL     1      44.122 -13.841   5.629  1.00  0.00    -0.324 N 
HETATM    6  C   UNL     1      44.222 -14.441   6.861  1.00  0.00     0.240 C 
HETATM    7  O   UNL     1      44.965 -13.978   7.725  1.00  0.00    -0.271 OA
HETATM    8  C   UNL     1      41.141 -15.435   4.144  1.00  0.00     0.027 A 
HETATM    9  C   UNL     1      41.137 -14.841   2.878  1.00  0.00     0.019 A 
HETATM   10  C   UNL     1      42.151 -13.947   2.514  1.00  0.00     0.034 A 
HETATM   11  C   UNL     1      43.144 -13.606   3.439  1.00  0.00     0.048 A 
HETATM   12  H   UNL     1      41.602 -16.581   6.393  1.00  0.00     0.128 HD
HETATM   13  H   UNL     1      44.716 -13.038   5.470  1.00  0.00     0.169 HD
ENDROOT
BRANCH  10  14
HETATM   14  C   UNL     1      42.120 -13.349   1.152  1.00  0.00     0.252 C 
HETATM   15  N   UNL     1      41.736 -14.192   0.135  1.00  0.00    -0.353 N 
HETATM   16  H   UNL     1      41.408 -15.126   0.336  1.00  0.00     0.163 HD
HETATM   17  O   UNL     1      42.397 -12.167   0.988  1.00  0.00    -0.268 OA
BRANCH  15  18
HETATM   18  C   UNL     1      41.740 -13.748  -1.238  1.00  0.00     0.163 C 
BRANCH  18  19
HETATM   19  C   UNL     1      40.556 -14.295  -1.995  1.00  0.00    -0.019 A 
HETATM   20  C   UNL     1      39.253 -13.800  -1.820  1.00  0.00     0.042 A 
HETATM   21 CL   UNL     1      38.907 -12.515  -0.717  1.00  0.00    -0.084 Cl
HETATM   22  C   UNL     1      38.187 -14.326  -2.556  1.00  0.00     0.024 A 
HETATM   23  C   UNL     1      38.407 -15.348  -3.478  1.00  0.00     0.002 A 
HETATM   24  C   UNL     1      39.694 -15.844  -3.667  1.00  0.00     0.001 A 
HETATM   25  C   UNL     1      40.761 -15.320  -2.935  1.00  0.00     0.010 A 
ENDBRANCH  18  19
ENDBRANCH  15  18
ENDBRANCH  10  14
BRANCH   1  26
HETATM   26  C   UNL     1      44.243 -16.971   6.550  1.00  0.00     0.103 C 
BRANCH  26  27
HETATM   27  S   UNL     1      43.323 -18.349   5.782  1.00  0.00    -0.162 SA
BRANCH  27  28
HETATM   28  C   UNL     1      44.695 -19.482   5.398  1.00  0.00     0.112 C 
BRANCH  28  29
HETATM   29  C   UNL     1      44.419 -20.269   4.136  1.00  0.00    -0.043 A 
HETATM   30  C   UNL     1      44.676 -21.654   4.036  1.00  0.00    -0.055 A 
HETATM   31  C   UNL     1      45.224 -22.449   5.190  1.00  0.00     0.049 C 
HETATM   32  C   UNL     1      44.399 -22.317   2.828  1.00  0.00     0.007 A 
HETATM   33  C   UNL     1      43.894 -21.625   1.728  1.00  0.00     0.001 A 
HETATM   34  C   UNL     1      43.658 -20.258   1.818  1.00  0.00     0.001 A 
HETATM   35  C   UNL     1      43.918 -19.585   3.012  1.00  0.00     0.008 A 
ENDBRANCH  28  29
ENDBRANCH  27  28
ENDBRANCH  26  27
ENDBRANCH   1  26
TORSDOF 7
ENDMDL
MODEL 5
REMARK VINA RESULT:      -8.4      3.761      6.383
REMARK  7 active torsions:
REMARK  status: ('A' for Active; 'I' for Inactive)
REMARK    1  A    between atoms: C_3  and  C_4 
REMARK    2  A    between atoms: C_4  and  S_5 
REMARK    3  A    between atoms: S_5  and  C_6 
REMARK    4  A    between atoms: C_6  and  C_7 
REMARK    5  A    between atoms: C_16  and  C_17 
REMARK       I    between atoms: C_17  and  N_18 
REMARK    6  A    between atoms: N_18  and  C_19 
REMARK    7  A    between atoms: C_19  and  C_20 
ROOT
HETATM    1  C   UNL     1      39.549 -12.285   6.447  1.00  0.00     0.162 C 
HETATM    2  N   UNL     1      39.663 -13.728   6.798  1.00  0.00    -0.277 NA
HETATM    3  C   UNL     1      40.273 -14.522   5.808  1.00  0.00     0.036 A 
HETATM    4  C   UNL     1      40.207 -14.167   4.446  1.00  0.00     0.057 A 
HETATM    5  N   UNL     1      39.568 -12.978   4.071  1.00  0.00    -0.324 N 
HETATM    6  C   UNL     1      39.080 -12.087   4.995  1.00  0.00     0.240 C 
HETATM    7  O   UNL     1      38.371 -11.146   4.643  1.00  0.00    -0.271 OA
HETATM    8  C   UNL     1      40.812 -15.765   6.150  1.00  0.00     0.027 A 
HETATM    9  C   UNL     1      41.357 -16.595   5.165  1.00  0.00     0.019 A 
HETATM   10  C   UNL     1      41.344 -16.201   3.821  1.00  0.00     0.034 A 
HETATM   11  C   UNL     1      40.736 -14.995   3.456  1.00  0.00     0.048 A 
HETATM   12  H   UNL     1      40.029 -13.900   7.729  1.00  0.00     0.128 HD
HETATM   13  H   UNL     1      39.347 -12.790   3.102  1.00  0.00     0.169 HD
ENDROOT
BRANCH  10  14
HETATM   14  C   UNL     1      41.948 -17.105   2.807  1.00  0.00     0.252 C 
HETATM   15  N   UNL     1      43.181 -17.624   3.123  1.00  0.00    -0.353 N 
HETATM   16  H   UNL     1      43.589 -17.465   4.033  1.00  0.00     0.163 HD
HETATM   17  O   UNL     1      41.341 -17.373   1.776  1.00  0.00    -0.268 OA
BRANCH  15  18
HETATM   18  C   UNL     1      43.900 -18.454   2.186  1.00  0.00     0.163 C 
BRANCH  18  19
HETATM   19  C   UNL     1      44.186 -19.816   2.766  1.00  0.00    -0.019 A 
HETATM   20  C   UNL     1      44.606 -19.999   4.093  1.00  0.00     0.042 A 
HETATM   21 CL   UNL     1      44.828 -18.667   5.171  1.00  0.00    -0.084 Cl
HETATM   22  C   UNL     1      44.843 -21.283   4.595  1.00  0.00     0.024 A 
HETATM   23  C   UNL     1      44.660 -22.399   3.780  1.00  0.00     0.002 A 
HETATM   24  C   UNL     1      44.237 -22.234   2.464  1.00  0.00     0.001 A 
HETATM   25  C   UNL     1      43.998 -20.954   1.962  1.00  0.00     0.010 A 
ENDBRANCH  18  19
ENDBRANCH  15  18
ENDBRANCH  10  14
BRANCH   1  26
HETATM   26  C   UNL     1      40.901 -11.587   6.708  1.00  0.00     0.103 C 
BRANCH  26  27
HETATM   27  S   UNL     1      40.950 -10.260   7.962  1.00  0.00    -0.162 SA
BRANCH  27  28
HETATM   28  C   UNL     1      42.485 -10.698   8.838  1.00  0.00     0.112 C 
BRANCH  28  29
HETATM   29  C   UNL     1      42.248 -10.825  10.326  1.00  0.00    -0.043 A 
HETATM   30  C   UNL     1      43.307 -10.898  11.258  1.00  0.00    -0.055 A 
HETATM   31  C   UNL     1      44.750 -10.832  10.832  1.00  0.00     0.049 C 
HETATM   32  C   UNL     1      43.011 -11.020  12.626  1.00  0.00     0.007 A 
HETATM   33  C   UNL     1      41.691 -11.090  13.071  1.00  0.00     0.001 A 
HETATM   34  C   UNL     1      40.647 -11.037  12.155  1.00  0.00     0.001 A 
HETATM   35  C   UNL     1      40.923 -10.906  10.794  1.00  0.00     0.008 A 
ENDBRANCH  28  29
ENDBRANCH  27  28
ENDBRANCH  26  27
ENDBRANCH   1  26
TORSDOF 7
ENDMDL
MODEL 6
REMARK VINA RESULT:      -8.4      4.218      8.061
REMARK  7 active torsions:
REMARK  status: ('A' for Active; 'I' for Inactive)
REMARK    1  A    between atoms: C_3  and  C_4 
REMARK    2  A    between atoms: C_4  and  S_5 
REMARK    3  A    between atoms: S_5  and  C_6 
REMARK    4  A    between atoms: C_6  and  C_7 
REMARK    5  A    between atoms: C_16  and  C_17 
REMARK       I    between atoms: C_17  and  N_18 
REMARK    6  A    between atoms: N_18  and  C_19 
REMARK    7  A    between atoms: C_19  and  C_20 
ROOT
HETATM    1  C   UNL     1      40.728 -16.537   2.909  1.00  0.00     0.162 C 
HETATM    2  N   UNL     1      39.791 -15.380   2.865  1.00  0.00    -0.277 NA
HETATM    3  C   UNL     1      40.136 -14.319   3.724  1.00  0.00     0.036 A 
HETATM    4  C   UNL     1      40.863 -14.546   4.909  1.00  0.00     0.057 A 
HETATM    5  N   UNL     1      41.297 -15.843   5.216  1.00  0.00    -0.324 N 
HETATM    6  C   UNL     1      41.121 -16.897   4.353  1.00  0.00     0.240 C 
HETATM    7  O   UNL     1      41.348 -18.049   4.718  1.00  0.00    -0.271 OA
HETATM    8  C   UNL     1      39.616 -13.042   3.494  1.00  0.00     0.027 A 
HETATM    9  C   UNL     1      39.892 -11.995   4.379  1.00  0.00     0.019 A 
HETATM   10  C   UNL     1      40.672 -12.221   5.520  1.00  0.00     0.034 A 
HETATM   11  C   UNL     1      41.133 -13.511   5.804  1.00  0.00     0.048 A 
HETATM   12  H   UNL     1      39.557 -15.073   1.926  1.00  0.00     0.128 HD
HETATM   13  H   UNL     1      41.656 -16.067   6.134  1.00  0.00     0.169 HD
ENDROOT
BRANCH  10  14
HETATM   14  C   UNL     1      40.956 -11.077   6.428  1.00  0.00     0.252 C 
HETATM   15  N   UNL     1      41.444 -11.404   7.671  1.00  0.00    -0.353 N 
HETATM   16  H   UNL     1      41.678 -12.361   7.898  1.00  0.00     0.163 HD
HETATM   17  O   UNL     1      40.783  -9.926   6.047  1.00  0.00    -0.268 OA
BRANCH  15  18
HETATM   18  C   UNL     1      41.687 -10.386   8.665  1.00  0.00     0.163 C 
BRANCH  18  19
HETATM   19  C   UNL     1      42.946 -10.669   9.444  1.00  0.00    -0.019 A 
HETATM   20  C   UNL     1      43.172 -10.149  10.729  1.00  0.00     0.042 A 
HETATM   21 CL   UNL     1      42.013  -9.141  11.521  1.00  0.00    -0.084 Cl
HETATM   22  C   UNL     1      44.348 -10.451  11.423  1.00  0.00     0.024 A 
HETATM   23  C   UNL     1      45.310 -11.278  10.846  1.00  0.00     0.002 A 
HETATM   24  C   UNL     1      45.098 -11.806   9.576  1.00  0.00     0.001 A 
HETATM   25  C   UNL     1      43.924 -11.507   8.881  1.00  0.00     0.010 A 
ENDBRANCH  18  19
ENDBRANCH  15  18
ENDBRANCH  10  14
BRANCH   1  26
HETATM   26  C   UNL     1      41.967 -16.227   2.043  1.00  0.00     0.103 C 
BRANCH  26  27
HETATM   27  S   UNL     1      42.883 -17.636   1.326  1.00  0.00    -0.162 SA
BRANCH  27  28
HETATM   28  C   UNL     1      43.997 -18.036   2.710  1.00  0.00     0.112 C 
BRANCH  28  29
HETATM   29  C   UNL     1      44.149 -19.532   2.874  1.00  0.00    -0.043 A 
HETATM   30  C   UNL     1      44.625 -20.117   4.068  1.00  0.00    -0.055 A 
HETATM   31  C   UNL     1      44.993 -19.290   5.271  1.00  0.00     0.049 C 
HETATM   32  C   UNL     1      44.745 -21.516   4.146  1.00  0.00     0.007 A 
HETATM   33  C   UNL     1      44.422 -22.325   3.059  1.00  0.00     0.001 A 
HETATM   34  C   UNL     1      43.971 -21.750   1.875  1.00  0.00     0.001 A 
HETATM   35  C   UNL     1      43.836 -20.365   1.784  1.00  0.00     0.008 A 
ENDBRANCH  28  29
ENDBRANCH  27  28
ENDBRANCH  26  27
ENDBRANCH   1  26
TORSDOF 7
ENDMDL
MODEL 7
REMARK VINA RESULT:      -8.3      2.670      4.586
REMARK  7 active torsions:
REMARK  status: ('A' for Active; 'I' for Inactive)
REMARK    1  A    between atoms: C_3  and  C_4 
REMARK    2  A    between atoms: C_4  and  S_5 
REMARK    3  A    between atoms: S_5  and  C_6 
REMARK    4  A    between atoms: C_6  and  C_7 
REMARK    5  A    between atoms: C_16  and  C_17 
REMARK       I    between atoms: C_17  and  N_18 
REMARK    6  A    between atoms: N_18  and  C_19 
REMARK    7  A    between atoms: C_19  and  C_20 
ROOT
HETATM    1  C   UNL     1      40.056 -13.912  -1.741  1.00  0.00     0.162 C 
HETATM    2  N   UNL     1      39.221 -14.359  -0.592  1.00  0.00    -0.277 NA
HETATM    3  C   UNL     1      39.930 -15.047   0.411  1.00  0.00     0.036 A 
HETATM    4  C   UNL     1      41.097 -15.776   0.109  1.00  0.00     0.057 A 
HETATM    5  N   UNL     1      41.592 -15.777  -1.202  1.00  0.00    -0.324 N 
HETATM    6  C   UNL     1      41.033 -15.011  -2.195  1.00  0.00     0.240 C 
HETATM    7  O   UNL     1      41.370 -15.164  -3.369  1.00  0.00    -0.271 OA
HETATM    8  C   UNL     1      39.391 -15.153   1.696  1.00  0.00     0.027 A 
HETATM    9  C   UNL     1      40.049 -15.894   2.682  1.00  0.00     0.019 A 
HETATM   10  C   UNL     1      41.244 -16.562   2.385  1.00  0.00     0.034 A 
HETATM   11  C   UNL     1      41.754 -16.529   1.082  1.00  0.00     0.048 A 
HETATM   12  H   UNL     1      38.606 -13.639  -0.223  1.00  0.00     0.128 HD
HETATM   13  H   UNL     1      42.311 -16.429  -1.486  1.00  0.00     0.169 HD
ENDROOT
BRANCH  10  14
HETATM   14  C   UNL     1      41.922 -17.326   3.465  1.00  0.00     0.252 C 
HETATM   15  N   UNL     1      43.277 -17.505   3.315  1.00  0.00    -0.353 N 
HETATM   16  H   UNL     1      43.776 -17.055   2.561  1.00  0.00     0.163 HD
HETATM   17  O   UNL     1      41.286 -17.731   4.431  1.00  0.00    -0.268 OA
BRANCH  15  18
HETATM   18  C   UNL     1      44.031 -18.293   4.260  1.00  0.00     0.163 C 
BRANCH  18  19
HETATM   19  C   UNL     1      44.206 -19.710   3.776  1.00  0.00    -0.019 A 
HETATM   20  C   UNL     1      44.381 -20.792   4.655  1.00  0.00     0.042 A 
HETATM   21 CL   UNL     1      44.408 -20.579   6.370  1.00  0.00    -0.084 Cl
HETATM   22  C   UNL     1      44.522 -22.093   4.163  1.00  0.00     0.024 A 
HETATM   23  C   UNL     1      44.486 -22.332   2.790  1.00  0.00     0.002 A 
HETATM   24  C   UNL     1      44.306 -21.271   1.907  1.00  0.00     0.001 A 
HETATM   25  C   UNL     1      44.164 -19.971   2.396  1.00  0.00     0.010 A 
ENDBRANCH  18  19
ENDBRANCH  15  18
ENDBRANCH  10  14
BRANCH   1  26
HETATM   26  C   UNL     1      40.799 -12.614  -1.361  1.00  0.00     0.103 C 
BRANCH  26  27
HETATM   27  S   UNL     1      40.066 -11.559  -0.062  1.00  0.00    -0.162 SA
BRANCH  27  28
HETATM   28  C   UNL     1      41.391 -11.614   1.185  1.00  0.00     0.112 C 
BRANCH  28  29
HETATM   29  C   UNL     1      40.842 -11.953   2.553  1.00  0.00    -0.043 A 
HETATM   30  C   UNL     1      41.541 -12.769   3.469  1.00  0.00    -0.055 A 
HETATM   31  C   UNL     1      42.897 -13.342   3.152  1.00  0.00     0.049 C 
HETATM   32  C   UNL     1      40.965 -13.046   4.721  1.00  0.00     0.007 A 
HETATM   33  C   UNL     1      39.710 -12.543   5.060  1.00  0.00     0.001 A 
HETATM   34  C   UNL     1      39.011 -11.754   4.153  1.00  0.00     0.001 A 
HETATM   35  C   UNL     1      39.572 -11.461   2.910  1.00  0.00     0.008 A 
ENDBRANCH  28  29
ENDBRANCH  27  28
ENDBRANCH  26  27
ENDBRANCH   1  26
TORSDOF 7
ENDMDL
MODEL 8
REMARK VINA RESULT:      -8.3      4.238      7.972
REMARK  7 active torsions:
REMARK  status: ('A' for Active; 'I' for Inactive)
REMARK    1  A    between atoms: C_3  and  C_4 
REMARK    2  A    between atoms: C_4  and  S_5 
REMARK    3  A    between atoms: S_5  and  C_6 
REMARK    4  A    between atoms: C_6  and  C_7 
REMARK    5  A    between atoms: C_16  and  C_17 
REMARK       I    between atoms: C_17  and  N_18 
REMARK    6  A    between atoms: N_18  and  C_19 
REMARK    7  A    between atoms: C_19  and  C_20 
ROOT
HETATM    1  C   UNL     1      41.883 -16.344   5.678  1.00  0.00     0.162 C 
HETATM    2  N   UNL     1      40.640 -15.875   5.005  1.00  0.00    -0.277 NA
HETATM    3  C   UNL     1      40.790 -15.595   3.634  1.00  0.00     0.036 A 
HETATM    4  C   UNL     1      42.031 -15.192   3.103  1.00  0.00     0.057 A 
HETATM    5  N   UNL     1      43.150 -15.115   3.943  1.00  0.00    -0.324 N 
HETATM    6  C   UNL     1      43.107 -15.512   5.257  1.00  0.00     0.240 C 
HETATM    7  O   UNL     1      44.045 -15.270   6.016  1.00  0.00    -0.271 OA
HETATM    8  C   UNL     1      39.665 -15.555   2.805  1.00  0.00     0.027 A 
HETATM    9  C   UNL     1      39.791 -15.208   1.456  1.00  0.00     0.019 A 
HETATM   10  C   UNL     1      41.043 -14.872   0.927  1.00  0.00     0.034 A 
HETATM   11  C   UNL     1      42.164 -14.832   1.762  1.00  0.00     0.048 A 
HETATM   12  H   UNL     1      39.820 -16.439   5.210  1.00  0.00     0.128 HD
HETATM   13  H   UNL     1      44.000 -14.659   3.638  1.00  0.00     0.169 HD
ENDROOT
BRANCH  10  14
HETATM   14  C   UNL     1      41.137 -14.525  -0.517  1.00  0.00     0.252 C 
HETATM   15  N   UNL     1      40.193 -15.100  -1.335  1.00  0.00    -0.353 N 
HETATM   16  H   UNL     1      39.436 -15.644  -0.946  1.00  0.00     0.163 HD
HETATM   17  O   UNL     1      41.996 -13.746  -0.912  1.00  0.00    -0.268 OA
BRANCH  15  18
HETATM   18  C   UNL     1      40.227 -14.899  -2.764  1.00  0.00     0.163 C 
BRANCH  18  19
HETATM   19  C   UNL     1      38.935 -14.308  -3.266  1.00  0.00    -0.019 A 
HETATM   20  C   UNL     1      38.701 -12.924  -3.303  1.00  0.00     0.042 A 
HETATM   21 CL   UNL     1      39.887 -11.784  -2.773  1.00  0.00    -0.084 Cl
HETATM   22  C   UNL     1      37.492 -12.418  -3.793  1.00  0.00     0.024 A 
HETATM   23  C   UNL     1      36.505 -13.286  -4.256  1.00  0.00     0.002 A 
HETATM   24  C   UNL     1      36.725 -14.661  -4.232  1.00  0.00     0.001 A 
HETATM   25  C   UNL     1      37.931 -15.168  -3.745  1.00  0.00     0.010 A 
ENDBRANCH  18  19
ENDBRANCH  15  18
ENDBRANCH  10  14
BRANCH   1  26
HETATM   26  C   UNL     1      42.088 -17.846   5.385  1.00  0.00     0.103 C 
BRANCH  26  27
HETATM   27  S   UNL     1      43.396 -18.725   6.308  1.00  0.00    -0.162 SA
BRANCH  27  28
HETATM   28  C   UNL     1      44.719 -18.746   5.057  1.00  0.00     0.112 C 
BRANCH  28  29
HETATM   29  C   UNL     1      44.542 -19.899   4.094  1.00  0.00    -0.043 A 
HETATM   30  C   UNL     1      44.127 -19.712   2.757  1.00  0.00    -0.055 A 
HETATM   31  C   UNL     1      43.851 -18.344   2.192  1.00  0.00     0.049 C 
HETATM   32  C   UNL     1      43.979 -20.832   1.921  1.00  0.00     0.007 A 
HETATM   33  C   UNL     1      44.218 -22.119   2.398  1.00  0.00     0.001 A 
HETATM   34  C   UNL     1      44.609 -22.309   3.719  1.00  0.00     0.001 A 
HETATM   35  C   UNL     1      44.770 -21.208   4.560  1.00  0.00     0.008 A 
ENDBRANCH  28  29
ENDBRANCH  27  28
ENDBRANCH  26  27
ENDBRANCH   1  26
TORSDOF 7
ENDMDL
MODEL 9
REMARK VINA RESULT:      -8.2      4.058      7.812
REMARK  7 active torsions:
REMARK  status: ('A' for Active; 'I' for Inactive)
REMARK    1  A    between atoms: C_3  and  C_4 
REMARK    2  A    between atoms: C_4  and  S_5 
REMARK    3  A    between atoms: S_5  and  C_6 
REMARK    4  A    between atoms: C_6  and  C_7 
REMARK    5  A    between atoms: C_16  and  C_17 
REMARK       I    between atoms: C_17  and  N_18 
REMARK    6  A    between atoms: N_18  and  C_19 
REMARK    7  A    between atoms: C_19  and  C_20 
ROOT
HETATM    1  C   UNL     1      43.292 -15.569   6.655  1.00  0.00     0.162 C 
HETATM    2  N   UNL     1      41.989 -15.914   6.021  1.00  0.00    -0.277 NA
HETATM    3  C   UNL     1      41.969 -15.780   4.620  1.00  0.00     0.036 A 
HETATM    4  C   UNL     1      42.809 -14.859   3.964  1.00  0.00     0.057 A 
HETATM    5  N   UNL     1      43.718 -14.098   4.710  1.00  0.00    -0.324 N 
HETATM    6  C   UNL     1      43.891 -14.282   6.060  1.00  0.00     0.240 C 
HETATM    7  O   UNL     1      44.559 -13.487   6.720  1.00  0.00    -0.271 OA
HETATM    8  C   UNL     1      40.993 -16.444   3.872  1.00  0.00     0.027 A 
HETATM    9  C   UNL     1      40.917 -16.264   2.488  1.00  0.00     0.019 A 
HETATM   10  C   UNL     1      41.802 -15.394   1.838  1.00  0.00     0.034 A 
HETATM   11  C   UNL     1      42.732 -14.663   2.585  1.00  0.00     0.048 A 
HETATM   12  H   UNL     1      41.591 -16.791   6.344  1.00  0.00     0.128 HD
HETATM   13  H   UNL     1      44.199 -13.309   4.298  1.00  0.00     0.169 HD
ENDROOT
BRANCH  10  14
HETATM   14  C   UNL     1      41.698 -15.242   0.363  1.00  0.00     0.252 C 
HETATM   15  N   UNL     1      41.771 -13.955  -0.115  1.00  0.00    -0.353 N 
HETATM   16  H   UNL     1      41.977 -13.185   0.506  1.00  0.00     0.163 HD
HETATM   17  O   UNL     1      41.586 -16.228  -0.355  1.00  0.00    -0.268 OA
BRANCH  15  18
HETATM   18  C   UNL     1      41.608 -13.674  -1.522  1.00  0.00     0.163 C 
BRANCH  18  19
HETATM   19  C   UNL     1      42.058 -12.275  -1.858  1.00  0.00    -0.019 A 
HETATM   20  C   UNL     1      41.540 -11.557  -2.948  1.00  0.00     0.042 A 
HETATM   21 CL   UNL     1      40.336 -12.226  -3.992  1.00  0.00    -0.084 Cl
HETATM   22  C   UNL     1      41.974 -10.254  -3.213  1.00  0.00     0.024 A 
HETATM   23  C   UNL     1      42.926  -9.651  -2.393  1.00  0.00     0.002 A 
HETATM   24  C   UNL     1      43.445 -10.349  -1.306  1.00  0.00     0.001 A 
HETATM   25  C   UNL     1      43.012 -11.648  -1.038  1.00  0.00     0.010 A 
ENDBRANCH  18  19
ENDBRANCH  15  18
ENDBRANCH  10  14
BRANCH   1  26
HETATM   26  C   UNL     1      44.260 -16.763   6.518  1.00  0.00     0.103 C 
BRANCH  26  27
HETATM   27  S   UNL     1      43.545 -18.443   6.474  1.00  0.00    -0.162 SA
BRANCH  27  28
HETATM   28  C   UNL     1      44.897 -19.351   5.661  1.00  0.00     0.112 C 
BRANCH  28  29
HETATM   29  C   UNL     1      44.466 -19.883   4.312  1.00  0.00    -0.043 A 
HETATM   30  C   UNL     1      44.589 -21.246   3.962  1.00  0.00    -0.055 A 
HETATM   31  C   UNL     1      45.139 -22.269   4.919  1.00  0.00     0.049 C 
HETATM   32  C   UNL     1      44.172 -21.667   2.688  1.00  0.00     0.007 A 
HETATM   33  C   UNL     1      43.660 -20.757   1.763  1.00  0.00     0.001 A 
HETATM   34  C   UNL     1      43.556 -19.412   2.099  1.00  0.00     0.001 A 
HETATM   35  C   UNL     1      43.956 -18.978   3.362  1.00  0.00     0.008 A 
ENDBRANCH  28  29
ENDBRANCH  27  28
ENDBRANCH  26  27
ENDBRANCH   1  26
TORSDOF 7
ENDMDL
MODEL 10
REMARK VINA RESULT:      -8.1      2.858      4.954
REMARK  7 active torsions:
REMARK  status: ('A' for Active; 'I' for Inactive)
REMARK    1  A    between atoms: C_3  and  C_4 
REMARK    2  A    between atoms: C_4  and  S_5 
REMARK    3  A    between atoms: S_5  and  C_6 
REMARK    4  A    between atoms: C_6  and  C_7 
REMARK    5  A    between atoms: C_16  and  C_17 
REMARK       I    between atoms: C_17  and  N_18 
REMARK    6  A    between atoms: N_18  and  C_19 
REMARK    7  A    between atoms: C_19  and  C_20 
ROOT
HETATM    1  C   UNL     1      39.839 -13.454  -1.010  1.00  0.00     0.162 C 
HETATM    2  N   UNL     1      39.264 -14.407  -0.020  1.00  0.00    -0.277 NA
HETATM    3  C   UNL     1      40.197 -15.305   0.534  1.00  0.00     0.036 A 
HETATM    4  C   UNL     1      41.346 -15.696  -0.181  1.00  0.00     0.057 A 
HETATM    5  N   UNL     1      41.596 -15.144  -1.445  1.00  0.00    -0.324 N 
HETATM    6  C   UNL     1      40.805 -14.157  -1.980  1.00  0.00     0.240 C 
HETATM    7  O   UNL     1      40.937 -13.817  -3.156  1.00  0.00    -0.271 OA
HETATM    8  C   UNL     1      39.908 -15.952   1.739  1.00  0.00     0.027 A 
HETATM    9  C   UNL     1      40.792 -16.900   2.263  1.00  0.00     0.019 A 
HETATM   10  C   UNL     1      41.965 -17.231   1.573  1.00  0.00     0.034 A 
HETATM   11  C   UNL     1      42.227 -16.650   0.328  1.00  0.00     0.048 A 
HETATM   12  H   UNL     1      38.669 -13.970   0.678  1.00  0.00     0.128 HD
HETATM   13  H   UNL     1      42.303 -15.534  -2.053  1.00  0.00     0.169 HD
ENDROOT
BRANCH  10  14
HETATM   14  C   UNL     1      42.887 -18.232   2.173  1.00  0.00     0.252 C 
HETATM   15  N   UNL     1      42.975 -18.221   3.545  1.00  0.00    -0.353 N 
HETATM   16  H   UNL     1      42.372 -17.626   4.096  1.00  0.00     0.163 HD
HETATM   17  O   UNL     1      43.491 -19.023   1.459  1.00  0.00    -0.268 OA
BRANCH  15  18
HETATM   18  C   UNL     1      43.892 -19.094   4.238  1.00  0.00     0.163 C 
BRANCH  18  19
HETATM   19  C   UNL     1      43.907 -18.812   5.718  1.00  0.00    -0.019 A 
HETATM   20  C   UNL     1      43.941 -19.833   6.682  1.00  0.00     0.042 A 
HETATM   21 CL   UNL     1      43.971 -21.503   6.239  1.00  0.00    -0.084 Cl
HETATM   22  C   UNL     1      43.971 -19.525   8.045  1.00  0.00     0.024 A 
HETATM   23  C   UNL     1      43.972 -18.195   8.465  1.00  0.00     0.002 A 
HETATM   24  C   UNL     1      43.945 -17.172   7.521  1.00  0.00     0.001 A 
HETATM   25  C   UNL     1      43.916 -17.477   6.159  1.00  0.00     0.010 A 
ENDBRANCH  18  19
ENDBRANCH  15  18
ENDBRANCH  10  14
BRANCH   1  26
HETATM   26  C   UNL     1      40.528 -12.293  -0.263  1.00  0.00     0.103 C 
BRANCH  26  27
HETATM   27  S   UNL     1      39.979 -11.927   1.440  1.00  0.00    -0.162 SA
BRANCH  27  28
HETATM   28  C   UNL     1      41.519 -12.251   2.355  1.00  0.00     0.112 C 
BRANCH  28  29
HETATM   29  C   UNL     1      41.274 -13.169   3.532  1.00  0.00    -0.043 A 
HETATM   30  C   UNL     1      42.242 -14.093   3.986  1.00  0.00    -0.055 A 
HETATM   31  C   UNL     1      43.596 -14.211   3.340  1.00  0.00     0.049 C 
HETATM   32  C   UNL     1      41.941 -14.918   5.083  1.00  0.00     0.007 A 
HETATM   33  C   UNL     1      40.700 -14.850   5.713  1.00  0.00     0.001 A 
HETATM   34  C   UNL     1      39.738 -13.955   5.257  1.00  0.00     0.001 A 
HETATM   35  C   UNL     1      40.023 -13.121   4.176  1.00  0.00     0.008 A 
ENDBRANCH  28  29
ENDBRANCH  27  28
ENDBRANCH  26  27
ENDBRANCH   1  26
TORSDOF 7
ENDMDL
