MODEL 1
REMARK VINA RESULT:      -9.3      0.000      0.000
REMARK  5 active torsions:
REMARK  status: ('A' for Active; 'I' for Inactive)
REMARK    1  A    between atoms: O_2  and  C_3 
REMARK    2  A    between atoms: C_4  and  C_5 
REMARK    3  A    between atoms: C_9  and  S_10 
REMARK    4  A    between atoms: S_10  and  C_11 
REMARK    5  A    between atoms: C_11  and  C_12 
REMARK       I    between atoms: C_12  and  N_13 
ROOT
HETATM    1  C   UNL     1      44.588 -11.187   9.458  1.00  0.00     0.185 A 
HETATM    2  N   UNL     1      45.876 -10.866   9.256  1.00  0.00    -0.152 NA
HETATM    3  N   UNL     1      46.259 -11.803   8.375  1.00  0.00    -0.253 N 
HETATM    4  H   UNL     1      47.201 -11.772   8.010  1.00  0.00     0.191 HD
HETATM    5  C   UNL     1      45.241 -12.652   8.079  1.00  0.00     0.185 A 
HETATM    6  N   UNL     1      44.164 -12.279   8.726  1.00  0.00    -0.201 NA
ENDROOT
BRANCH   5   7
HETATM    7  S   UNL     1      45.341 -13.939   6.934  1.00  0.00    -0.081 SA
BRANCH   7   8
HETATM    8  C   UNL     1      43.611 -14.332   6.582  1.00  0.00     0.185 C 
BRANCH   8   9
HETATM    9  C   UNL     1      43.493 -15.136   5.292  1.00  0.00     0.234 C 
HETATM   10  N   UNL     1      43.639 -16.532   5.344  1.00  0.00    -0.317 N 
HETATM   11  C   UNL     1      43.599 -17.364   4.158  1.00  0.00     0.043 A 
HETATM   12  C   UNL     1      43.826 -17.274   6.602  1.00  0.00     0.132 C 
HETATM   13  C   UNL     1      44.122 -18.677   4.202  1.00  0.00    -0.031 A 
HETATM   14  C   UNL     1      43.051 -16.927   2.941  1.00  0.00     0.030 A 
HETATM   15  C   UNL     1      44.092 -19.496   3.055  1.00  0.00     0.009 A 
HETATM   16  C   UNL     1      44.713 -19.271   5.456  1.00  0.00     0.042 C 
HETATM   17  C   UNL     1      43.556 -19.029   1.861  1.00  0.00     0.001 A 
HETATM   18  C   UNL     1      43.032 -17.746   1.807  1.00  0.00     0.002 A 
HETATM   19  C   UNL     1      45.011 -18.216   6.503  1.00  0.00     0.025 C 
HETATM   20  O   UNL     1      43.340 -14.480   4.255  1.00  0.00    -0.272 OA
ENDBRANCH   8   9
ENDBRANCH   7   8
ENDBRANCH   5   7
BRANCH   1  21
HETATM   21  C   UNL     1      43.661 -10.387  10.252  1.00  0.00     0.048 A 
HETATM   22  C   UNL     1      42.499  -9.808   9.712  1.00  0.00     0.082 A 
HETATM   23  C   UNL     1      41.628  -9.081  10.535  1.00  0.00     0.039 A 
HETATM   24  C   UNL     1      41.893  -8.953  11.900  1.00  0.00     0.026 A 
HETATM   25  C   UNL     1      43.042  -9.527  12.437  1.00  0.00     0.035 A 
HETATM   26  C   UNL     1      43.926 -10.232  11.623  1.00  0.00     0.042 A 
HETATM   27 CL   UNL     1      43.368  -9.364  14.118  1.00  0.00    -0.084 Cl
BRANCH  22  28
HETATM   28  O   UNL     1      42.284  -9.869   8.358  1.00  0.00    -0.355 OA
HETATM   29  C   UNL     1      40.955 -10.263   8.019  1.00  0.00     0.210 C 
ENDBRANCH  22  28
ENDBRANCH   1  21
TORSDOF 5
ENDMDL
MODEL 2
REMARK VINA RESULT:      -9.2      6.693      8.583
REMARK  5 active torsions:
REMARK  status: ('A' for Active; 'I' for Inactive)
REMARK    1  A    between atoms: O_2  and  C_3 
REMARK    2  A    between atoms: C_4  and  C_5 
REMARK    3  A    between atoms: C_9  and  S_10 
REMARK    4  A    between atoms: S_10  and  C_11 
REMARK    5  A    between atoms: C_11  and  C_12 
REMARK       I    between atoms: C_12  and  N_13 
ROOT
HETATM    1  C   UNL     1      40.402 -15.569   1.782  1.00  0.00     0.185 A 
HETATM    2  N   UNL     1      39.924 -16.801   2.026  1.00  0.00    -0.152 NA
HETATM    3  N   UNL     1      40.335 -17.011   3.285  1.00  0.00    -0.253 N 
HETATM    4  H   UNL     1      40.070 -17.871   3.747  1.00  0.00     0.191 HD
HETATM    5  C   UNL     1      41.040 -15.952   3.763  1.00  0.00     0.185 A 
HETATM    6  N   UNL     1      41.081 -15.014   2.850  1.00  0.00    -0.201 NA
ENDROOT
BRANCH   5   7
HETATM    7  S   UNL     1      41.667 -15.835   5.365  1.00  0.00    -0.081 SA
BRANCH   7   8
HETATM    8  C   UNL     1      43.438 -16.132   5.153  1.00  0.00     0.185 C 
BRANCH   8   9
HETATM    9  C   UNL     1      43.750 -17.621   5.249  1.00  0.00     0.234 C 
HETATM   10  N   UNL     1      43.993 -18.342   4.069  1.00  0.00    -0.317 N 
HETATM   11  C   UNL     1      44.240 -19.770   4.066  1.00  0.00     0.043 A 
HETATM   12  C   UNL     1      44.037 -17.714   2.738  1.00  0.00     0.132 C 
HETATM   13  C   UNL     1      44.097 -20.507   2.867  1.00  0.00    -0.031 A 
HETATM   14  C   UNL     1      44.628 -20.477   5.216  1.00  0.00     0.030 A 
HETATM   15  C   UNL     1      44.332 -21.897   2.851  1.00  0.00     0.009 A 
HETATM   16  C   UNL     1      43.712 -19.859   1.561  1.00  0.00     0.042 C 
HETATM   17  C   UNL     1      44.700 -22.569   4.010  1.00  0.00     0.001 A 
HETATM   18  C   UNL     1      44.851 -21.858   5.190  1.00  0.00     0.002 A 
HETATM   19  C   UNL     1      43.155 -18.463   1.757  1.00  0.00     0.025 C 
HETATM   20  O   UNL     1      43.701 -18.115   6.381  1.00  0.00    -0.272 OA
ENDBRANCH   8   9
ENDBRANCH   7   8
ENDBRANCH   5   7
BRANCH   1  21
HETATM   21  C   UNL     1      40.116 -14.807   0.572  1.00  0.00     0.048 A 
HETATM   22  C   UNL     1      39.170 -13.767   0.531  1.00  0.00     0.082 A 
HETATM   23  C   UNL     1      38.968 -13.047  -0.654  1.00  0.00     0.039 A 
HETATM   24  C   UNL     1      39.724 -13.336  -1.791  1.00  0.00     0.026 A 
HETATM   25  C   UNL     1      40.663 -14.363  -1.753  1.00  0.00     0.035 A 
HETATM   26  C   UNL     1      40.855 -15.101  -0.587  1.00  0.00     0.042 A 
HETATM   27 CL   UNL     1      41.591 -14.720  -3.157  1.00  0.00    -0.084 Cl
BRANCH  22  28
HETATM   28  O   UNL     1      38.374 -13.539   1.626  1.00  0.00    -0.355 OA
HETATM   29  C   UNL     1      38.467 -12.203   2.116  1.00  0.00     0.210 C 
ENDBRANCH  22  28
ENDBRANCH   1  21
TORSDOF 5
ENDMDL
MODEL 3
REMARK VINA RESULT:      -9.1      6.415      8.492
REMARK  5 active torsions:
REMARK  status: ('A' for Active; 'I' for Inactive)
REMARK    1  A    between atoms: O_2  and  C_3 
REMARK    2  A    between atoms: C_4  and  C_5 
REMARK    3  A    between atoms: C_9  and  S_10 
REMARK    4  A    between atoms: S_10  and  C_11 
REMARK    5  A    between atoms: C_11  and  C_12 
REMARK       I    between atoms: C_12  and  N_13 
ROOT
HETATM    1  C   UNL     1      39.979 -15.237   1.974  1.00  0.00     0.185 A 
HETATM    2  N   UNL     1      39.861 -16.574   2.004  1.00  0.00    -0.152 NA
HETATM    3  N   UNL     1      40.416 -16.874   3.188  1.00  0.00    -0.253 N 
HETATM    4  H   UNL     1      40.425 -17.838   3.492  1.00  0.00     0.191 HD
HETATM    5  C   UNL     1      40.858 -15.759   3.827  1.00  0.00     0.185 A 
HETATM    6  N   UNL     1      40.576 -14.705   3.101  1.00  0.00    -0.201 NA
ENDROOT
BRANCH   5   7
HETATM    7  S   UNL     1      41.564 -15.747   5.400  1.00  0.00    -0.081 SA
BRANCH   7   8
HETATM    8  C   UNL     1      43.321 -16.032   5.082  1.00  0.00     0.185 C 
BRANCH   8   9
HETATM    9  C   UNL     1      43.658 -17.514   5.206  1.00  0.00     0.234 C 
HETATM   10  N   UNL     1      43.932 -18.249   4.042  1.00  0.00    -0.317 N 
HETATM   11  C   UNL     1      44.204 -19.673   4.067  1.00  0.00     0.043 A 
HETATM   12  C   UNL     1      43.987 -17.642   2.702  1.00  0.00     0.132 C 
HETATM   13  C   UNL     1      44.094 -20.431   2.877  1.00  0.00    -0.031 A 
HETATM   14  C   UNL     1      44.584 -20.354   5.234  1.00  0.00     0.030 A 
HETATM   15  C   UNL     1      44.353 -21.816   2.887  1.00  0.00     0.009 A 
HETATM   16  C   UNL     1      43.720 -19.811   1.555  1.00  0.00     0.042 C 
HETATM   17  C   UNL     1      44.713 -22.464   4.063  1.00  0.00     0.001 A 
HETATM   18  C   UNL     1      44.832 -21.731   5.234  1.00  0.00     0.002 A 
HETATM   19  C   UNL     1      43.135 -18.422   1.720  1.00  0.00     0.025 C 
HETATM   20  O   UNL     1      43.598 -17.991   6.346  1.00  0.00    -0.272 OA
ENDBRANCH   8   9
ENDBRANCH   7   8
ENDBRANCH   5   7
BRANCH   1  21
HETATM   21  C   UNL     1      39.405 -14.389   0.936  1.00  0.00     0.048 A 
HETATM   22  C   UNL     1      39.878 -14.379  -0.388  1.00  0.00     0.082 A 
HETATM   23  C   UNL     1      39.259 -13.568  -1.350  1.00  0.00     0.039 A 
HETATM   24  C   UNL     1      38.152 -12.789  -1.008  1.00  0.00     0.026 A 
HETATM   25  C   UNL     1      37.681 -12.799   0.303  1.00  0.00     0.035 A 
HETATM   26  C   UNL     1      38.303 -13.583   1.272  1.00  0.00     0.042 A 
HETATM   27 CL   UNL     1      36.319 -11.835   0.724  1.00  0.00    -0.084 Cl
BRANCH  22  28
HETATM   28  O   UNL     1      41.013 -15.084  -0.702  1.00  0.00    -0.355 OA
HETATM   29  C   UNL     1      41.029 -15.546  -2.051  1.00  0.00     0.210 C 
ENDBRANCH  22  28
ENDBRANCH   1  21
TORSDOF 5
ENDMDL
MODEL 4
REMARK VINA RESULT:      -9.1      7.660      9.740
REMARK  5 active torsions:
REMARK  status: ('A' for Active; 'I' for Inactive)
REMARK    1  A    between atoms: O_2  and  C_3 
REMARK    2  A    between atoms: C_4  and  C_5 
REMARK    3  A    between atoms: C_9  and  S_10 
REMARK    4  A    between atoms: S_10  and  C_11 
REMARK    5  A    between atoms: C_11  and  C_12 
REMARK       I    between atoms: C_12  and  N_13 
ROOT
HETATM    1  C   UNL     1      40.987 -14.448  -1.228  1.00  0.00     0.185 A 
HETATM    2  N   UNL     1      41.002 -15.772  -1.454  1.00  0.00    -0.152 NA
HETATM    3  N   UNL     1      41.274 -16.258  -0.234  1.00  0.00    -0.253 N 
HETATM    4  H   UNL     1      41.305 -17.260  -0.104  1.00  0.00     0.191 HD
HETATM    5  C   UNL     1      41.428 -15.260   0.675  1.00  0.00     0.185 A 
HETATM    6  N   UNL     1      41.229 -14.106   0.088  1.00  0.00    -0.201 NA
ENDROOT
BRANCH   5   7
HETATM    7  S   UNL     1      41.717 -15.505   2.358  1.00  0.00    -0.081 SA
BRANCH   7   8
HETATM    8  C   UNL     1      43.475 -15.925   2.432  1.00  0.00     0.185 C 
BRANCH   8   9
HETATM    9  C   UNL     1      43.683 -17.416   2.193  1.00  0.00     0.234 C 
HETATM   10  N   UNL     1      43.771 -18.277   3.299  1.00  0.00    -0.317 N 
HETATM   11  C   UNL     1      44.026 -19.697   3.162  1.00  0.00     0.043 A 
HETATM   12  C   UNL     1      43.597 -17.821   4.688  1.00  0.00     0.132 C 
HETATM   13  C   UNL     1      44.483 -20.441   4.275  1.00  0.00    -0.031 A 
HETATM   14  C   UNL     1      43.833 -20.391   1.956  1.00  0.00     0.030 A 
HETATM   15  C   UNL     1      44.736 -21.823   4.154  1.00  0.00     0.009 A 
HETATM   16  C   UNL     1      44.702 -19.817   5.629  1.00  0.00     0.042 C 
HETATM   17  C   UNL     1      44.550 -22.477   2.943  1.00  0.00     0.001 A 
HETATM   18  C   UNL     1      44.095 -21.761   1.846  1.00  0.00     0.002 A 
HETATM   19  C   UNL     1      44.739 -18.303   5.562  1.00  0.00     0.025 C 
HETATM   20  O   UNL     1      43.829 -17.762   1.015  1.00  0.00    -0.272 OA
ENDBRANCH   8   9
ENDBRANCH   7   8
ENDBRANCH   5   7
BRANCH   1  21
HETATM   21  C   UNL     1      40.604 -13.453  -2.223  1.00  0.00     0.048 A 
HETATM   22  C   UNL     1      39.276 -13.030  -2.408  1.00  0.00     0.082 A 
HETATM   23  C   UNL     1      38.978 -12.043  -3.356  1.00  0.00     0.039 A 
HETATM   24  C   UNL     1      39.999 -11.451  -4.102  1.00  0.00     0.026 A 
HETATM   25  C   UNL     1      41.315 -11.867  -3.920  1.00  0.00     0.035 A 
HETATM   26  C   UNL     1      41.620 -12.865  -2.997  1.00  0.00     0.042 A 
HETATM   27 CL   UNL     1      42.572 -11.139  -4.843  1.00  0.00    -0.084 Cl
BRANCH  22  28
HETATM   28  O   UNL     1      38.267 -13.669  -1.731  1.00  0.00    -0.355 OA
HETATM   29  C   UNL     1      37.719 -12.884  -0.673  1.00  0.00     0.210 C 
ENDBRANCH  22  28
ENDBRANCH   1  21
TORSDOF 5
ENDMDL
MODEL 5
REMARK VINA RESULT:      -8.9      6.653      8.548
REMARK  5 active torsions:
REMARK  status: ('A' for Active; 'I' for Inactive)
REMARK    1  A    between atoms: O_2  and  C_3 
REMARK    2  A    between atoms: C_4  and  C_5 
REMARK    3  A    between atoms: C_9  and  S_10 
REMARK    4  A    between atoms: S_10  and  C_11 
REMARK    5  A    between atoms: C_11  and  C_12 
REMARK       I    between atoms: C_12  and  N_13 
ROOT
HETATM    1  C   UNL     1      41.848 -12.443   0.757  1.00  0.00     0.185 A 
HETATM    2  N   UNL     1      41.450 -11.414   1.522  1.00  0.00    -0.152 NA
HETATM    3  N   UNL     1      41.759 -11.849   2.753  1.00  0.00    -0.253 N 
HETATM    4  H   UNL     1      41.598 -11.237   3.541  1.00  0.00     0.191 HD
HETATM    5  C   UNL     1      42.306 -13.092   2.717  1.00  0.00     0.185 A 
HETATM    6  N   UNL     1      42.400 -13.488   1.472  1.00  0.00    -0.201 NA
ENDROOT
BRANCH   5   7
HETATM    7  S   UNL     1      42.890 -13.945   4.098  1.00  0.00    -0.081 SA
BRANCH   7   8
HETATM    8  C   UNL     1      41.703 -15.295   4.301  1.00  0.00     0.185 C 
BRANCH   8   9
HETATM    9  C   UNL     1      42.193 -16.553   3.594  1.00  0.00     0.234 C 
HETATM   10  N   UNL     1      42.854 -17.540   4.343  1.00  0.00    -0.317 N 
HETATM   11  C   UNL     1      43.402 -18.739   3.740  1.00  0.00     0.043 A 
HETATM   12  C   UNL     1      43.034 -17.456   5.802  1.00  0.00     0.132 C 
HETATM   13  C   UNL     1      44.371 -19.498   4.437  1.00  0.00    -0.031 A 
HETATM   14  C   UNL     1      43.009 -19.200   2.473  1.00  0.00     0.030 A 
HETATM   15  C   UNL     1      44.914 -20.664   3.861  1.00  0.00     0.009 A 
HETATM   16  C   UNL     1      44.856 -19.121   5.814  1.00  0.00     0.042 C 
HETATM   17  C   UNL     1      44.514 -21.086   2.598  1.00  0.00     0.001 A 
HETATM   18  C   UNL     1      43.559 -20.356   1.908  1.00  0.00     0.002 A 
HETATM   19  C   UNL     1      44.482 -17.699   6.183  1.00  0.00     0.025 C 
HETATM   20  O   UNL     1      42.029 -16.588   2.369  1.00  0.00    -0.272 OA
ENDBRANCH   8   9
ENDBRANCH   7   8
ENDBRANCH   5   7
BRANCH   1  21
HETATM   21  C   UNL     1      41.849 -12.423  -0.702  1.00  0.00     0.048 A 
HETATM   22  C   UNL     1      42.791 -11.699  -1.454  1.00  0.00     0.082 A 
HETATM   23  C   UNL     1      42.762 -11.750  -2.854  1.00  0.00     0.039 A 
HETATM   24  C   UNL     1      41.820 -12.544  -3.510  1.00  0.00     0.026 A 
HETATM   25  C   UNL     1      40.889 -13.265  -2.768  1.00  0.00     0.035 A 
HETATM   26  C   UNL     1      40.892 -13.202  -1.376  1.00  0.00     0.042 A 
HETATM   27 CL   UNL     1      39.725 -14.239  -3.579  1.00  0.00    -0.084 Cl
BRANCH  22  28
HETATM   28  O   UNL     1      43.664 -10.858  -0.808  1.00  0.00    -0.355 OA
HETATM   29  C   UNL     1      43.799  -9.592  -1.450  1.00  0.00     0.210 C 
ENDBRANCH  22  28
ENDBRANCH   1  21
TORSDOF 5
ENDMDL
MODEL 6
REMARK VINA RESULT:      -8.7      6.944      9.687
REMARK  5 active torsions:
REMARK  status: ('A' for Active; 'I' for Inactive)
REMARK    1  A    between atoms: O_2  and  C_3 
REMARK    2  A    between atoms: C_4  and  C_5 
REMARK    3  A    between atoms: C_9  and  S_10 
REMARK    4  A    between atoms: S_10  and  C_11 
REMARK    5  A    between atoms: C_11  and  C_12 
REMARK       I    between atoms: C_12  and  N_13 
ROOT
HETATM    1  C   UNL     1      42.315 -17.513   4.132  1.00  0.00     0.185 A 
HETATM    2  N   UNL     1      41.143 -17.614   4.781  1.00  0.00    -0.152 NA
HETATM    3  N   UNL     1      40.544 -16.460   4.452  1.00  0.00    -0.253 N 
HETATM    4  H   UNL     1      39.604 -16.288   4.782  1.00  0.00     0.191 HD
HETATM    5  C   UNL     1      41.335 -15.700   3.650  1.00  0.00     0.185 A 
HETATM    6  N   UNL     1      42.450 -16.344   3.407  1.00  0.00    -0.201 NA
ENDROOT
BRANCH   5   7
HETATM    7  S   UNL     1      40.872 -14.184   2.970  1.00  0.00    -0.081 SA
BRANCH   7   8
HETATM    8  C   UNL     1      42.051 -13.943   1.620  1.00  0.00     0.185 C 
BRANCH   8   9
HETATM    9  C   UNL     1      41.548 -14.604   0.341  1.00  0.00     0.234 C 
HETATM   10  N   UNL     1      40.613 -13.922  -0.454  1.00  0.00    -0.317 N 
HETATM   11  C   UNL     1      40.041 -14.502  -1.653  1.00  0.00     0.043 A 
HETATM   12  C   UNL     1      40.145 -12.559  -0.154  1.00  0.00     0.132 C 
HETATM   13  C   UNL     1      38.850 -13.964  -2.196  1.00  0.00    -0.031 A 
HETATM   14  C   UNL     1      40.622 -15.591  -2.322  1.00  0.00     0.030 A 
HETATM   15  C   UNL     1      38.282 -14.520  -3.360  1.00  0.00     0.009 A 
HETATM   16  C   UNL     1      38.146 -12.779  -1.585  1.00  0.00     0.042 C 
HETATM   17  C   UNL     1      38.874 -15.608  -3.990  1.00  0.00     0.001 A 
HETATM   18  C   UNL     1      40.045 -16.140  -3.473  1.00  0.00     0.002 A 
HETATM   19  C   UNL     1      38.630 -12.489  -0.178  1.00  0.00     0.025 C 
HETATM   20  O   UNL     1      41.959 -15.749   0.124  1.00  0.00    -0.272 OA
ENDBRANCH   8   9
ENDBRANCH   7   8
ENDBRANCH   5   7
BRANCH   1  21
HETATM   21  C   UNL     1      43.303 -18.583   4.056  1.00  0.00     0.048 A 
HETATM   22  C   UNL     1      44.256 -18.813   5.064  1.00  0.00     0.082 A 
HETATM   23  C   UNL     1      45.156 -19.881   4.951  1.00  0.00     0.039 A 
HETATM   24  C   UNL     1      45.092 -20.742   3.853  1.00  0.00     0.026 A 
HETATM   25  C   UNL     1      44.148 -20.517   2.855  1.00  0.00     0.035 A 
HETATM   26  C   UNL     1      43.264 -19.444   2.946  1.00  0.00     0.042 A 
HETATM   27 CL   UNL     1      44.074 -21.577   1.501  1.00  0.00    -0.084 Cl
BRANCH  22  28
HETATM   28  O   UNL     1      44.367 -17.920   6.101  1.00  0.00    -0.355 OA
HETATM   29  C   UNL     1      44.002 -18.477   7.361  1.00  0.00     0.210 C 
ENDBRANCH  22  28
ENDBRANCH   1  21
TORSDOF 5
ENDMDL
MODEL 7
REMARK VINA RESULT:      -8.7      7.165     10.178
REMARK  5 active torsions:
REMARK  status: ('A' for Active; 'I' for Inactive)
REMARK    1  A    between atoms: O_2  and  C_3 
REMARK    2  A    between atoms: C_4  and  C_5 
REMARK    3  A    between atoms: C_9  and  S_10 
REMARK    4  A    between atoms: S_10  and  C_11 
REMARK    5  A    between atoms: C_11  and  C_12 
REMARK       I    between atoms: C_12  and  N_13 
ROOT
HETATM    1  C   UNL     1      42.265 -17.746   3.887  1.00  0.00     0.185 A 
HETATM    2  N   UNL     1      41.267 -17.694   4.785  1.00  0.00    -0.152 NA
HETATM    3  N   UNL     1      40.550 -16.652   4.339  1.00  0.00    -0.253 N 
HETATM    4  H   UNL     1      39.694 -16.408   4.820  1.00  0.00     0.191 HD
HETATM    5  C   UNL     1      41.108 -16.100   3.230  1.00  0.00     0.185 A 
HETATM    6  N   UNL     1      42.179 -16.780   2.902  1.00  0.00    -0.201 NA
ENDROOT
BRANCH   5   7
HETATM    7  S   UNL     1      40.429 -14.788   2.341  1.00  0.00    -0.081 SA
BRANCH   7   8
HETATM    8  C   UNL     1      41.402 -14.756   0.817  1.00  0.00     0.185 C 
BRANCH   8   9
HETATM    9  C   UNL     1      41.922 -13.350   0.539  1.00  0.00     0.234 C 
HETATM   10  N   UNL     1      41.768 -12.810  -0.748  1.00  0.00    -0.317 N 
HETATM   11  C   UNL     1      42.284 -11.505  -1.112  1.00  0.00     0.043 A 
HETATM   12  C   UNL     1      41.056 -13.506  -1.832  1.00  0.00     0.132 C 
HETATM   13  C   UNL     1      42.448 -11.168  -2.476  1.00  0.00    -0.031 A 
HETATM   14  C   UNL     1      42.632 -10.533  -0.160  1.00  0.00     0.030 A 
HETATM   15  C   UNL     1      42.951  -9.904  -2.843  1.00  0.00     0.009 A 
HETATM   16  C   UNL     1      42.085 -12.115  -3.592  1.00  0.00     0.042 C 
HETATM   17  C   UNL     1      43.301  -8.969  -1.876  1.00  0.00     0.001 A 
HETATM   18  C   UNL     1      43.138  -9.284  -0.536  1.00  0.00     0.002 A 
HETATM   19  C   UNL     1      41.892 -13.535  -3.097  1.00  0.00     0.025 C 
HETATM   20  O   UNL     1      42.517 -12.796   1.471  1.00  0.00    -0.272 OA
ENDBRANCH   8   9
ENDBRANCH   7   8
ENDBRANCH   5   7
BRANCH   1  21
HETATM   21  C   UNL     1      43.271 -18.801   3.843  1.00  0.00     0.048 A 
HETATM   22  C   UNL     1      44.210 -19.002   4.870  1.00  0.00     0.082 A 
HETATM   23  C   UNL     1      45.129 -20.057   4.787  1.00  0.00     0.039 A 
HETATM   24  C   UNL     1      45.097 -20.933   3.700  1.00  0.00     0.026 A 
HETATM   25  C   UNL     1      44.166 -20.738   2.683  1.00  0.00     0.035 A 
HETATM   26  C   UNL     1      43.265 -19.677   2.745  1.00  0.00     0.042 A 
HETATM   27 CL   UNL     1      44.132 -21.816   1.343  1.00  0.00    -0.084 Cl
BRANCH  22  28
HETATM   28  O   UNL     1      44.290 -18.093   5.896  1.00  0.00    -0.355 OA
HETATM   29  C   UNL     1      43.923 -18.643   7.160  1.00  0.00     0.210 C 
ENDBRANCH  22  28
ENDBRANCH   1  21
TORSDOF 5
ENDMDL
MODEL 8
REMARK VINA RESULT:      -8.7      2.150      2.789
REMARK  5 active torsions:
REMARK  status: ('A' for Active; 'I' for Inactive)
REMARK    1  A    between atoms: O_2  and  C_3 
REMARK    2  A    between atoms: C_4  and  C_5 
REMARK    3  A    between atoms: C_9  and  S_10 
REMARK    4  A    between atoms: S_10  and  C_11 
REMARK    5  A    between atoms: C_11  and  C_12 
REMARK       I    between atoms: C_12  and  N_13 
ROOT
HETATM    1  C   UNL     1      42.297 -10.639   8.248  1.00  0.00     0.185 A 
HETATM    2  N   UNL     1      41.841  -9.511   7.678  1.00  0.00    -0.152 NA
HETATM    3  N   UNL     1      41.494  -9.940   6.456  1.00  0.00    -0.253 N 
HETATM    4  H   UNL     1      41.072  -9.285   5.811  1.00  0.00     0.191 HD
HETATM    5  C   UNL     1      41.747 -11.266   6.303  1.00  0.00     0.185 A 
HETATM    6  N   UNL     1      42.231 -11.745   7.422  1.00  0.00    -0.201 NA
ENDROOT
BRANCH   5   7
HETATM    7  S   UNL     1      41.368 -12.179   4.890  1.00  0.00    -0.081 SA
BRANCH   7   8
HETATM    8  C   UNL     1      40.972 -13.821   5.536  1.00  0.00     0.185 C 
BRANCH   8   9
HETATM    9  C   UNL     1      41.336 -14.901   4.524  1.00  0.00     0.234 C 
HETATM   10  N   UNL     1      42.077 -16.014   4.953  1.00  0.00    -0.317 N 
HETATM   11  C   UNL     1      42.514 -17.056   4.045  1.00  0.00     0.043 A 
HETATM   12  C   UNL     1      42.459 -16.232   6.358  1.00  0.00     0.132 C 
HETATM   13  C   UNL     1      43.557 -17.932   4.428  1.00  0.00    -0.031 A 
HETATM   14  C   UNL     1      41.941 -17.250   2.778  1.00  0.00     0.030 A 
HETATM   15  C   UNL     1      43.993 -18.948   3.554  1.00  0.00     0.009 A 
HETATM   16  C   UNL     1      44.234 -17.843   5.773  1.00  0.00     0.042 C 
HETATM   17  C   UNL     1      43.415 -19.104   2.300  1.00  0.00     0.001 A 
HETATM   18  C   UNL     1      42.386 -18.257   1.915  1.00  0.00     0.002 A 
HETATM   19  C   UNL     1      43.941 -16.532   6.476  1.00  0.00     0.025 C 
HETATM   20  O   UNL     1      41.003 -14.684   3.353  1.00  0.00    -0.272 OA
ENDBRANCH   8   9
ENDBRANCH   7   8
ENDBRANCH   5   7
BRANCH   1  21
HETATM   21  C   UNL     1      42.686 -10.747   9.649  1.00  0.00     0.048 A 
HETATM   22  C   UNL     1      44.023 -10.670  10.077  1.00  0.00     0.082 A 
HETATM   23  C   UNL     1      44.330 -10.744  11.443  1.00  0.00     0.039 A 
HETATM   24  C   UNL     1      43.310 -10.864  12.388  1.00  0.00     0.026 A 
HETATM   25  C   UNL     1      41.985 -10.939  11.967  1.00  0.00     0.035 A 
HETATM   26  C   UNL     1      41.670 -10.890  10.611  1.00  0.00     0.042 A 
HETATM   27 CL   UNL     1      40.729 -11.091  13.133  1.00  0.00    -0.084 Cl
BRANCH  22  28
HETATM   28  O   UNL     1      45.027 -10.632   9.142  1.00  0.00    -0.355 OA
HETATM   29  C   UNL     1      45.699 -11.880   8.990  1.00  0.00     0.210 C 
ENDBRANCH  22  28
ENDBRANCH   1  21
TORSDOF 5
ENDMDL
MODEL 9
REMARK VINA RESULT:      -8.5      6.781      9.377
REMARK  5 active torsions:
REMARK  status: ('A' for Active; 'I' for Inactive)
REMARK    1  A    between atoms: O_2  and  C_3 
REMARK    2  A    between atoms: C_4  and  C_5 
REMARK    3  A    between atoms: C_9  and  S_10 
REMARK    4  A    between atoms: S_10  and  C_11 
REMARK    5  A    between atoms: C_11  and  C_12 
REMARK       I    between atoms: C_12  and  N_13 
ROOT
HETATM    1  C   UNL     1      43.076 -17.323   3.575  1.00  0.00     0.185 A 
HETATM    2  N   UNL     1      43.722 -16.207   3.199  1.00  0.00    -0.152 NA
HETATM    3  N   UNL     1      42.782 -15.269   3.381  1.00  0.00    -0.253 N 
HETATM    4  H   UNL     1      43.019 -14.301   3.208  1.00  0.00     0.191 HD
HETATM    5  C   UNL     1      41.621 -15.809   3.834  1.00  0.00     0.185 A 
HETATM    6  N   UNL     1      41.778 -17.100   3.992  1.00  0.00    -0.201 NA
ENDROOT
BRANCH   5   7
HETATM    7  S   UNL     1      40.213 -14.902   4.247  1.00  0.00    -0.081 SA
BRANCH   7   8
HETATM    8  C   UNL     1      40.214 -13.545   3.052  1.00  0.00     0.185 C 
BRANCH   8   9
HETATM    9  C   UNL     1      40.275 -14.083   1.626  1.00  0.00     0.234 C 
HETATM   10  N   UNL     1      41.202 -13.528   0.730  1.00  0.00    -0.317 N 
HETATM   11  C   UNL     1      41.286 -13.941  -0.658  1.00  0.00     0.043 A 
HETATM   12  C   UNL     1      42.178 -12.497   1.118  1.00  0.00     0.132 C 
HETATM   13  C   UNL     1      41.943 -13.114  -1.599  1.00  0.00    -0.031 A 
HETATM   14  C   UNL     1      40.743 -15.148  -1.126  1.00  0.00     0.030 A 
HETATM   15  C   UNL     1      42.030 -13.502  -2.951  1.00  0.00     0.009 A 
HETATM   16  C   UNL     1      42.589 -11.807  -1.216  1.00  0.00     0.042 C 
HETATM   17  C   UNL     1      41.468 -14.697  -3.386  1.00  0.00     0.001 A 
HETATM   18  C   UNL     1      40.828 -15.520  -2.472  1.00  0.00     0.002 A 
HETATM   19  C   UNL     1      42.144 -11.328   0.152  1.00  0.00     0.025 C 
HETATM   20  O   UNL     1      39.438 -14.945   1.334  1.00  0.00    -0.272 OA
ENDBRANCH   8   9
ENDBRANCH   7   8
ENDBRANCH   5   7
BRANCH   1  21
HETATM   21  C   UNL     1      43.706 -18.633   3.688  1.00  0.00     0.048 A 
HETATM   22  C   UNL     1      44.381 -19.058   4.846  1.00  0.00     0.082 A 
HETATM   23  C   UNL     1      44.934 -20.344   4.907  1.00  0.00     0.039 A 
HETATM   24  C   UNL     1      44.793 -21.222   3.831  1.00  0.00     0.026 A 
HETATM   25  C   UNL     1      44.123 -20.805   2.684  1.00  0.00     0.035 A 
HETATM   26  C   UNL     1      43.590 -19.520   2.604  1.00  0.00     0.042 A 
HETATM   27 CL   UNL     1      43.954 -21.888   1.357  1.00  0.00    -0.084 Cl
BRANCH  22  28
HETATM   28  O   UNL     1      44.586 -18.166   5.870  1.00  0.00    -0.355 OA
HETATM   29  C   UNL     1      43.833 -18.474   7.041  1.00  0.00     0.210 C 
ENDBRANCH  22  28
ENDBRANCH   1  21
TORSDOF 5
ENDMDL
MODEL 10
REMARK VINA RESULT:      -8.5      6.146      8.442
REMARK  5 active torsions:
REMARK  status: ('A' for Active; 'I' for Inactive)
REMARK    1  A    between atoms: O_2  and  C_3 
REMARK    2  A    between atoms: C_4  and  C_5 
REMARK    3  A    between atoms: C_9  and  S_10 
REMARK    4  A    between atoms: S_10  and  C_11 
REMARK    5  A    between atoms: C_11  and  C_12 
REMARK       I    between atoms: C_12  and  N_13 
ROOT
HETATM    1  C   UNL     1      40.964 -13.236   1.232  1.00  0.00     0.185 A 
HETATM    2  N   UNL     1      39.897 -12.590   1.729  1.00  0.00    -0.152 NA
HETATM    3  N   UNL     1      39.762 -13.166   2.932  1.00  0.00    -0.253 N 
HETATM    4  H   UNL     1      39.038 -12.831   3.554  1.00  0.00     0.191 HD
HETATM    5  C   UNL     1      40.703 -14.125   3.134  1.00  0.00     0.185 A 
HETATM    6  N   UNL     1      41.494 -14.179   2.091  1.00  0.00    -0.201 NA
ENDROOT
BRANCH   5   7
HETATM    7  S   UNL     1      40.883 -15.029   4.592  1.00  0.00    -0.081 SA
BRANCH   7   8
HETATM    8  C   UNL     1      42.675 -15.115   4.822  1.00  0.00     0.185 C 
BRANCH   8   9
HETATM    9  C   UNL     1      43.126 -16.560   5.001  1.00  0.00     0.234 C 
HETATM   10  N   UNL     1      43.589 -17.272   3.883  1.00  0.00    -0.317 N 
HETATM   11  C   UNL     1      43.982 -18.665   3.955  1.00  0.00     0.043 A 
HETATM   12  C   UNL     1      43.734 -16.667   2.549  1.00  0.00     0.132 C 
HETATM   13  C   UNL     1      44.069 -19.434   2.771  1.00  0.00    -0.031 A 
HETATM   14  C   UNL     1      44.293 -19.306   5.165  1.00  0.00     0.030 A 
HETATM   15  C   UNL     1      44.447 -20.791   2.826  1.00  0.00     0.009 A 
HETATM   16  C   UNL     1      43.785 -18.855   1.408  1.00  0.00     0.042 C 
HETATM   17  C   UNL     1      44.735 -21.399   4.042  1.00  0.00     0.001 A 
HETATM   18  C   UNL     1      44.661 -20.655   5.210  1.00  0.00     0.002 A 
HETATM   19  C   UNL     1      43.065 -17.523   1.491  1.00  0.00     0.025 C 
HETATM   20  O   UNL     1      42.987 -17.037   6.134  1.00  0.00    -0.272 OA
ENDBRANCH   8   9
ENDBRANCH   7   8
ENDBRANCH   5   7
BRANCH   1  21
HETATM   21  C   UNL     1      41.615 -12.892  -0.027  1.00  0.00     0.048 A 
HETATM   22  C   UNL     1      41.496 -13.677  -1.187  1.00  0.00     0.082 A 
HETATM   23  C   UNL     1      42.116 -13.273  -2.377  1.00  0.00     0.039 A 
HETATM   24  C   UNL     1      42.830 -12.074  -2.427  1.00  0.00     0.026 A 
HETATM   25  C   UNL     1      42.948 -11.294  -1.280  1.00  0.00     0.035 A 
HETATM   26  C   UNL     1      42.356 -11.698  -0.086  1.00  0.00     0.042 A 
HETATM   27 CL   UNL     1      43.832  -9.819  -1.342  1.00  0.00    -0.084 Cl
BRANCH  22  28
HETATM   28  O   UNL     1      40.861 -14.892  -1.114  1.00  0.00    -0.355 OA
HETATM   29  C   UNL     1      40.863 -15.599  -2.353  1.00  0.00     0.210 C 
ENDBRANCH  22  28
ENDBRANCH   1  21
TORSDOF 5
ENDMDL
