MODEL 1
REMARK VINA RESULT:      -9.7      0.000      0.000
REMARK  9 active torsions:
REMARK  status: ('A' for Active; 'I' for Inactive)
REMARK    1  A    between atoms: C_2  and  O_3 
REMARK    2  A    between atoms: O_3  and  C_4 
REMARK    3  A    between atoms: C_7  and  C_8 
REMARK    4  A    between atoms: C_9  and  C_10 
REMARK       I    between atoms: C_10  and  N_11 
REMARK    5  A    between atoms: N_11  and  C_12 
REMARK    6  A    between atoms: C_22  and  S_23 
REMARK    7  A    between atoms: S_23  and  C_24 
REMARK    8  A    between atoms: C_24  and  C_25 
REMARK       I    between atoms: C_25  and  N_26 
REMARK    9  A    between atoms: N_26  and  C_27 
ROOT
HETATM    1  C   UNL     1      41.040 -14.367   4.513  1.00  0.00     0.104 C 
HETATM    2  C   UNL     1      42.202 -15.078   5.210  1.00  0.00     0.046 C 
HETATM    3  C   UNL     1      43.075 -14.375   5.967  1.00  0.00     0.019 C 
HETATM    4  C   UNL     1      44.370 -14.904   6.534  1.00  0.00     0.069 C 
HETATM    5  N   UNL     1      42.798 -13.051   6.267  1.00  0.00    -0.353 N 
HETATM    6  C   UNL     1      41.594 -12.414   6.008  1.00  0.00     0.087 C 
HETATM    7  C   UNL     1      40.742 -12.993   5.116  1.00  0.00     0.055 C 
HETATM    8  C   UNL     1      39.462 -12.297   4.685  1.00  0.00     0.019 C 
HETATM    9  N   UNL     1      38.398 -11.721   4.328  1.00  0.00    -0.096 N 
HETATM   10  H   UNL     1      43.448 -12.612   6.920  1.00  0.00     0.166 HD
ENDROOT
BRANCH   1  11
HETATM   11  C   UNL     1      41.236 -14.258   3.000  1.00  0.00    -0.044 A 
HETATM   12  C   UNL     1      40.562 -15.140   2.140  1.00  0.00     0.011 A 
HETATM   13  C   UNL     1      40.718 -15.052   0.752  1.00  0.00     0.037 A 
HETATM   14  C   UNL     1      41.554 -14.083   0.199  1.00  0.00     0.068 A 
HETATM   15  C   UNL     1      42.223 -13.199   1.046  1.00  0.00     0.037 A 
HETATM   16  C   UNL     1      42.061 -13.274   2.432  1.00  0.00     0.011 A 
BRANCH  14  17
HETATM   17  O   UNL     1      41.805 -13.900  -1.132  1.00  0.00    -0.352 OA
BRANCH  17  18
HETATM   18  C   UNL     1      40.736 -14.179  -2.036  1.00  0.00     0.171 C 
HETATM   19  C   UNL     1      41.188 -15.295  -2.961  1.00  0.00     0.034 C 
ENDBRANCH  17  18
ENDBRANCH  14  17
ENDBRANCH   1  11
BRANCH   6  20
HETATM   20  S   UNL     1      41.069 -10.937   6.820  1.00  0.00    -0.102 SA
BRANCH  20  21
HETATM   21  C   UNL     1      40.268 -11.441   8.350  1.00  0.00     0.184 C 
BRANCH  21  22
HETATM   22  C   UNL     1      40.673 -10.612   9.552  1.00  0.00     0.231 C 
HETATM   23  N   UNL     1      41.469 -11.263  10.473  1.00  0.00    -0.326 N 
HETATM   24  H   UNL     1      41.947 -12.093  10.141  1.00  0.00     0.169 HD
HETATM   25  O   UNL     1      40.320  -9.433   9.612  1.00  0.00    -0.272 OA
BRANCH  23  26
HETATM   26  C   UNL     1      41.827 -10.778  11.754  1.00  0.00     0.040 A 
HETATM   27  C   UNL     1      43.131 -10.289  11.977  1.00  0.00    -0.035 A 
HETATM   28  C   UNL     1      44.150 -10.178  10.876  1.00  0.00     0.050 C 
HETATM   29  C   UNL     1      43.497  -9.871  13.270  1.00  0.00     0.009 A 
HETATM   30  C   UNL     1      42.592  -9.929  14.327  1.00  0.00     0.001 A 
HETATM   31  C   UNL     1      41.306 -10.405  14.105  1.00  0.00     0.002 A 
HETATM   32  C   UNL     1      40.927 -10.825  12.828  1.00  0.00     0.030 A 
ENDBRANCH  23  26
ENDBRANCH  21  22
ENDBRANCH  20  21
ENDBRANCH   6  20
BRANCH   2  33
HETATM   33  C   UNL     1      42.270 -16.564   5.030  1.00  0.00     0.255 C 
HETATM   34  N   UNL     1      43.253 -16.950   4.137  1.00  0.00    -0.323 N 
HETATM   35  H   UNL     1      43.811 -16.216   3.721  1.00  0.00     0.169 HD
HETATM   36  O   UNL     1      41.558 -17.300   5.696  1.00  0.00    -0.268 OA
BRANCH  34  37
HETATM   37  C   UNL     1      43.540 -18.253   3.678  1.00  0.00     0.035 A 
HETATM   38  C   UNL     1      43.106 -18.765   2.456  1.00  0.00     0.029 A 
HETATM   39  C   UNL     1      43.454 -20.064   2.071  1.00  0.00     0.002 A 
HETATM   40  C   UNL     1      44.246 -20.857   2.899  1.00  0.00     0.000 A 
HETATM   41  C   UNL     1      44.687 -20.353   4.119  1.00  0.00     0.002 A 
HETATM   42  C   UNL     1      44.329 -19.060   4.510  1.00  0.00     0.029 A 
ENDBRANCH  34  37
ENDBRANCH   2  33
TORSDOF 9
ENDMDL
MODEL 2
REMARK VINA RESULT:      -9.4      5.446      9.343
REMARK  9 active torsions:
REMARK  status: ('A' for Active; 'I' for Inactive)
REMARK    1  A    between atoms: C_2  and  O_3 
REMARK    2  A    between atoms: O_3  and  C_4 
REMARK    3  A    between atoms: C_7  and  C_8 
REMARK    4  A    between atoms: C_9  and  C_10 
REMARK       I    between atoms: C_10  and  N_11 
REMARK    5  A    between atoms: N_11  and  C_12 
REMARK    6  A    between atoms: C_22  and  S_23 
REMARK    7  A    between atoms: S_23  and  C_24 
REMARK    8  A    between atoms: C_24  and  C_25 
REMARK       I    between atoms: C_25  and  N_26 
REMARK    9  A    between atoms: N_26  and  C_27 
ROOT
HETATM    1  C   UNL     1      41.285 -14.019  -0.273  1.00  0.00     0.104 C 
HETATM    2  C   UNL     1      41.494 -12.527  -0.002  1.00  0.00     0.046 C 
HETATM    3  C   UNL     1      41.043 -11.973   1.146  1.00  0.00     0.019 C 
HETATM    4  C   UNL     1      40.994 -10.495   1.449  1.00  0.00     0.069 C 
HETATM    5  N   UNL     1      40.569 -12.796   2.155  1.00  0.00    -0.353 N 
HETATM    6  C   UNL     1      40.684 -14.179   2.171  1.00  0.00     0.087 C 
HETATM    7  C   UNL     1      40.971 -14.810   0.999  1.00  0.00     0.055 C 
HETATM    8  C   UNL     1      40.991 -16.327   0.907  1.00  0.00     0.019 C 
HETATM    9  N   UNL     1      41.009 -17.586   0.830  1.00  0.00    -0.096 N 
HETATM   10  H   UNL     1      40.337 -12.320   3.027  1.00  0.00     0.166 HD
ENDROOT
BRANCH   1  11
HETATM   11  C   UNL     1      40.225 -14.283  -1.344  1.00  0.00    -0.044 A 
HETATM   12  C   UNL     1      40.556 -15.025  -2.489  1.00  0.00     0.011 A 
HETATM   13  C   UNL     1      39.600 -15.286  -3.478  1.00  0.00     0.037 A 
HETATM   14  C   UNL     1      38.298 -14.808  -3.340  1.00  0.00     0.068 A 
HETATM   15  C   UNL     1      37.960 -14.075  -2.203  1.00  0.00     0.037 A 
HETATM   16  C   UNL     1      38.907 -13.821  -1.207  1.00  0.00     0.011 A 
BRANCH  14  17
HETATM   17  O   UNL     1      37.278 -14.980  -4.234  1.00  0.00    -0.352 OA
BRANCH  17  18
HETATM   18  C   UNL     1      36.514 -13.823  -4.574  1.00  0.00     0.171 C 
HETATM   19  C   UNL     1      35.112 -14.279  -4.932  1.00  0.00     0.034 C 
ENDBRANCH  17  18
ENDBRANCH  14  17
ENDBRANCH   1  11
BRANCH   6  20
HETATM   20  S   UNL     1      40.554 -15.159   3.633  1.00  0.00    -0.102 SA
BRANCH  20  21
HETATM   21  C   UNL     1      42.222 -15.681   4.060  1.00  0.00     0.184 C 
BRANCH  21  22
HETATM   22  C   UNL     1      42.384 -17.185   4.151  1.00  0.00     0.231 C 
HETATM   23  N   UNL     1      43.492 -17.696   3.504  1.00  0.00    -0.326 N 
HETATM   24  H   UNL     1      44.231 -17.036   3.297  1.00  0.00     0.169 HD
HETATM   25  O   UNL     1      41.573 -17.835   4.812  1.00  0.00    -0.272 OA
BRANCH  23  26
HETATM   26  C   UNL     1      43.768 -19.068   3.284  1.00  0.00     0.040 A 
HETATM   27  C   UNL     1      44.489 -19.799   4.251  1.00  0.00    -0.035 A 
HETATM   28  C   UNL     1      44.911 -19.201   5.565  1.00  0.00     0.050 C 
HETATM   29  C   UNL     1      44.816 -21.144   3.994  1.00  0.00     0.009 A 
HETATM   30  C   UNL     1      44.435 -21.761   2.804  1.00  0.00     0.001 A 
HETATM   31  C   UNL     1      43.719 -21.042   1.856  1.00  0.00     0.002 A 
HETATM   32  C   UNL     1      43.388 -19.706   2.095  1.00  0.00     0.030 A 
ENDBRANCH  23  26
ENDBRANCH  21  22
ENDBRANCH  20  21
ENDBRANCH   6  20
BRANCH   2  33
HETATM   33  C   UNL     1      42.248 -11.766  -1.050  1.00  0.00     0.255 C 
HETATM   34  N   UNL     1      41.424 -11.252  -2.034  1.00  0.00    -0.323 N 
HETATM   35  H   UNL     1      40.432 -11.428  -1.942  1.00  0.00     0.169 HD
HETATM   36  O   UNL     1      43.451 -11.588  -0.938  1.00  0.00    -0.268 OA
BRANCH  34  37
HETATM   37  C   UNL     1      41.801 -10.555  -3.201  1.00  0.00     0.035 A 
HETATM   38  C   UNL     1      42.072 -11.167  -4.424  1.00  0.00     0.029 A 
HETATM   39  C   UNL     1      42.423 -10.397  -5.538  1.00  0.00     0.002 A 
HETATM   40  C   UNL     1      42.495  -9.008  -5.439  1.00  0.00     0.000 A 
HETATM   41  C   UNL     1      42.223  -8.388  -4.224  1.00  0.00     0.002 A 
HETATM   42  C   UNL     1      41.885  -9.158  -3.108  1.00  0.00     0.029 A 
ENDBRANCH  34  37
ENDBRANCH   2  33
TORSDOF 9
ENDMDL
MODEL 3
REMARK VINA RESULT:      -9.3      2.895      9.083
REMARK  9 active torsions:
REMARK  status: ('A' for Active; 'I' for Inactive)
REMARK    1  A    between atoms: C_2  and  O_3 
REMARK    2  A    between atoms: O_3  and  C_4 
REMARK    3  A    between atoms: C_7  and  C_8 
REMARK    4  A    between atoms: C_9  and  C_10 
REMARK       I    between atoms: C_10  and  N_11 
REMARK    5  A    between atoms: N_11  and  C_12 
REMARK    6  A    between atoms: C_22  and  S_23 
REMARK    7  A    between atoms: S_23  and  C_24 
REMARK    8  A    between atoms: C_24  and  C_25 
REMARK       I    between atoms: C_25  and  N_26 
REMARK    9  A    between atoms: N_26  and  C_27 
ROOT
HETATM    1  C   UNL     1      42.297 -13.598   4.516  1.00  0.00     0.104 C 
HETATM    2  C   UNL     1      42.984 -14.511   5.536  1.00  0.00     0.046 C 
HETATM    3  C   UNL     1      42.635 -15.815   5.625  1.00  0.00     0.019 C 
HETATM    4  C   UNL     1      43.073 -16.768   6.711  1.00  0.00     0.069 C 
HETATM    5  N   UNL     1      41.800 -16.361   4.664  1.00  0.00    -0.353 N 
HETATM    6  C   UNL     1      41.424 -15.729   3.488  1.00  0.00     0.087 C 
HETATM    7  C   UNL     1      41.594 -14.380   3.404  1.00  0.00     0.055 C 
HETATM    8  C   UNL     1      41.094 -13.597   2.201  1.00  0.00     0.019 C 
HETATM    9  N   UNL     1      40.680 -12.947   1.204  1.00  0.00    -0.096 N 
HETATM   10  H   UNL     1      41.658 -17.369   4.739  1.00  0.00     0.166 HD
ENDROOT
BRANCH   1  11
HETATM   11  C   UNL     1      41.332 -12.606   5.167  1.00  0.00    -0.044 A 
HETATM   12  C   UNL     1      40.254 -13.078   5.934  1.00  0.00     0.011 A 
HETATM   13  C   UNL     1      39.363 -12.189   6.546  1.00  0.00     0.037 A 
HETATM   14  C   UNL     1      39.532 -10.813   6.400  1.00  0.00     0.068 A 
HETATM   15  C   UNL     1      40.604 -10.336   5.644  1.00  0.00     0.037 A 
HETATM   16  C   UNL     1      41.502 -11.219   5.041  1.00  0.00     0.011 A 
BRANCH  14  17
HETATM   17  O   UNL     1      38.729  -9.842   6.931  1.00  0.00    -0.352 OA
BRANCH  17  18
HETATM   18  C   UNL     1      39.145  -8.489   6.750  1.00  0.00     0.171 C 
HETATM   19  C   UNL     1      37.988  -7.725   6.133  1.00  0.00     0.034 C 
ENDBRANCH  17  18
ENDBRANCH  14  17
ENDBRANCH   1  11
BRANCH   6  20
HETATM   20  S   UNL     1      40.807 -16.579   2.070  1.00  0.00    -0.102 SA
BRANCH  20  21
HETATM   21  C   UNL     1      42.227 -16.963   1.034  1.00  0.00     0.184 C 
BRANCH  21  22
HETATM   22  C   UNL     1      43.310 -17.743   1.752  1.00  0.00     0.231 C 
HETATM   23  N   UNL     1      42.910 -18.957   2.275  1.00  0.00    -0.326 N 
HETATM   24  H   UNL     1      42.058 -19.348   1.892  1.00  0.00     0.169 HD
HETATM   25  O   UNL     1      44.454 -17.287   1.786  1.00  0.00    -0.272 OA
BRANCH  23  26
HETATM   26  C   UNL     1      43.671 -19.782   3.139  1.00  0.00     0.040 A 
HETATM   27  C   UNL     1      44.000 -21.095   2.741  1.00  0.00    -0.035 A 
HETATM   28  C   UNL     1      43.647 -21.639   1.384  1.00  0.00     0.050 C 
HETATM   29  C   UNL     1      44.699 -21.929   3.634  1.00  0.00     0.009 A 
HETATM   30  C   UNL     1      45.072 -21.477   4.898  1.00  0.00     0.001 A 
HETATM   31  C   UNL     1      44.754 -20.182   5.286  1.00  0.00     0.002 A 
HETATM   32  C   UNL     1      44.059 -19.341   4.412  1.00  0.00     0.030 A 
ENDBRANCH  23  26
ENDBRANCH  21  22
ENDBRANCH  20  21
ENDBRANCH   6  20
BRANCH   2  33
HETATM   33  C   UNL     1      44.062 -13.881   6.364  1.00  0.00     0.255 C 
HETATM   34  N   UNL     1      43.562 -13.162   7.434  1.00  0.00    -0.323 N 
HETATM   35  H   UNL     1      42.557 -13.144   7.547  1.00  0.00     0.169 HD
HETATM   36  O   UNL     1      45.238 -14.093   6.111  1.00  0.00    -0.268 OA
BRANCH  34  37
HETATM   37  C   UNL     1      44.283 -12.386   8.365  1.00  0.00     0.035 A 
HETATM   38  C   UNL     1      45.662 -12.469   8.553  1.00  0.00     0.029 A 
HETATM   39  C   UNL     1      46.300 -11.647   9.488  1.00  0.00     0.002 A 
HETATM   40  C   UNL     1      45.565 -10.727  10.234  1.00  0.00     0.000 A 
HETATM   41  C   UNL     1      44.188 -10.633  10.051  1.00  0.00     0.002 A 
HETATM   42  C   UNL     1      43.550 -11.464   9.127  1.00  0.00     0.029 A 
ENDBRANCH  34  37
ENDBRANCH   2  33
TORSDOF 9
ENDMDL
MODEL 4
REMARK VINA RESULT:      -9.2      2.216      5.699
REMARK  9 active torsions:
REMARK  status: ('A' for Active; 'I' for Inactive)
REMARK    1  A    between atoms: C_2  and  O_3 
REMARK    2  A    between atoms: O_3  and  C_4 
REMARK    3  A    between atoms: C_7  and  C_8 
REMARK    4  A    between atoms: C_9  and  C_10 
REMARK       I    between atoms: C_10  and  N_11 
REMARK    5  A    between atoms: N_11  and  C_12 
REMARK    6  A    between atoms: C_22  and  S_23 
REMARK    7  A    between atoms: S_23  and  C_24 
REMARK    8  A    between atoms: C_24  and  C_25 
REMARK       I    between atoms: C_25  and  N_26 
REMARK    9  A    between atoms: N_26  and  C_27 
ROOT
HETATM    1  C   UNL     1      42.322 -14.553   2.794  1.00  0.00     0.104 C 
HETATM    2  C   UNL     1      41.080 -14.336   1.926  1.00  0.00     0.046 C 
HETATM    3  C   UNL     1      39.875 -14.124   2.503  1.00  0.00     0.019 C 
HETATM    4  C   UNL     1      38.549 -14.103   1.782  1.00  0.00     0.069 C 
HETATM    5  N   UNL     1      39.806 -13.908   3.870  1.00  0.00    -0.353 N 
HETATM    6  C   UNL     1      40.900 -13.706   4.697  1.00  0.00     0.087 C 
HETATM    7  C   UNL     1      42.129 -14.064   4.232  1.00  0.00     0.055 C 
HETATM    8  C   UNL     1      43.360 -13.990   5.121  1.00  0.00     0.019 C 
HETATM    9  N   UNL     1      44.381 -13.929   5.858  1.00  0.00    -0.096 N 
HETATM   10  H   UNL     1      38.881 -13.659   4.221  1.00  0.00     0.166 HD
ENDROOT
BRANCH   1  11
HETATM   11  C   UNL     1      42.805 -16.005   2.783  1.00  0.00    -0.044 A 
HETATM   12  C   UNL     1      43.831 -16.395   1.906  1.00  0.00     0.011 A 
HETATM   13  C   UNL     1      44.295 -17.715   1.884  1.00  0.00     0.037 A 
HETATM   14  C   UNL     1      43.741 -18.668   2.736  1.00  0.00     0.068 A 
HETATM   15  C   UNL     1      42.726 -18.288   3.614  1.00  0.00     0.037 A 
HETATM   16  C   UNL     1      42.266 -16.969   3.648  1.00  0.00     0.011 A 
BRANCH  14  17
HETATM   17  O   UNL     1      44.092 -19.988   2.805  1.00  0.00    -0.352 OA
BRANCH  17  18
HETATM   18  C   UNL     1      43.500 -20.865   1.848  1.00  0.00     0.171 C 
HETATM   19  C   UNL     1      44.306 -22.151   1.832  1.00  0.00     0.034 C 
ENDBRANCH  17  18
ENDBRANCH  14  17
ENDBRANCH   1  11
BRANCH   6  20
HETATM   20  S   UNL     1      40.803 -12.946   6.287  1.00  0.00    -0.102 SA
BRANCH  20  21
HETATM   21  C   UNL     1      40.958 -11.172   6.026  1.00  0.00     0.184 C 
BRANCH  21  22
HETATM   22  C   UNL     1      41.718 -10.459   7.127  1.00  0.00     0.231 C 
HETATM   23  N   UNL     1      42.106 -11.258   8.184  1.00  0.00    -0.326 N 
HETATM   24  H   UNL     1      42.124 -12.255   8.005  1.00  0.00     0.169 HD
HETATM   25  O   UNL     1      41.976  -9.262   6.997  1.00  0.00    -0.272 OA
BRANCH  23  26
HETATM   26  C   UNL     1      42.659 -10.809   9.408  1.00  0.00     0.040 A 
HETATM   27  C   UNL     1      43.961 -11.207   9.774  1.00  0.00    -0.035 A 
HETATM   28  C   UNL     1      44.837 -12.031   8.871  1.00  0.00     0.050 C 
HETATM   29  C   UNL     1      44.477 -10.810  11.022  1.00  0.00     0.009 A 
HETATM   30  C   UNL     1      43.722 -10.028  11.895  1.00  0.00     0.001 A 
HETATM   31  C   UNL     1      42.442  -9.631  11.530  1.00  0.00     0.002 A 
HETATM   32  C   UNL     1      41.916 -10.018  10.296  1.00  0.00     0.030 A 
ENDBRANCH  23  26
ENDBRANCH  21  22
ENDBRANCH  20  21
ENDBRANCH   6  20
BRANCH   2  33
HETATM   33  C   UNL     1      41.304 -14.335   0.445  1.00  0.00     0.255 C 
HETATM   34  N   UNL     1      41.575 -13.074  -0.054  1.00  0.00    -0.323 N 
HETATM   35  H   UNL     1      41.603 -12.312   0.612  1.00  0.00     0.169 HD
HETATM   36  O   UNL     1      41.314 -15.384  -0.179  1.00  0.00    -0.268 OA
BRANCH  34  37
HETATM   37  C   UNL     1      41.759 -12.698  -1.401  1.00  0.00     0.035 A 
HETATM   38  C   UNL     1      41.151 -13.337  -2.481  1.00  0.00     0.029 A 
HETATM   39  C   UNL     1      41.374 -12.886  -3.786  1.00  0.00     0.002 A 
HETATM   40  C   UNL     1      42.199 -11.787  -4.020  1.00  0.00     0.000 A 
HETATM   41  C   UNL     1      42.807 -11.140  -2.948  1.00  0.00     0.002 A 
HETATM   42  C   UNL     1      42.594 -11.599  -1.646  1.00  0.00     0.029 A 
ENDBRANCH  34  37
ENDBRANCH   2  33
TORSDOF 9
ENDMDL
MODEL 5
REMARK VINA RESULT:      -9.0      1.593      2.306
REMARK  9 active torsions:
REMARK  status: ('A' for Active; 'I' for Inactive)
REMARK    1  A    between atoms: C_2  and  O_3 
REMARK    2  A    between atoms: O_3  and  C_4 
REMARK    3  A    between atoms: C_7  and  C_8 
REMARK    4  A    between atoms: C_9  and  C_10 
REMARK       I    between atoms: C_10  and  N_11 
REMARK    5  A    between atoms: N_11  and  C_12 
REMARK    6  A    between atoms: C_22  and  S_23 
REMARK    7  A    between atoms: S_23  and  C_24 
REMARK    8  A    between atoms: C_24  and  C_25 
REMARK       I    between atoms: C_25  and  N_26 
REMARK    9  A    between atoms: N_26  and  C_27 
ROOT
HETATM    1  C   UNL     1      40.423 -13.735   3.233  1.00  0.00     0.104 C 
HETATM    2  C   UNL     1      41.492 -14.272   4.190  1.00  0.00     0.046 C 
HETATM    3  C   UNL     1      42.170 -13.424   4.997  1.00  0.00     0.019 C 
HETATM    4  C   UNL     1      43.379 -13.782   5.827  1.00  0.00     0.069 C 
HETATM    5  N   UNL     1      41.757 -12.105   5.096  1.00  0.00    -0.353 N 
HETATM    6  C   UNL     1      40.576 -11.602   4.570  1.00  0.00     0.087 C 
HETATM    7  C   UNL     1      39.934 -12.338   3.620  1.00  0.00     0.055 C 
HETATM    8  C   UNL     1      38.704 -11.800   2.907  1.00  0.00     0.019 C 
HETATM    9  N   UNL     1      37.683 -11.356   2.316  1.00  0.00    -0.096 N 
HETATM   10  H   UNL     1      42.252 -11.550   5.794  1.00  0.00     0.166 HD
ENDROOT
BRANCH   1  11
HETATM   11  C   UNL     1      40.872 -13.760   1.771  1.00  0.00    -0.044 A 
HETATM   12  C   UNL     1      41.697 -12.738   1.274  1.00  0.00     0.011 A 
HETATM   13  C   UNL     1      42.127 -12.745  -0.058  1.00  0.00     0.037 A 
HETATM   14  C   UNL     1      41.739 -13.771  -0.916  1.00  0.00     0.068 A 
HETATM   15  C   UNL     1      40.925 -14.794  -0.429  1.00  0.00     0.037 A 
HETATM   16  C   UNL     1      40.502 -14.798   0.903  1.00  0.00     0.011 A 
BRANCH  14  17
HETATM   17  O   UNL     1      42.076 -13.889  -2.236  1.00  0.00    -0.352 OA
BRANCH  17  18
HETATM   18  C   UNL     1      41.003 -14.009  -3.169  1.00  0.00     0.171 C 
HETATM   19  C   UNL     1      40.417 -12.625  -3.385  1.00  0.00     0.034 C 
ENDBRANCH  17  18
ENDBRANCH  14  17
ENDBRANCH   1  11
BRANCH   6  20
HETATM   20  S   UNL     1      39.820 -10.102   5.112  1.00  0.00    -0.102 SA
BRANCH  20  21
HETATM   21  C   UNL     1      39.872 -10.114   6.911  1.00  0.00     0.184 C 
BRANCH  21  22
HETATM   22  C   UNL     1      41.275 -10.040   7.480  1.00  0.00     0.231 C 
HETATM   23  N   UNL     1      41.532 -10.910   8.521  1.00  0.00    -0.326 N 
HETATM   24  H   UNL     1      40.901 -11.698   8.610  1.00  0.00     0.169 HD
HETATM   25  O   UNL     1      42.088  -9.269   6.970  1.00  0.00    -0.272 OA
BRANCH  23  26
HETATM   26  C   UNL     1      42.689 -10.912   9.338  1.00  0.00     0.040 A 
HETATM   27  C   UNL     1      42.687 -10.196  10.553  1.00  0.00    -0.035 A 
HETATM   28  C   UNL     1      41.464  -9.490  11.072  1.00  0.00     0.050 C 
HETATM   29  C   UNL     1      43.862 -10.149  11.326  1.00  0.00     0.009 A 
HETATM   30  C   UNL     1      45.022 -10.800  10.910  1.00  0.00     0.001 A 
HETATM   31  C   UNL     1      45.021 -11.510   9.717  1.00  0.00     0.002 A 
HETATM   32  C   UNL     1      43.863 -11.566   8.937  1.00  0.00     0.030 A 
ENDBRANCH  23  26
ENDBRANCH  21  22
ENDBRANCH  20  21
ENDBRANCH   6  20
BRANCH   2  33
HETATM   33  C   UNL     1      41.689 -15.757   4.191  1.00  0.00     0.255 C 
HETATM   34  N   UNL     1      42.803 -16.149   3.473  1.00  0.00    -0.323 N 
HETATM   35  H   UNL     1      43.355 -15.417   3.044  1.00  0.00     0.169 HD
HETATM   36  O   UNL     1      40.954 -16.476   4.849  1.00  0.00    -0.268 OA
BRANCH  34  37
HETATM   37  C   UNL     1      43.240 -17.463   3.204  1.00  0.00     0.035 A 
HETATM   38  C   UNL     1      43.030 -18.126   1.996  1.00  0.00     0.029 A 
HETATM   39  C   UNL     1      43.514 -19.425   1.809  1.00  0.00     0.002 A 
HETATM   40  C   UNL     1      44.223 -20.065   2.823  1.00  0.00     0.000 A 
HETATM   41  C   UNL     1      44.442 -19.410   4.031  1.00  0.00     0.002 A 
HETATM   42  C   UNL     1      43.947 -18.118   4.224  1.00  0.00     0.029 A 
ENDBRANCH  34  37
ENDBRANCH   2  33
TORSDOF 9
ENDMDL
MODEL 6
REMARK VINA RESULT:      -8.7      1.642      5.038
REMARK  9 active torsions:
REMARK  status: ('A' for Active; 'I' for Inactive)
REMARK    1  A    between atoms: C_2  and  O_3 
REMARK    2  A    between atoms: O_3  and  C_4 
REMARK    3  A    between atoms: C_7  and  C_8 
REMARK    4  A    between atoms: C_9  and  C_10 
REMARK       I    between atoms: C_10  and  N_11 
REMARK    5  A    between atoms: N_11  and  C_12 
REMARK    6  A    between atoms: C_22  and  S_23 
REMARK    7  A    between atoms: S_23  and  C_24 
REMARK    8  A    between atoms: C_24  and  C_25 
REMARK       I    between atoms: C_25  and  N_26 
REMARK    9  A    between atoms: N_26  and  C_27 
ROOT
HETATM    1  C   UNL     1      42.833 -13.792   3.441  1.00  0.00     0.104 C 
HETATM    2  C   UNL     1      41.652 -13.136   2.720  1.00  0.00     0.046 C 
HETATM    3  C   UNL     1      40.626 -12.614   3.430  1.00  0.00     0.019 C 
HETATM    4  C   UNL     1      39.316 -12.131   2.855  1.00  0.00     0.069 C 
HETATM    5  N   UNL     1      40.742 -12.499   4.806  1.00  0.00    -0.353 N 
HETATM    6  C   UNL     1      41.911 -12.709   5.523  1.00  0.00     0.087 C 
HETATM    7  C   UNL     1      42.924 -13.386   4.914  1.00  0.00     0.055 C 
HETATM    8  C   UNL     1      44.186 -13.763   5.671  1.00  0.00     0.019 C 
HETATM    9  N   UNL     1      45.234 -14.077   6.298  1.00  0.00    -0.096 N 
HETATM   10  H   UNL     1      39.974 -12.009   5.265  1.00  0.00     0.166 HD
ENDROOT
BRANCH   1  11
HETATM   11  C   UNL     1      42.837 -15.315   3.304  1.00  0.00    -0.044 A 
HETATM   12  C   UNL     1      43.755 -15.939   2.443  1.00  0.00     0.011 A 
HETATM   13  C   UNL     1      43.783 -17.332   2.309  1.00  0.00     0.037 A 
HETATM   14  C   UNL     1      42.893 -18.125   3.030  1.00  0.00     0.068 A 
HETATM   15  C   UNL     1      41.981 -17.514   3.891  1.00  0.00     0.037 A 
HETATM   16  C   UNL     1      41.956 -16.125   4.038  1.00  0.00     0.011 A 
BRANCH  14  17
HETATM   17  O   UNL     1      42.806 -19.489   2.980  1.00  0.00    -0.352 OA
BRANCH  17  18
HETATM   18  C   UNL     1      43.491 -20.141   1.911  1.00  0.00     0.171 C 
HETATM   19  C   UNL     1      44.431 -21.167   2.517  1.00  0.00     0.034 C 
ENDBRANCH  17  18
ENDBRANCH  14  17
ENDBRANCH   1  11
BRANCH   6  20
HETATM   20  S   UNL     1      42.189 -12.087   7.152  1.00  0.00    -0.102 SA
BRANCH  20  21
HETATM   21  C   UNL     1      40.754 -11.088   7.579  1.00  0.00     0.184 C 
BRANCH  21  22
HETATM   22  C   UNL     1      40.833 -10.470   8.960  1.00  0.00     0.231 C 
HETATM   23  N   UNL     1      41.690 -11.103   9.838  1.00  0.00    -0.326 N 
HETATM   24  H   UNL     1      42.390 -11.705   9.422  1.00  0.00     0.169 HD
HETATM   25  O   UNL     1      40.187  -9.448   9.196  1.00  0.00    -0.272 OA
BRANCH  23  26
HETATM   26  C   UNL     1      41.805 -10.840  11.225  1.00  0.00     0.040 A 
HETATM   27  C   UNL     1      43.049 -10.448  11.761  1.00  0.00    -0.035 A 
HETATM   28  C   UNL     1      44.260 -10.210  10.901  1.00  0.00     0.050 C 
HETATM   29  C   UNL     1      43.169 -10.253  13.150  1.00  0.00     0.009 A 
HETATM   30  C   UNL     1      42.078 -10.437  13.998  1.00  0.00     0.001 A 
HETATM   31  C   UNL     1      40.852 -10.816  13.468  1.00  0.00     0.002 A 
HETATM   32  C   UNL     1      40.717 -11.015  12.092  1.00  0.00     0.030 A 
ENDBRANCH  23  26
ENDBRANCH  21  22
ENDBRANCH  20  21
ENDBRANCH   6  20
BRANCH   2  33
HETATM   33  C   UNL     1      41.740 -13.082   1.226  1.00  0.00     0.255 C 
HETATM   34  N   UNL     1      40.865 -13.956   0.607  1.00  0.00    -0.323 N 
HETATM   35  H   UNL     1      40.271 -14.514   1.206  1.00  0.00     0.169 HD
HETATM   36  O   UNL     1      42.468 -12.269   0.679  1.00  0.00    -0.268 OA
BRANCH  34  37
HETATM   37  C   UNL     1      40.737 -14.218  -0.773  1.00  0.00     0.035 A 
HETATM   38  C   UNL     1      41.132 -15.408  -1.384  1.00  0.00     0.029 A 
HETATM   39  C   UNL     1      40.951 -15.592  -2.758  1.00  0.00     0.002 A 
HETATM   40  C   UNL     1      40.364 -14.592  -3.531  1.00  0.00     0.000 A 
HETATM   41  C   UNL     1      39.962 -13.402  -2.931  1.00  0.00     0.002 A 
HETATM   42  C   UNL     1      40.155 -13.214  -1.560  1.00  0.00     0.029 A 
ENDBRANCH  34  37
ENDBRANCH   2  33
TORSDOF 9
ENDMDL
MODEL 7
REMARK VINA RESULT:      -8.7      4.463      8.654
REMARK  9 active torsions:
REMARK  status: ('A' for Active; 'I' for Inactive)
REMARK    1  A    between atoms: C_2  and  O_3 
REMARK    2  A    between atoms: O_3  and  C_4 
REMARK    3  A    between atoms: C_7  and  C_8 
REMARK    4  A    between atoms: C_9  and  C_10 
REMARK       I    between atoms: C_10  and  N_11 
REMARK    5  A    between atoms: N_11  and  C_12 
REMARK    6  A    between atoms: C_22  and  S_23 
REMARK    7  A    between atoms: S_23  and  C_24 
REMARK    8  A    between atoms: C_24  and  C_25 
REMARK       I    between atoms: C_25  and  N_26 
REMARK    9  A    between atoms: N_26  and  C_27 
ROOT
HETATM    1  C   UNL     1      39.913 -13.288   2.535  1.00  0.00     0.104 C 
HETATM    2  C   UNL     1      39.659 -14.519   1.660  1.00  0.00     0.046 C 
HETATM    3  C   UNL     1      40.381 -15.648   1.847  1.00  0.00     0.019 C 
HETATM    4  C   UNL     1      40.383 -16.850   0.934  1.00  0.00     0.069 C 
HETATM    5  N   UNL     1      41.205 -15.749   2.956  1.00  0.00    -0.353 N 
HETATM    6  C   UNL     1      41.226 -14.853   4.014  1.00  0.00     0.087 C 
HETATM    7  C   UNL     1      40.662 -13.627   3.826  1.00  0.00     0.055 C 
HETATM    8  C   UNL     1      40.752 -12.547   4.891  1.00  0.00     0.019 C 
HETATM    9  N   UNL     1      40.826 -11.651   5.774  1.00  0.00    -0.096 N 
HETATM   10  H   UNL     1      41.643 -16.662   3.086  1.00  0.00     0.166 HD
ENDROOT
BRANCH   1  11
HETATM   11  C   UNL     1      40.625 -12.164   1.782  1.00  0.00    -0.044 A 
HETATM   12  C   UNL     1      41.751 -12.451   0.994  1.00  0.00     0.011 A 
HETATM   13  C   UNL     1      42.413 -11.440   0.288  1.00  0.00     0.037 A 
HETATM   14  C   UNL     1      41.963 -10.123   0.361  1.00  0.00     0.068 A 
HETATM   15  C   UNL     1      40.841  -9.829   1.136  1.00  0.00     0.037 A 
HETATM   16  C   UNL     1      40.170 -10.837   1.833  1.00  0.00     0.011 A 
BRANCH  14  17
HETATM   17  O   UNL     1      42.525  -9.044  -0.265  1.00  0.00    -0.352 OA
BRANCH  17  18
HETATM   18  C   UNL     1      41.923  -8.620  -1.487  1.00  0.00     0.171 C 
HETATM   19  C   UNL     1      42.700  -9.246  -2.631  1.00  0.00     0.034 C 
ENDBRANCH  17  18
ENDBRANCH  14  17
ENDBRANCH   1  11
BRANCH   6  20
HETATM   20  S   UNL     1      41.874 -15.233   5.611  1.00  0.00    -0.102 SA
BRANCH  20  21
HETATM   21  C   UNL     1      43.405 -16.141   5.349  1.00  0.00     0.184 C 
BRANCH  21  22
HETATM   22  C   UNL     1      43.195 -17.589   4.956  1.00  0.00     0.231 C 
HETATM   23  N   UNL     1      44.327 -18.250   4.524  1.00  0.00    -0.326 N 
HETATM   24  H   UNL     1      45.213 -17.833   4.783  1.00  0.00     0.169 HD
HETATM   25  O   UNL     1      42.076 -18.087   5.085  1.00  0.00    -0.272 OA
BRANCH  23  26
HETATM   26  C   UNL     1      44.366 -19.537   3.933  1.00  0.00     0.040 A 
HETATM   27  C   UNL     1      43.990 -19.696   2.582  1.00  0.00    -0.035 A 
HETATM   28  C   UNL     1      43.627 -18.531   1.703  1.00  0.00     0.050 C 
HETATM   29  C   UNL     1      43.968 -20.987   2.022  1.00  0.00     0.009 A 
HETATM   30  C   UNL     1      44.314 -22.105   2.780  1.00  0.00     0.001 A 
HETATM   31  C   UNL     1      44.691 -21.946   4.107  1.00  0.00     0.002 A 
HETATM   32  C   UNL     1      44.717 -20.671   4.678  1.00  0.00     0.030 A 
ENDBRANCH  23  26
ENDBRANCH  21  22
ENDBRANCH  20  21
ENDBRANCH   6  20
BRANCH   2  33
HETATM   33  C   UNL     1      38.563 -14.393   0.647  1.00  0.00     0.255 C 
HETATM   34  N   UNL     1      39.038 -14.168  -0.631  1.00  0.00    -0.323 N 
HETATM   35  H   UNL     1      40.042 -14.122  -0.747  1.00  0.00     0.169 HD
HETATM   36  O   UNL     1      37.398 -14.566   0.973  1.00  0.00    -0.268 OA
BRANCH  34  37
HETATM   37  C   UNL     1      38.289 -13.926  -1.802  1.00  0.00     0.035 A 
HETATM   38  C   UNL     1      38.044 -14.884  -2.785  1.00  0.00     0.029 A 
HETATM   39  C   UNL     1      37.274 -14.564  -3.908  1.00  0.00     0.002 A 
HETATM   40  C   UNL     1      36.734 -13.287  -4.051  1.00  0.00     0.000 A 
HETATM   41  C   UNL     1      36.970 -12.325  -3.073  1.00  0.00     0.002 A 
HETATM   42  C   UNL     1      37.750 -12.641  -1.958  1.00  0.00     0.029 A 
ENDBRANCH  34  37
ENDBRANCH   2  33
TORSDOF 9
ENDMDL
MODEL 8
REMARK VINA RESULT:      -8.5      2.148      3.031
REMARK  9 active torsions:
REMARK  status: ('A' for Active; 'I' for Inactive)
REMARK    1  A    between atoms: C_2  and  O_3 
REMARK    2  A    between atoms: O_3  and  C_4 
REMARK    3  A    between atoms: C_7  and  C_8 
REMARK    4  A    between atoms: C_9  and  C_10 
REMARK       I    between atoms: C_10  and  N_11 
REMARK    5  A    between atoms: N_11  and  C_12 
REMARK    6  A    between atoms: C_22  and  S_23 
REMARK    7  A    between atoms: S_23  and  C_24 
REMARK    8  A    between atoms: C_24  and  C_25 
REMARK       I    between atoms: C_25  and  N_26 
REMARK    9  A    between atoms: N_26  and  C_27 
ROOT
HETATM    1  C   UNL     1      41.135 -14.514   1.786  1.00  0.00     0.104 C 
HETATM    2  C   UNL     1      42.360 -14.814   2.653  1.00  0.00     0.046 C 
HETATM    3  C   UNL     1      42.673 -14.006   3.692  1.00  0.00     0.019 C 
HETATM    4  C   UNL     1      43.953 -14.061   4.492  1.00  0.00     0.069 C 
HETATM    5  N   UNL     1      41.775 -13.028   4.086  1.00  0.00    -0.353 N 
HETATM    6  C   UNL     1      40.474 -12.912   3.618  1.00  0.00     0.087 C 
HETATM    7  C   UNL     1      40.144 -13.570   2.472  1.00  0.00     0.055 C 
HETATM    8  C   UNL     1      38.778 -13.395   1.829  1.00  0.00     0.019 C 
HETATM    9  N   UNL     1      37.645 -13.251   1.295  1.00  0.00    -0.096 N 
HETATM   10  H   UNL     1      42.032 -12.523   4.934  1.00  0.00     0.166 HD
ENDROOT
BRANCH   1  11
HETATM   11  C   UNL     1      41.506 -13.985   0.400  1.00  0.00    -0.044 A 
HETATM   12  C   UNL     1      41.250 -14.765  -0.739  1.00  0.00     0.011 A 
HETATM   13  C   UNL     1      41.573 -14.298  -2.019  1.00  0.00     0.037 A 
HETATM   14  C   UNL     1      42.160 -13.044  -2.181  1.00  0.00     0.068 A 
HETATM   15  C   UNL     1      42.413 -12.260  -1.055  1.00  0.00     0.037 A 
HETATM   16  C   UNL     1      42.082 -12.717   0.223  1.00  0.00     0.011 A 
BRANCH  14  17
HETATM   17  O   UNL     1      42.536 -12.478  -3.368  1.00  0.00    -0.352 OA
BRANCH  17  18
HETATM   18  C   UNL     1      42.418 -11.060  -3.474  1.00  0.00     0.171 C 
HETATM   19  C   UNL     1      42.379 -10.704  -4.949  1.00  0.00     0.034 C 
ENDBRANCH  17  18
ENDBRANCH  14  17
ENDBRANCH   1  11
BRANCH   6  20
HETATM   20  S   UNL     1      39.204 -12.022   4.461  1.00  0.00    -0.102 SA
BRANCH  20  21
HETATM   21  C   UNL     1      39.330 -12.459   6.202  1.00  0.00     0.184 C 
BRANCH  21  22
HETATM   22  C   UNL     1      40.242 -11.544   6.995  1.00  0.00     0.231 C 
HETATM   23  N   UNL     1      39.929 -11.420   8.334  1.00  0.00    -0.326 N 
HETATM   24  H   UNL     1      39.341 -12.147   8.723  1.00  0.00     0.169 HD
HETATM   25  O   UNL     1      41.203 -11.021   6.428  1.00  0.00    -0.272 OA
BRANCH  23  26
HETATM   26  C   UNL     1      40.503 -10.496   9.240  1.00  0.00     0.040 A 
HETATM   27  C   UNL     1      39.980  -9.189   9.331  1.00  0.00    -0.035 A 
HETATM   28  C   UNL     1      38.767  -8.750   8.558  1.00  0.00     0.050 C 
HETATM   29  C   UNL     1      40.599  -8.258  10.186  1.00  0.00     0.009 A 
HETATM   30  C   UNL     1      41.714  -8.610  10.944  1.00  0.00     0.001 A 
HETATM   31  C   UNL     1      42.224  -9.899  10.860  1.00  0.00     0.002 A 
HETATM   32  C   UNL     1      41.622 -10.834  10.014  1.00  0.00     0.030 A 
ENDBRANCH  23  26
ENDBRANCH  21  22
ENDBRANCH  20  21
ENDBRANCH   6  20
BRANCH   2  33
HETATM   33  C   UNL     1      43.131 -16.049   2.300  1.00  0.00     0.255 C 
HETATM   34  N   UNL     1      42.695 -17.166   2.987  1.00  0.00    -0.323 N 
HETATM   35  H   UNL     1      41.922 -17.040   3.628  1.00  0.00     0.169 HD
HETATM   36  O   UNL     1      43.984 -16.015   1.426  1.00  0.00    -0.268 OA
BRANCH  34  37
HETATM   37  C   UNL     1      43.240 -18.467   2.956  1.00  0.00     0.035 A 
HETATM   38  C   UNL     1      43.043 -19.374   1.915  1.00  0.00     0.029 A 
HETATM   39  C   UNL     1      43.637 -20.639   1.957  1.00  0.00     0.002 A 
HETATM   40  C   UNL     1      44.441 -21.004   3.035  1.00  0.00     0.000 A 
HETATM   41  C   UNL     1      44.647 -20.105   4.078  1.00  0.00     0.002 A 
HETATM   42  C   UNL     1      44.043 -18.846   4.042  1.00  0.00     0.029 A 
ENDBRANCH  34  37
ENDBRANCH   2  33
TORSDOF 9
ENDMDL
MODEL 9
REMARK VINA RESULT:      -8.4      3.619      9.410
REMARK  9 active torsions:
REMARK  status: ('A' for Active; 'I' for Inactive)
REMARK    1  A    between atoms: C_2  and  O_3 
REMARK    2  A    between atoms: O_3  and  C_4 
REMARK    3  A    between atoms: C_7  and  C_8 
REMARK    4  A    between atoms: C_9  and  C_10 
REMARK       I    between atoms: C_10  and  N_11 
REMARK    5  A    between atoms: N_11  and  C_12 
REMARK    6  A    between atoms: C_22  and  S_23 
REMARK    7  A    between atoms: S_23  and  C_24 
REMARK    8  A    between atoms: C_24  and  C_25 
REMARK       I    between atoms: C_25  and  N_26 
REMARK    9  A    between atoms: N_26  and  C_27 
ROOT
HETATM    1  C   UNL     1      40.671 -13.219   2.103  1.00  0.00     0.104 C 
HETATM    2  C   UNL     1      40.707 -13.581   3.590  1.00  0.00     0.046 C 
HETATM    3  C   UNL     1      40.630 -14.874   3.978  1.00  0.00     0.019 C 
HETATM    4  C   UNL     1      40.445 -15.355   5.397  1.00  0.00     0.069 C 
HETATM    5  N   UNL     1      40.716 -15.875   3.024  1.00  0.00    -0.353 N 
HETATM    6  C   UNL     1      41.064 -15.677   1.696  1.00  0.00     0.087 C 
HETATM    7  C   UNL     1      40.996 -14.411   1.199  1.00  0.00     0.055 C 
HETATM    8  C   UNL     1      41.240 -14.130  -0.275  1.00  0.00     0.019 C 
HETATM    9  N   UNL     1      41.443 -13.896  -1.497  1.00  0.00    -0.096 N 
HETATM   10  H   UNL     1      40.748 -16.824   3.397  1.00  0.00     0.166 HD
ENDROOT
BRANCH   1  11
HETATM   11  C   UNL     1      39.351 -12.572   1.683  1.00  0.00    -0.044 A 
HETATM   12  C   UNL     1      39.221 -11.174   1.694  1.00  0.00     0.011 A 
HETATM   13  C   UNL     1      38.025 -10.560   1.306  1.00  0.00     0.037 A 
HETATM   14  C   UNL     1      36.937 -11.332   0.903  1.00  0.00     0.068 A 
HETATM   15  C   UNL     1      37.059 -12.722   0.883  1.00  0.00     0.037 A 
HETATM   16  C   UNL     1      38.255 -13.340   1.259  1.00  0.00     0.011 A 
BRANCH  14  17
HETATM   17  O   UNL     1      35.713 -10.860   0.514  1.00  0.00    -0.352 OA
BRANCH  17  18
HETATM   18  C   UNL     1      35.021 -10.022   1.438  1.00  0.00     0.171 C 
HETATM   19  C   UNL     1      33.550 -10.395   1.394  1.00  0.00     0.034 C 
ENDBRANCH  17  18
ENDBRANCH  14  17
ENDBRANCH   1  11
BRANCH   6  20
HETATM   20  S   UNL     1      41.660 -16.956   0.636  1.00  0.00    -0.102 SA
BRANCH  20  21
HETATM   21  C   UNL     1      43.304 -17.395   1.222  1.00  0.00     0.184 C 
BRANCH  21  22
HETATM   22  C   UNL     1      43.297 -18.386   2.368  1.00  0.00     0.231 C 
HETATM   23  N   UNL     1      44.412 -19.196   2.450  1.00  0.00    -0.326 N 
HETATM   24  H   UNL     1      45.235 -18.872   1.956  1.00  0.00     0.169 HD
HETATM   25  O   UNL     1      42.352 -18.380   3.159  1.00  0.00    -0.272 OA
BRANCH  23  26
HETATM   26  C   UNL     1      44.568 -20.314   3.305  1.00  0.00     0.040 A 
HETATM   27  C   UNL     1      44.436 -21.617   2.781  1.00  0.00    -0.035 A 
HETATM   28  C   UNL     1      44.219 -21.880   1.317  1.00  0.00     0.050 C 
HETATM   29  C   UNL     1      44.527 -22.720   3.651  1.00  0.00     0.009 A 
HETATM   30  C   UNL     1      44.748 -22.543   5.015  1.00  0.00     0.001 A 
HETATM   31  C   UNL     1      44.884 -21.260   5.529  1.00  0.00     0.002 A 
HETATM   32  C   UNL     1      44.796 -20.155   4.679  1.00  0.00     0.030 A 
ENDBRANCH  23  26
ENDBRANCH  21  22
ENDBRANCH  20  21
ENDBRANCH   6  20
BRANCH   2  33
HETATM   33  C   UNL     1      40.872 -12.436   4.543  1.00  0.00     0.255 C 
HETATM   34  N   UNL     1      39.671 -12.010   5.079  1.00  0.00    -0.323 N 
HETATM   35  H   UNL     1      38.837 -12.503   4.790  1.00  0.00     0.169 HD
HETATM   36  O   UNL     1      41.987 -12.030   4.832  1.00  0.00    -0.268 OA
BRANCH  34  37
HETATM   37  C   UNL     1      39.450 -10.917   5.943  1.00  0.00     0.035 A 
HETATM   38  C   UNL     1      39.085  -9.641   5.513  1.00  0.00     0.029 A 
HETATM   39  C   UNL     1      38.868  -8.618   6.442  1.00  0.00     0.002 A 
HETATM   40  C   UNL     1      39.003  -8.865   7.806  1.00  0.00     0.000 A 
HETATM   41  C   UNL     1      39.363 -10.135   8.246  1.00  0.00     0.002 A 
HETATM   42  C   UNL     1      39.593 -11.154   7.318  1.00  0.00     0.029 A 
ENDBRANCH  34  37
ENDBRANCH   2  33
TORSDOF 9
ENDMDL
MODEL 10
REMARK VINA RESULT:      -8.2      3.892      7.661
REMARK  9 active torsions:
REMARK  status: ('A' for Active; 'I' for Inactive)
REMARK    1  A    between atoms: C_2  and  O_3 
REMARK    2  A    between atoms: O_3  and  C_4 
REMARK    3  A    between atoms: C_7  and  C_8 
REMARK    4  A    between atoms: C_9  and  C_10 
REMARK       I    between atoms: C_10  and  N_11 
REMARK    5  A    between atoms: N_11  and  C_12 
REMARK    6  A    between atoms: C_22  and  S_23 
REMARK    7  A    between atoms: S_23  and  C_24 
REMARK    8  A    between atoms: C_24  and  C_25 
REMARK       I    between atoms: C_25  and  N_26 
REMARK    9  A    between atoms: N_26  and  C_27 
ROOT
HETATM    1  C   UNL     1      41.993 -14.727   2.625  1.00  0.00     0.104 C 
HETATM    2  C   UNL     1      40.789 -14.598   1.688  1.00  0.00     0.046 C 
HETATM    3  C   UNL     1      39.535 -14.543   2.193  1.00  0.00     0.019 C 
HETATM    4  C   UNL     1      38.260 -14.626   1.390  1.00  0.00     0.069 C 
HETATM    5  N   UNL     1      39.361 -14.406   3.561  1.00  0.00    -0.353 N 
HETATM    6  C   UNL     1      40.376 -14.132   4.466  1.00  0.00     0.087 C 
HETATM    7  C   UNL     1      41.662 -14.334   4.067  1.00  0.00     0.055 C 
HETATM    8  C   UNL     1      42.821 -14.176   5.037  1.00  0.00     0.019 C 
HETATM    9  N   UNL     1      43.784 -14.045   5.840  1.00  0.00    -0.096 N 
HETATM   10  H   UNL     1      38.395 -14.273   3.862  1.00  0.00     0.166 HD
ENDROOT
BRANCH   1  11
HETATM   11  C   UNL     1      42.630 -16.117   2.581  1.00  0.00    -0.044 A 
HETATM   12  C   UNL     1      43.751 -16.348   1.769  1.00  0.00     0.011 A 
HETATM   13  C   UNL     1      44.357 -17.609   1.720  1.00  0.00     0.037 A 
HETATM   14  C   UNL     1      43.849 -18.662   2.479  1.00  0.00     0.068 A 
HETATM   15  C   UNL     1      42.738 -18.439   3.294  1.00  0.00     0.037 A 
HETATM   16  C   UNL     1      42.138 -17.179   3.355  1.00  0.00     0.011 A 
BRANCH  14  17
HETATM   17  O   UNL     1      44.335 -19.940   2.512  1.00  0.00    -0.352 OA
BRANCH  17  18
HETATM   18  C   UNL     1      43.578 -20.937   1.828  1.00  0.00     0.171 C 
HETATM   19  C   UNL     1      44.398 -22.214   1.808  1.00  0.00     0.034 C 
ENDBRANCH  17  18
ENDBRANCH  14  17
ENDBRANCH   1  11
BRANCH   6  20
HETATM   20  S   UNL     1      40.101 -13.467   6.078  1.00  0.00    -0.102 SA
BRANCH  20  21
HETATM   21  C   UNL     1      40.104 -11.676   5.910  1.00  0.00     0.184 C 
BRANCH  21  22
HETATM   22  C   UNL     1      39.616 -11.190   4.560  1.00  0.00     0.231 C 
HETATM   23  N   UNL     1      40.588 -10.641   3.748  1.00  0.00    -0.326 N 
HETATM   24  H   UNL     1      41.546 -10.874   3.979  1.00  0.00     0.169 HD
HETATM   25  O   UNL     1      38.433 -11.350   4.258  1.00  0.00    -0.272 OA
BRANCH  23  26
HETATM   26  C   UNL     1      40.365  -9.954   2.530  1.00  0.00     0.040 A 
HETATM   27  C   UNL     1      40.464  -8.548   2.492  1.00  0.00    -0.035 A 
HETATM   28  C   UNL     1      40.887  -7.736   3.686  1.00  0.00     0.050 C 
HETATM   29  C   UNL     1      40.176  -7.870   1.292  1.00  0.00     0.009 A 
HETATM   30  C   UNL     1      39.799  -8.567   0.146  1.00  0.00     0.001 A 
HETATM   31  C   UNL     1      39.709  -9.952   0.182  1.00  0.00     0.002 A 
HETATM   32  C   UNL     1      39.990 -10.640   1.365  1.00  0.00     0.030 A 
ENDBRANCH  23  26
ENDBRANCH  21  22
ENDBRANCH  20  21
ENDBRANCH   6  20
BRANCH   2  33
HETATM   33  C   UNL     1      41.100 -14.498   0.226  1.00  0.00     0.255 C 
HETATM   34  N   UNL     1      41.295 -13.194  -0.191  1.00  0.00    -0.323 N 
HETATM   35  H   UNL     1      41.219 -12.470   0.511  1.00  0.00     0.169 HD
HETATM   36  O   UNL     1      41.234 -15.508  -0.447  1.00  0.00    -0.268 OA
BRANCH  34  37
HETATM   37  C   UNL     1      41.527 -12.733  -1.504  1.00  0.00     0.035 A 
HETATM   38  C   UNL     1      40.825 -13.175  -2.625  1.00  0.00     0.029 A 
HETATM   39  C   UNL     1      41.108 -12.649  -3.889  1.00  0.00     0.002 A 
HETATM   40  C   UNL     1      42.087 -11.668  -4.041  1.00  0.00     0.000 A 
HETATM   41  C   UNL     1      42.790 -11.217  -2.928  1.00  0.00     0.002 A 
HETATM   42  C   UNL     1      42.516 -11.752  -1.667  1.00  0.00     0.029 A 
ENDBRANCH  34  37
ENDBRANCH   2  33
TORSDOF 9
ENDMDL
