MODEL 1
REMARK VINA RESULT:      -8.5      0.000      0.000
REMARK  8 active torsions:
REMARK  status: ('A' for Active; 'I' for Inactive)
REMARK    1  A    between atoms: C_5  and  C_6 
REMARK    2  A    between atoms: N_7  and  N_8 
REMARK       I    between atoms: N_8  and  C_9 
REMARK    3  A    between atoms: C_9  and  C_10 
REMARK    4  A    between atoms: N_11  and  C_12 
REMARK    5  A    between atoms: C_16  and  N_17 
REMARK    6  A    between atoms: C_20  and  C_21 
REMARK    7  A    between atoms: C_21  and  N_22 
REMARK    8  A    between atoms: C_30  and  O_31 
ROOT
HETATM    1  C   UNL     1      39.988 -14.320   0.556  1.00  0.00     0.159 A 
HETATM    2  N   UNL     1      39.773 -13.898  -0.760  1.00  0.00    -0.184 N 
HETATM    3  N   UNL     1      39.201 -12.659  -0.724  1.00  0.00    -0.058 NA
HETATM    4  N   UNL     1      39.090 -12.252   0.524  1.00  0.00    -0.132 NA
HETATM    5  C   UNL     1      39.553 -13.241   1.328  1.00  0.00     0.118 A 
ENDROOT
BRANCH   1   6
HETATM    6  C   UNL     1      40.544 -15.531   1.115  1.00  0.00     0.292 C 
HETATM    7  N   UNL     1      41.851 -15.872   0.832  1.00  0.00    -0.242 N 
HETATM    8  H   UNL     1      42.485 -15.226   0.366  1.00  0.00     0.192 HD
HETATM    9  O   UNL     1      39.813 -16.262   1.791  1.00  0.00    -0.264 OA
BRANCH   7  10
HETATM   10  N   UNL     1      42.360 -17.040   1.319  1.00  0.00    -0.183 NA
HETATM   11  C   UNL     1      42.990 -16.945   2.450  1.00  0.00     0.153 C 
BRANCH  11  12
HETATM   12  C   UNL     1      43.594 -18.132   3.088  1.00  0.00     0.017 A 
HETATM   13  C   UNL     1      43.720 -19.295   2.321  1.00  0.00     0.034 A 
HETATM   14  C   UNL     1      44.283 -20.436   2.896  1.00  0.00     0.012 A 
HETATM   15  C   UNL     1      44.720 -20.426   4.221  1.00  0.00     0.022 A 
HETATM   16 BR   UNL     1      44.453 -22.011   1.864  1.00  0.00    -0.051 Br
HETATM   17  C   UNL     1      44.594 -19.264   4.983  1.00  0.00     0.039 A 
HETATM   18  C   UNL     1      44.034 -18.120   4.419  1.00  0.00     0.077 A 
BRANCH  18  19
HETATM   19  O   UNL     1      43.944 -17.020   5.228  1.00  0.00    -0.360 OA
HETATM   20  H   UNL     1      44.379 -17.241   6.080  1.00  0.00     0.217 HD
ENDBRANCH  18  19
ENDBRANCH  11  12
ENDBRANCH   7  10
ENDBRANCH   1   6
BRANCH   2  21
HETATM   21  C   UNL     1      40.077 -14.507  -2.002  1.00  0.00     0.230 A 
HETATM   22  N   UNL     1      41.341 -14.718  -2.370  1.00  0.00    -0.081 NA
HETATM   23  O   UNL     1      41.236 -15.294  -3.637  1.00  0.00    -0.103 OA
HETATM   24  N   UNL     1      39.909 -15.449  -4.006  1.00  0.00    -0.083 NA
HETATM   25  C   UNL     1      39.190 -14.958  -2.999  1.00  0.00     0.201 A 
BRANCH  25  26
HETATM   26  N   UNL     1      37.848 -14.931  -2.971  1.00  0.00    -0.379 N 
HETATM   27  H   UNL     1      37.322 -15.764  -2.725  1.00  0.00     0.158 HD
HETATM   28  H   UNL     1      37.289 -14.155  -3.317  1.00  0.00     0.158 HD
ENDBRANCH  25  26
ENDBRANCH   2  21
BRANCH   5  29
HETATM   29  C   UNL     1      39.503 -13.063   2.815  1.00  0.00     0.298 C 
BRANCH  29  30
HETATM   30  N   UNL     1      40.682 -13.611   3.591  1.00  0.00    -0.066 N 
HETATM   31  H   UNL     1      40.872 -14.538   3.152  1.00  0.00     0.280 HD
HETATM   32  C   UNL     1      41.926 -12.776   3.458  1.00  0.00     0.235 C 
HETATM   33  C   UNL     1      43.089 -13.485   4.138  1.00  0.00     0.028 C 
HETATM   34  C   UNL     1      42.778 -13.811   5.595  1.00  0.00     0.003 C 
HETATM   35  C   UNL     1      41.480 -14.601   5.714  1.00  0.00     0.028 C 
HETATM   36  C   UNL     1      40.323 -13.891   5.026  1.00  0.00     0.235 C 
ENDBRANCH  29  30
ENDBRANCH   5  29
TORSDOF 8
ENDMDL
MODEL 2
REMARK VINA RESULT:      -8.4      3.687      7.524
REMARK  8 active torsions:
REMARK  status: ('A' for Active; 'I' for Inactive)
REMARK    1  A    between atoms: C_5  and  C_6 
REMARK    2  A    between atoms: N_7  and  N_8 
REMARK       I    between atoms: N_8  and  C_9 
REMARK    3  A    between atoms: C_9  and  C_10 
REMARK    4  A    between atoms: N_11  and  C_12 
REMARK    5  A    between atoms: C_16  and  N_17 
REMARK    6  A    between atoms: C_20  and  C_21 
REMARK    7  A    between atoms: C_21  and  N_22 
REMARK    8  A    between atoms: C_30  and  O_31 
ROOT
HETATM    1  C   UNL     1      43.847 -18.289   4.220  1.00  0.00     0.159 A 
HETATM    2  N   UNL     1      44.285 -19.614   4.315  1.00  0.00    -0.184 N 
HETATM    3  N   UNL     1      44.730 -19.828   5.588  1.00  0.00    -0.058 NA
HETATM    4  N   UNL     1      44.553 -18.742   6.314  1.00  0.00    -0.132 NA
HETATM    5  C   UNL     1      44.024 -17.786   5.511  1.00  0.00     0.118 A 
ENDROOT
BRANCH   1   6
HETATM    6  C   UNL     1      43.296 -17.518   3.129  1.00  0.00     0.292 C 
HETATM    7  N   UNL     1      42.030 -17.810   2.664  1.00  0.00    -0.242 N 
HETATM    8  H   UNL     1      41.409 -18.448   3.159  1.00  0.00     0.192 HD
HETATM    9  O   UNL     1      43.998 -16.650   2.602  1.00  0.00    -0.264 OA
BRANCH   7  10
HETATM   10  N   UNL     1      41.529 -17.115   1.602  1.00  0.00    -0.183 NA
HETATM   11  C   UNL     1      40.916 -16.010   1.898  1.00  0.00     0.153 C 
BRANCH  11  12
HETATM   12  C   UNL     1      40.323 -15.162   0.844  1.00  0.00     0.017 A 
HETATM   13  C   UNL     1      39.207 -14.387   1.179  1.00  0.00     0.034 A 
HETATM   14  C   UNL     1      38.620 -13.578   0.204  1.00  0.00     0.012 A 
HETATM   15  C   UNL     1      39.133 -13.533  -1.091  1.00  0.00     0.022 A 
HETATM   16 BR   UNL     1      37.110 -12.531   0.651  1.00  0.00    -0.051 Br
HETATM   17  C   UNL     1      40.247 -14.306  -1.421  1.00  0.00     0.039 A 
HETATM   18  C   UNL     1      40.841 -15.118  -0.457  1.00  0.00     0.077 A 
BRANCH  18  19
HETATM   19  O   UNL     1      41.929 -15.845  -0.856  1.00  0.00    -0.360 OA
HETATM   20  H   UNL     1      42.163 -16.456  -0.125  1.00  0.00     0.217 HD
ENDBRANCH  18  19
ENDBRANCH  11  12
ENDBRANCH   7  10
ENDBRANCH   1   6
BRANCH   2  21
HETATM   21  C   UNL     1      44.290 -20.671   3.372  1.00  0.00     0.230 A 
HETATM   22  N   UNL     1      43.946 -20.456   2.101  1.00  0.00    -0.081 NA
HETATM   23  O   UNL     1      44.043 -21.713   1.504  1.00  0.00    -0.103 OA
HETATM   24  N   UNL     1      44.470 -22.666   2.415  1.00  0.00    -0.083 NA
HETATM   25  C   UNL     1      44.619 -22.025   3.573  1.00  0.00     0.201 A 
BRANCH  25  26
HETATM   26  N   UNL     1      45.030 -22.605   4.711  1.00  0.00    -0.379 N 
HETATM   27  H   UNL     1      45.992 -22.505   5.021  1.00  0.00     0.158 HD
HETATM   28  H   UNL     1      44.474 -23.272   5.241  1.00  0.00     0.158 HD
ENDBRANCH  25  26
ENDBRANCH   2  21
BRANCH   5  29
HETATM   29  C   UNL     1      43.759 -16.422   6.070  1.00  0.00     0.298 C 
BRANCH  29  30
HETATM   30  N   UNL     1      42.688 -15.612   5.371  1.00  0.00    -0.066 N 
HETATM   31  H   UNL     1      42.577 -16.075   4.443  1.00  0.00     0.280 HD
HETATM   32  C   UNL     1      41.355 -15.655   6.068  1.00  0.00     0.235 C 
HETATM   33  C   UNL     1      40.312 -14.948   5.214  1.00  0.00     0.028 C 
HETATM   34  C   UNL     1      40.730 -13.521   4.877  1.00  0.00     0.003 C 
HETATM   35  C   UNL     1      42.110 -13.492   4.232  1.00  0.00     0.028 C 
HETATM   36  C   UNL     1      43.147 -14.206   5.087  1.00  0.00     0.235 C 
ENDBRANCH  29  30
ENDBRANCH   5  29
TORSDOF 8
ENDMDL
MODEL 3
REMARK VINA RESULT:      -8.3      3.546      7.400
REMARK  8 active torsions:
REMARK  status: ('A' for Active; 'I' for Inactive)
REMARK    1  A    between atoms: C_5  and  C_6 
REMARK    2  A    between atoms: N_7  and  N_8 
REMARK       I    between atoms: N_8  and  C_9 
REMARK    3  A    between atoms: C_9  and  C_10 
REMARK    4  A    between atoms: N_11  and  C_12 
REMARK    5  A    between atoms: C_16  and  N_17 
REMARK    6  A    between atoms: C_20  and  C_21 
REMARK    7  A    between atoms: C_21  and  N_22 
REMARK    8  A    between atoms: C_30  and  O_31 
ROOT
HETATM    1  C   UNL     1      43.533 -18.384   4.416  1.00  0.00     0.159 A 
HETATM    2  N   UNL     1      44.357 -19.506   4.281  1.00  0.00    -0.184 N 
HETATM    3  N   UNL     1      45.294 -19.471   5.274  1.00  0.00    -0.058 NA
HETATM    4  N   UNL     1      45.083 -18.431   6.054  1.00  0.00    -0.132 NA
HETATM    5  C   UNL     1      44.024 -17.745   5.556  1.00  0.00     0.118 A 
ENDROOT
BRANCH   1   6
HETATM    6  C   UNL     1      42.402 -17.906   3.654  1.00  0.00     0.292 C 
HETATM    7  N   UNL     1      42.602 -17.410   2.382  1.00  0.00    -0.242 N 
HETATM    8  H   UNL     1      43.495 -17.506   1.902  1.00  0.00     0.192 HD
HETATM    9  O   UNL     1      41.287 -17.903   4.185  1.00  0.00    -0.264 OA
BRANCH   7  10
HETATM   10  N   UNL     1      41.542 -16.913   1.682  1.00  0.00    -0.183 NA
HETATM   11  C   UNL     1      41.628 -15.660   1.352  1.00  0.00     0.153 C 
BRANCH  11  12
HETATM   12  C   UNL     1      40.549 -14.994   0.596  1.00  0.00     0.017 A 
HETATM   13  C   UNL     1      40.837 -14.544  -0.697  1.00  0.00     0.034 A 
HETATM   14  C   UNL     1      39.840 -13.907  -1.437  1.00  0.00     0.012 A 
HETATM   15  C   UNL     1      38.566 -13.717  -0.904  1.00  0.00     0.022 A 
HETATM   16 BR   UNL     1      40.226 -13.295  -3.184  1.00  0.00    -0.051 Br
HETATM   17  C   UNL     1      38.281 -14.168   0.386  1.00  0.00     0.039 A 
HETATM   18  C   UNL     1      39.268 -14.805   1.134  1.00  0.00     0.077 A 
BRANCH  18  19
HETATM   19  O   UNL     1      38.914 -15.219   2.388  1.00  0.00    -0.360 OA
HETATM   20  H   UNL     1      38.328 -16.000   2.290  1.00  0.00     0.217 HD
ENDBRANCH  18  19
ENDBRANCH  11  12
ENDBRANCH   7  10
ENDBRANCH   1   6
BRANCH   2  21
HETATM   21  C   UNL     1      44.327 -20.589   3.367  1.00  0.00     0.230 A 
HETATM   22  N   UNL     1      43.987 -20.398   2.092  1.00  0.00    -0.081 NA
HETATM   23  O   UNL     1      44.043 -21.674   1.530  1.00  0.00    -0.103 OA
HETATM   24  N   UNL     1      44.442 -22.615   2.466  1.00  0.00    -0.083 NA
HETATM   25  C   UNL     1      44.613 -21.947   3.605  1.00  0.00     0.201 A 
BRANCH  25  26
HETATM   26  N   UNL     1      45.008 -22.508   4.759  1.00  0.00    -0.379 N 
HETATM   27  H   UNL     1      44.727 -22.106   5.649  1.00  0.00     0.158 HD
HETATM   28  H   UNL     1      45.701 -23.249   4.821  1.00  0.00     0.158 HD
ENDBRANCH  25  26
ENDBRANCH   2  21
BRANCH   5  29
HETATM   29  C   UNL     1      43.587 -16.480   6.229  1.00  0.00     0.298 C 
BRANCH  29  30
HETATM   30  N   UNL     1      42.889 -15.464   5.349  1.00  0.00    -0.066 N 
HETATM   31  H   UNL     1      42.674 -15.986   4.472  1.00  0.00     0.280 HD
HETATM   32  C   UNL     1      41.587 -14.973   5.922  1.00  0.00     0.235 C 
HETATM   33  C   UNL     1      40.888 -14.083   4.903  1.00  0.00     0.028 C 
HETATM   34  C   UNL     1      41.781 -12.932   4.451  1.00  0.00     0.003 C 
HETATM   35  C   UNL     1      43.119 -13.446   3.937  1.00  0.00     0.028 C 
HETATM   36  C   UNL     1      43.810 -14.340   4.957  1.00  0.00     0.235 C 
ENDBRANCH  29  30
ENDBRANCH   5  29
TORSDOF 8
ENDMDL
MODEL 4
REMARK VINA RESULT:      -8.2      4.117      8.402
REMARK  8 active torsions:
REMARK  status: ('A' for Active; 'I' for Inactive)
REMARK    1  A    between atoms: C_5  and  C_6 
REMARK    2  A    between atoms: N_7  and  N_8 
REMARK       I    between atoms: N_8  and  C_9 
REMARK    3  A    between atoms: C_9  and  C_10 
REMARK    4  A    between atoms: N_11  and  C_12 
REMARK    5  A    between atoms: C_16  and  N_17 
REMARK    6  A    between atoms: C_20  and  C_21 
REMARK    7  A    between atoms: C_21  and  N_22 
REMARK    8  A    between atoms: C_30  and  O_31 
ROOT
HETATM    1  C   UNL     1      43.150 -14.943   6.014  1.00  0.00     0.159 A 
HETATM    2  N   UNL     1      44.056 -14.791   7.068  1.00  0.00    -0.184 N 
HETATM    3  N   UNL     1      43.989 -15.905   7.854  1.00  0.00    -0.058 NA
HETATM    4  N   UNL     1      43.141 -16.769   7.337  1.00  0.00    -0.132 NA
HETATM    5  C   UNL     1      42.608 -16.213   6.220  1.00  0.00     0.118 A 
ENDROOT
BRANCH   1   6
HETATM    6  C   UNL     1      42.792 -14.091   4.903  1.00  0.00     0.292 C 
HETATM    7  N   UNL     1      43.460 -14.224   3.703  1.00  0.00    -0.242 N 
HETATM    8  H   UNL     1      44.093 -15.001   3.523  1.00  0.00     0.192 HD
HETATM    9  O   UNL     1      41.929 -13.224   5.074  1.00  0.00    -0.264 OA
BRANCH   7  10
HETATM   10  N   UNL     1      43.156 -13.387   2.669  1.00  0.00    -0.183 NA
HETATM   11  C   UNL     1      42.263 -13.828   1.838  1.00  0.00     0.153 C 
BRANCH  11  12
HETATM   12  C   UNL     1      41.843 -13.025   0.672  1.00  0.00     0.017 A 
HETATM   13  C   UNL     1      41.728 -13.673  -0.562  1.00  0.00     0.034 A 
HETATM   14  C   UNL     1      41.337 -12.941  -1.685  1.00  0.00     0.012 A 
HETATM   15  C   UNL     1      41.060 -11.578  -1.588  1.00  0.00     0.022 A 
HETATM   16 BR   UNL     1      41.182 -13.812  -3.356  1.00  0.00    -0.051 Br
HETATM   17  C   UNL     1      41.174 -10.934  -0.355  1.00  0.00     0.039 A 
HETATM   18  C   UNL     1      41.564 -11.655   0.772  1.00  0.00     0.077 A 
BRANCH  18  19
HETATM   19  O   UNL     1      41.654 -10.955   1.944  1.00  0.00    -0.360 OA
HETATM   20  H   UNL     1      41.060 -10.177   1.873  1.00  0.00     0.217 HD
ENDBRANCH  18  19
ENDBRANCH  11  12
ENDBRANCH   7  10
ENDBRANCH   1   6
BRANCH   2  21
HETATM   21  C   UNL     1      44.972 -13.754   7.376  1.00  0.00     0.230 A 
HETATM   22  N   UNL     1      45.994 -13.481   6.565  1.00  0.00    -0.081 NA
HETATM   23  O   UNL     1      46.672 -12.444   7.208  1.00  0.00    -0.103 OA
HETATM   24  N   UNL     1      46.035 -12.087   8.386  1.00  0.00    -0.083 NA
HETATM   25  C   UNL     1      44.986 -12.900   8.495  1.00  0.00     0.201 A 
BRANCH  25  26
HETATM   26  N   UNL     1      44.106 -12.866   9.508  1.00  0.00    -0.379 N 
HETATM   27  H   UNL     1      43.129 -12.648   9.333  1.00  0.00     0.158 HD
HETATM   28  H   UNL     1      44.368 -12.910  10.490  1.00  0.00     0.158 HD
ENDBRANCH  25  26
ENDBRANCH   2  21
BRANCH   5  29
HETATM   29  C   UNL     1      41.569 -16.967   5.448  1.00  0.00     0.298 C 
BRANCH  29  30
HETATM   30  N   UNL     1      42.067 -17.751   4.252  1.00  0.00    -0.066 N 
HETATM   31  H   UNL     1      41.607 -18.683   4.344  1.00  0.00     0.280 HD
HETATM   32  C   UNL     1      41.648 -17.160   2.934  1.00  0.00     0.235 C 
HETATM   33  C   UNL     1      42.057 -18.096   1.804  1.00  0.00     0.028 C 
HETATM   34  C   UNL     1      43.550 -18.405   1.839  1.00  0.00     0.003 C 
HETATM   35  C   UNL     1      43.966 -18.941   3.203  1.00  0.00     0.028 C 
HETATM   36  C   UNL     1      43.549 -18.005   4.329  1.00  0.00     0.235 C 
ENDBRANCH  29  30
ENDBRANCH   5  29
TORSDOF 8
ENDMDL
MODEL 5
REMARK VINA RESULT:      -8.1      2.437      5.493
REMARK  8 active torsions:
REMARK  status: ('A' for Active; 'I' for Inactive)
REMARK    1  A    between atoms: C_5  and  C_6 
REMARK    2  A    between atoms: N_7  and  N_8 
REMARK       I    between atoms: N_8  and  C_9 
REMARK    3  A    between atoms: C_9  and  C_10 
REMARK    4  A    between atoms: N_11  and  C_12 
REMARK    5  A    between atoms: C_16  and  N_17 
REMARK    6  A    between atoms: C_20  and  C_21 
REMARK    7  A    between atoms: C_21  and  N_22 
REMARK    8  A    between atoms: C_30  and  O_31 
ROOT
HETATM    1  C   UNL     1      39.847 -13.423   3.107  1.00  0.00     0.159 A 
HETATM    2  N   UNL     1      39.179 -12.379   3.755  1.00  0.00    -0.184 N 
HETATM    3  N   UNL     1      38.405 -11.731   2.836  1.00  0.00    -0.058 NA
HETATM    4  N   UNL     1      38.501 -12.329   1.666  1.00  0.00    -0.132 NA
HETATM    5  C   UNL     1      39.375 -13.358   1.795  1.00  0.00     0.118 A 
ENDROOT
BRANCH   1   6
HETATM    6  C   UNL     1      40.790 -14.415   3.571  1.00  0.00     0.292 C 
HETATM    7  N   UNL     1      40.459 -15.753   3.496  1.00  0.00    -0.242 N 
HETATM    8  H   UNL     1      39.637 -16.076   2.989  1.00  0.00     0.192 HD
HETATM    9  O   UNL     1      41.852 -14.035   4.074  1.00  0.00    -0.264 OA
BRANCH   7  10
HETATM   10  N   UNL     1      41.329 -16.687   3.979  1.00  0.00    -0.183 NA
HETATM   11  C   UNL     1      42.093 -17.248   3.093  1.00  0.00     0.153 C 
BRANCH  11  12
HETATM   12  C   UNL     1      43.078 -18.279   3.478  1.00  0.00     0.017 A 
HETATM   13  C   UNL     1      43.229 -19.386   2.637  1.00  0.00     0.034 A 
HETATM   14  C   UNL     1      44.149 -20.380   2.975  1.00  0.00     0.012 A 
HETATM   15  C   UNL     1      44.915 -20.280   4.135  1.00  0.00     0.022 A 
HETATM   16 BR   UNL     1      44.355 -21.880   1.842  1.00  0.00    -0.051 Br
HETATM   17  C   UNL     1      44.763 -19.173   4.972  1.00  0.00     0.039 A 
HETATM   18  C   UNL     1      43.847 -18.175   4.645  1.00  0.00     0.077 A 
BRANCH  18  19
HETATM   19  O   UNL     1      43.755 -17.122   5.513  1.00  0.00    -0.360 OA
HETATM   20  H   UNL     1      43.346 -17.454   6.341  1.00  0.00     0.217 HD
ENDBRANCH  18  19
ENDBRANCH  11  12
ENDBRANCH   7  10
ENDBRANCH   1   6
BRANCH   2  21
HETATM   21  C   UNL     1      39.168 -11.970   5.111  1.00  0.00     0.230 A 
HETATM   22  N   UNL     1      38.944 -10.697   5.441  1.00  0.00    -0.081 NA
HETATM   23  O   UNL     1      39.041 -10.683   6.833  1.00  0.00    -0.103 OA
HETATM   24  N   UNL     1      39.297 -11.951   7.328  1.00  0.00    -0.083 NA
HETATM   25  C   UNL     1      39.381 -12.749   6.265  1.00  0.00     0.201 A 
BRANCH  25  26
HETATM   26  N   UNL     1      39.615 -14.069   6.326  1.00  0.00    -0.379 N 
HETATM   27  H   UNL     1      40.462 -14.422   6.763  1.00  0.00     0.158 HD
HETATM   28  H   UNL     1      39.060 -14.767   5.837  1.00  0.00     0.158 HD
ENDBRANCH  25  26
ENDBRANCH   2  21
BRANCH   5  29
HETATM   29  C   UNL     1      39.710 -14.192   0.596  1.00  0.00     0.298 C 
BRANCH  29  30
HETATM   30  N   UNL     1      40.501 -13.502  -0.495  1.00  0.00    -0.066 N 
HETATM   31  H   UNL     1      39.881 -12.728  -0.815  1.00  0.00     0.280 HD
HETATM   32  C   UNL     1      41.785 -12.890  -0.005  1.00  0.00     0.235 C 
HETATM   33  C   UNL     1      42.428 -12.091  -1.131  1.00  0.00     0.028 C 
HETATM   34  C   UNL     1      42.644 -12.943  -2.377  1.00  0.00     0.003 C 
HETATM   35  C   UNL     1      41.346 -13.606  -2.818  1.00  0.00     0.028 C 
HETATM   36  C   UNL     1      40.704 -14.398  -1.688  1.00  0.00     0.235 C 
ENDBRANCH  29  30
ENDBRANCH   5  29
TORSDOF 8
ENDMDL
MODEL 6
REMARK VINA RESULT:      -7.9      3.774      7.496
REMARK  8 active torsions:
REMARK  status: ('A' for Active; 'I' for Inactive)
REMARK    1  A    between atoms: C_5  and  C_6 
REMARK    2  A    between atoms: N_7  and  N_8 
REMARK       I    between atoms: N_8  and  C_9 
REMARK    3  A    between atoms: C_9  and  C_10 
REMARK    4  A    between atoms: N_11  and  C_12 
REMARK    5  A    between atoms: C_16  and  N_17 
REMARK    6  A    between atoms: C_20  and  C_21 
REMARK    7  A    between atoms: C_21  and  N_22 
REMARK    8  A    between atoms: C_30  and  O_31 
ROOT
HETATM    1  C   UNL     1      43.033 -18.792   5.086  1.00  0.00     0.159 A 
HETATM    2  N   UNL     1      43.953 -19.826   4.886  1.00  0.00    -0.184 N 
HETATM    3  N   UNL     1      44.643 -20.017   6.048  1.00  0.00    -0.058 NA
HETATM    4  N   UNL     1      44.184 -19.208   6.981  1.00  0.00    -0.132 NA
HETATM    5  C   UNL     1      43.209 -18.445   6.428  1.00  0.00     0.118 A 
ENDROOT
BRANCH   1   6
HETATM    6  C   UNL     1      42.063 -18.165   4.218  1.00  0.00     0.292 C 
HETATM    7  N   UNL     1      42.477 -17.620   3.020  1.00  0.00    -0.242 N 
HETATM    8  H   UNL     1      43.415 -17.773   2.655  1.00  0.00     0.192 HD
HETATM    9  O   UNL     1      40.890 -18.087   4.598  1.00  0.00    -0.264 OA
BRANCH   7  10
HETATM   10  N   UNL     1      41.570 -16.985   2.223  1.00  0.00    -0.183 NA
HETATM   11  C   UNL     1      41.883 -15.775   1.874  1.00  0.00     0.153 C 
BRANCH  11  12
HETATM   12  C   UNL     1      40.989 -14.973   1.015  1.00  0.00     0.017 A 
HETATM   13  C   UNL     1      41.550 -14.327  -0.091  1.00  0.00     0.034 A 
HETATM   14  C   UNL     1      40.732 -13.557  -0.921  1.00  0.00     0.012 A 
HETATM   15  C   UNL     1      39.369 -13.428  -0.659  1.00  0.00     0.022 A 
HETATM   16 BR   UNL     1      41.487 -12.680  -2.416  1.00  0.00    -0.051 Br
HETATM   17  C   UNL     1      38.811 -14.075   0.445  1.00  0.00     0.039 A 
HETATM   18  C   UNL     1      39.618 -14.845   1.280  1.00  0.00     0.077 A 
BRANCH  18  19
HETATM   19  O   UNL     1      39.000 -15.448   2.341  1.00  0.00    -0.360 OA
HETATM   20  H   UNL     1      39.688 -15.648   3.012  1.00  0.00     0.217 HD
ENDBRANCH  18  19
ENDBRANCH  11  12
ENDBRANCH   7  10
ENDBRANCH   1   6
BRANCH   2  21
HETATM   21  C   UNL     1      44.211 -20.648   3.760  1.00  0.00     0.230 A 
HETATM   22  N   UNL     1      44.145 -20.155   2.523  1.00  0.00    -0.081 NA
HETATM   23  O   UNL     1      44.425 -21.250   1.705  1.00  0.00    -0.103 OA
HETATM   24  N   UNL     1      44.682 -22.384   2.459  1.00  0.00    -0.083 NA
HETATM   25  C   UNL     1      44.545 -22.016   3.731  1.00  0.00     0.201 A 
BRANCH  25  26
HETATM   26  N   UNL     1      44.721 -22.836   4.779  1.00  0.00    -0.379 N 
HETATM   27  H   UNL     1      45.657 -23.053   5.110  1.00  0.00     0.158 HD
HETATM   28  H   UNL     1      43.977 -23.385   5.201  1.00  0.00     0.158 HD
ENDBRANCH  25  26
ENDBRANCH   2  21
BRANCH   5  29
HETATM   29  C   UNL     1      42.535 -17.397   7.259  1.00  0.00     0.298 C 
BRANCH  29  30
HETATM   30  N   UNL     1      43.001 -15.973   7.042  1.00  0.00    -0.066 N 
HETATM   31  H   UNL     1      42.755 -15.482   7.929  1.00  0.00     0.280 HD
HETATM   32  C   UNL     1      44.489 -15.854   6.849  1.00  0.00     0.235 C 
HETATM   33  C   UNL     1      44.878 -14.383   6.797  1.00  0.00     0.028 C 
HETATM   34  C   UNL     1      44.103 -13.631   5.720  1.00  0.00     0.003 C 
HETATM   35  C   UNL     1      42.601 -13.818   5.895  1.00  0.00     0.028 C 
HETATM   36  C   UNL     1      42.219 -15.290   5.952  1.00  0.00     0.235 C 
ENDBRANCH  29  30
ENDBRANCH   5  29
TORSDOF 8
ENDMDL
MODEL 7
REMARK VINA RESULT:      -7.9      3.385      6.461
REMARK  8 active torsions:
REMARK  status: ('A' for Active; 'I' for Inactive)
REMARK    1  A    between atoms: C_5  and  C_6 
REMARK    2  A    between atoms: N_7  and  N_8 
REMARK       I    between atoms: N_8  and  C_9 
REMARK    3  A    between atoms: C_9  and  C_10 
REMARK    4  A    between atoms: N_11  and  C_12 
REMARK    5  A    between atoms: C_16  and  N_17 
REMARK    6  A    between atoms: C_20  and  C_21 
REMARK    7  A    between atoms: C_21  and  N_22 
REMARK    8  A    between atoms: C_30  and  O_31 
ROOT
HETATM    1  C   UNL     1      40.147 -12.440   5.083  1.00  0.00     0.159 A 
HETATM    2  N   UNL     1      39.581 -11.550   6.001  1.00  0.00    -0.184 N 
HETATM    3  N   UNL     1      38.644 -10.801   5.349  1.00  0.00    -0.058 NA
HETATM    4  N   UNL     1      38.547 -11.195   4.096  1.00  0.00    -0.132 NA
HETATM    5  C   UNL     1      39.452 -12.186   3.899  1.00  0.00     0.118 A 
ENDROOT
BRANCH   1   6
HETATM    6  C   UNL     1      41.177 -13.446   5.206  1.00  0.00     0.292 C 
HETATM    7  N   UNL     1      40.899 -14.625   5.868  1.00  0.00    -0.242 N 
HETATM    8  H   UNL     1      39.952 -14.876   6.143  1.00  0.00     0.192 HD
HETATM    9  O   UNL     1      42.303 -13.201   4.760  1.00  0.00    -0.264 OA
BRANCH   7  10
HETATM   10  N   UNL     1      41.886 -15.554   6.027  1.00  0.00    -0.183 NA
HETATM   11  C   UNL     1      41.670 -16.700   5.458  1.00  0.00     0.153 C 
BRANCH  11  12
HETATM   12  C   UNL     1      42.654 -17.797   5.554  1.00  0.00     0.017 A 
HETATM   13  C   UNL     1      43.060 -18.418   4.368  1.00  0.00     0.034 A 
HETATM   14  C   UNL     1      43.986 -19.461   4.425  1.00  0.00     0.012 A 
HETATM   15  C   UNL     1      44.509 -19.886   5.645  1.00  0.00     0.022 A 
HETATM   16 BR   UNL     1      44.535 -20.304   2.824  1.00  0.00    -0.051 Br
HETATM   17  C   UNL     1      44.103 -19.263   6.827  1.00  0.00     0.039 A 
HETATM   18  C   UNL     1      43.179 -18.222   6.782  1.00  0.00     0.077 A 
BRANCH  18  19
HETATM   19  O   UNL     1      42.831 -17.662   7.981  1.00  0.00    -0.360 OA
HETATM   20  H   UNL     1      43.648 -17.304   8.391  1.00  0.00     0.217 HD
ENDBRANCH  18  19
ENDBRANCH  11  12
ENDBRANCH   7  10
ENDBRANCH   1   6
BRANCH   2  21
HETATM   21  C   UNL     1      39.799 -11.369   7.389  1.00  0.00     0.230 A 
HETATM   22  N   UNL     1      38.973 -11.905   8.288  1.00  0.00    -0.081 NA
HETATM   23  O   UNL     1      39.488 -11.489   9.516  1.00  0.00    -0.103 OA
HETATM   24  N   UNL     1      40.634 -10.729   9.345  1.00  0.00    -0.083 NA
HETATM   25  C   UNL     1      40.825 -10.648   8.030  1.00  0.00     0.201 A 
BRANCH  25  26
HETATM   26  N   UNL     1      41.846  -9.995   7.453  1.00  0.00    -0.379 N 
HETATM   27  H   UNL     1      41.841  -9.814   6.453  1.00  0.00     0.158 HD
HETATM   28  H   UNL     1      42.719  -9.774   7.926  1.00  0.00     0.158 HD
ENDBRANCH  25  26
ENDBRANCH   2  21
BRANCH   5  29
HETATM   29  C   UNL     1      39.590 -12.795   2.538  1.00  0.00     0.298 C 
BRANCH  29  30
HETATM   30  N   UNL     1      40.261 -14.151   2.479  1.00  0.00    -0.066 N 
HETATM   31  H   UNL     1      40.580 -14.324   3.457  1.00  0.00     0.280 HD
HETATM   32  C   UNL     1      39.324 -15.265   2.097  1.00  0.00     0.235 C 
HETATM   33  C   UNL     1      40.046 -16.600   2.218  1.00  0.00     0.028 C 
HETATM   34  C   UNL     1      41.327 -16.626   1.391  1.00  0.00     0.003 C 
HETATM   35  C   UNL     1      42.232 -15.454   1.745  1.00  0.00     0.028 C 
HETATM   36  C   UNL     1      41.503 -14.123   1.629  1.00  0.00     0.235 C 
ENDBRANCH  29  30
ENDBRANCH   5  29
TORSDOF 8
ENDMDL
MODEL 8
REMARK VINA RESULT:      -7.9      1.655      2.000
REMARK  8 active torsions:
REMARK  status: ('A' for Active; 'I' for Inactive)
REMARK    1  A    between atoms: C_5  and  C_6 
REMARK    2  A    between atoms: N_7  and  N_8 
REMARK       I    between atoms: N_8  and  C_9 
REMARK    3  A    between atoms: C_9  and  C_10 
REMARK    4  A    between atoms: N_11  and  C_12 
REMARK    5  A    between atoms: C_16  and  N_17 
REMARK    6  A    between atoms: C_20  and  C_21 
REMARK    7  A    between atoms: C_21  and  N_22 
REMARK    8  A    between atoms: C_30  and  O_31 
ROOT
HETATM    1  C   UNL     1      39.471 -13.733   0.294  1.00  0.00     0.159 A 
HETATM    2  N   UNL     1      39.236 -13.753  -1.084  1.00  0.00    -0.184 N 
HETATM    3  N   UNL     1      38.316 -12.786  -1.376  1.00  0.00    -0.058 NA
HETATM    4  N   UNL     1      37.996 -12.127  -0.281  1.00  0.00    -0.132 NA
HETATM    5  C   UNL     1      38.675 -12.681   0.754  1.00  0.00     0.118 A 
ENDROOT
BRANCH   1   6
HETATM    6  C   UNL     1      40.323 -14.526   1.151  1.00  0.00     0.292 C 
HETATM    7  N   UNL     1      40.075 -15.875   1.293  1.00  0.00    -0.242 N 
HETATM    8  H   UNL     1      39.406 -16.365   0.701  1.00  0.00     0.192 HD
HETATM    9  O   UNL     1      41.223 -13.960   1.779  1.00  0.00    -0.264 OA
BRANCH   7  10
HETATM   10  N   UNL     1      40.849 -16.614   2.140  1.00  0.00    -0.183 NA
HETATM   11  C   UNL     1      41.793 -17.302   1.576  1.00  0.00     0.153 C 
BRANCH  11  12
HETATM   12  C   UNL     1      42.702 -18.148   2.375  1.00  0.00     0.017 A 
HETATM   13  C   UNL     1      43.045 -19.405   1.864  1.00  0.00     0.034 A 
HETATM   14  C   UNL     1      43.899 -20.231   2.597  1.00  0.00     0.012 A 
HETATM   15  C   UNL     1      44.412 -19.817   3.826  1.00  0.00     0.022 A 
HETATM   16 BR   UNL     1      44.364 -21.931   1.912  1.00  0.00    -0.051 Br
HETATM   17  C   UNL     1      44.070 -18.562   4.332  1.00  0.00     0.039 A 
HETATM   18  C   UNL     1      43.218 -17.730   3.609  1.00  0.00     0.077 A 
BRANCH  18  19
HETATM   19  O   UNL     1      42.928 -16.516   4.170  1.00  0.00    -0.360 OA
HETATM   20  H   UNL     1      42.309 -16.050   3.568  1.00  0.00     0.217 HD
ENDBRANCH  18  19
ENDBRANCH  11  12
ENDBRANCH   7  10
ENDBRANCH   1   6
BRANCH   2  21
HETATM   21  C   UNL     1      39.799 -14.537  -2.122  1.00  0.00     0.230 A 
HETATM   22  N   UNL     1      40.902 -15.256  -1.914  1.00  0.00    -0.081 NA
HETATM   23  O   UNL     1      41.159 -15.852  -3.149  1.00  0.00    -0.103 OA
HETATM   24  N   UNL     1      40.193 -15.505  -4.080  1.00  0.00    -0.083 NA
HETATM   25  C   UNL     1      39.353 -14.687  -3.449  1.00  0.00     0.201 A 
BRANCH  25  26
HETATM   26  N   UNL     1      38.268 -14.135  -4.013  1.00  0.00    -0.379 N 
HETATM   27  H   UNL     1      37.855 -13.294  -3.619  1.00  0.00     0.158 HD
HETATM   28  H   UNL     1      37.723 -14.577  -4.749  1.00  0.00     0.158 HD
ENDBRANCH  25  26
ENDBRANCH   2  21
BRANCH   5  29
HETATM   29  C   UNL     1      38.466 -12.150   2.138  1.00  0.00     0.298 C 
BRANCH  29  30
HETATM   30  N   UNL     1      39.621 -11.378   2.738  1.00  0.00    -0.066 N 
HETATM   31  H   UNL     1      40.453 -11.690   2.192  1.00  0.00     0.280 HD
HETATM   32  C   UNL     1      39.495  -9.888   2.570  1.00  0.00     0.235 C 
HETATM   33  C   UNL     1      40.768  -9.211   3.059  1.00  0.00     0.028 C 
HETATM   34  C   UNL     1      41.094  -9.595   4.499  1.00  0.00     0.003 C 
HETATM   35  C   UNL     1      41.153 -11.108   4.662  1.00  0.00     0.028 C 
HETATM   36  C   UNL     1      39.880 -11.779   4.165  1.00  0.00     0.235 C 
ENDBRANCH  29  30
ENDBRANCH   5  29
TORSDOF 8
ENDMDL
MODEL 9
REMARK VINA RESULT:      -7.7      2.738      3.901
REMARK  8 active torsions:
REMARK  status: ('A' for Active; 'I' for Inactive)
REMARK    1  A    between atoms: C_5  and  C_6 
REMARK    2  A    between atoms: N_7  and  N_8 
REMARK       I    between atoms: N_8  and  C_9 
REMARK    3  A    between atoms: C_9  and  C_10 
REMARK    4  A    between atoms: N_11  and  C_12 
REMARK    5  A    between atoms: C_16  and  N_17 
REMARK    6  A    between atoms: C_20  and  C_21 
REMARK    7  A    between atoms: C_21  and  N_22 
REMARK    8  A    between atoms: C_30  and  O_31 
ROOT
HETATM    1  C   UNL     1      39.969 -13.318   4.254  1.00  0.00     0.159 A 
HETATM    2  N   UNL     1      39.493 -12.789   3.050  1.00  0.00    -0.184 N 
HETATM    3  N   UNL     1      38.618 -11.782   3.340  1.00  0.00    -0.058 NA
HETATM    4  N   UNL     1      38.551 -11.608   4.644  1.00  0.00    -0.132 NA
HETATM    5  C   UNL     1      39.355 -12.530   5.230  1.00  0.00     0.118 A 
ENDROOT
BRANCH   1   6
HETATM    6  C   UNL     1      40.892 -14.389   4.554  1.00  0.00     0.292 C 
HETATM    7  N   UNL     1      40.571 -15.681   4.194  1.00  0.00    -0.242 N 
HETATM    8  H   UNL     1      39.777 -15.890   3.591  1.00  0.00     0.192 HD
HETATM    9  O   UNL     1      41.925 -14.124   5.177  1.00  0.00    -0.264 OA
BRANCH   7  10
HETATM   10  N   UNL     1      41.419 -16.699   4.520  1.00  0.00    -0.183 NA
HETATM   11  C   UNL     1      42.169 -17.132   3.554  1.00  0.00     0.153 C 
BRANCH  11  12
HETATM   12  C   UNL     1      43.130 -18.232   3.769  1.00  0.00     0.017 A 
HETATM   13  C   UNL     1      43.174 -19.258   2.819  1.00  0.00     0.034 A 
HETATM   14  C   UNL     1      44.069 -20.315   2.995  1.00  0.00     0.012 A 
HETATM   15  C   UNL     1      44.916 -20.357   4.102  1.00  0.00     0.022 A 
HETATM   16 BR   UNL     1      44.130 -21.705   1.715  1.00  0.00    -0.051 Br
HETATM   17  C   UNL     1      44.871 -19.331   5.047  1.00  0.00     0.039 A 
HETATM   18  C   UNL     1      43.982 -18.272   4.882  1.00  0.00     0.077 A 
BRANCH  18  19
HETATM   19  O   UNL     1      43.996 -17.305   5.849  1.00  0.00    -0.360 OA
HETATM   20  H   UNL     1      43.129 -17.330   6.308  1.00  0.00     0.217 HD
ENDBRANCH  18  19
ENDBRANCH  11  12
ENDBRANCH   7  10
ENDBRANCH   1   6
BRANCH   2  21
HETATM   21  C   UNL     1      39.799 -13.102   1.702  1.00  0.00     0.230 A 
HETATM   22  N   UNL     1      39.907 -14.368   1.300  1.00  0.00    -0.081 NA
HETATM   23  O   UNL     1      40.239 -14.271  -0.052  1.00  0.00    -0.103 OA
HETATM   24  N   UNL     1      40.303 -12.946  -0.455  1.00  0.00    -0.083 NA
HETATM   25  C   UNL     1      40.036 -12.221   0.629  1.00  0.00     0.201 A 
BRANCH  25  26
HETATM   26  N   UNL     1      39.993 -10.879   0.649  1.00  0.00    -0.379 N 
HETATM   27  H   UNL     1      40.137 -10.347  -0.204  1.00  0.00     0.158 HD
HETATM   28  H   UNL     1      39.961 -10.325   1.502  1.00  0.00     0.158 HD
ENDBRANCH  25  26
ENDBRANCH   2  21
BRANCH   5  29
HETATM   29  C   UNL     1      39.437 -12.589   6.724  1.00  0.00     0.298 C 
BRANCH  29  30
HETATM   30  N   UNL     1      39.806 -11.298   7.423  1.00  0.00    -0.066 N 
HETATM   31  H   UNL     1      39.307 -10.559   6.883  1.00  0.00     0.280 HD
HETATM   32  C   UNL     1      39.326 -11.231   8.847  1.00  0.00     0.235 C 
HETATM   33  C   UNL     1      39.604  -9.845   9.412  1.00  0.00     0.028 C 
HETATM   34  C   UNL     1      41.078  -9.471   9.292  1.00  0.00     0.003 C 
HETATM   35  C   UNL     1      41.562  -9.609   7.854  1.00  0.00     0.028 C 
HETATM   36  C   UNL     1      41.275 -10.994   7.292  1.00  0.00     0.235 C 
ENDBRANCH  29  30
ENDBRANCH   5  29
TORSDOF 8
ENDMDL
MODEL 10
REMARK VINA RESULT:      -7.5      2.355      5.474
REMARK  8 active torsions:
REMARK  status: ('A' for Active; 'I' for Inactive)
REMARK    1  A    between atoms: C_5  and  C_6 
REMARK    2  A    between atoms: N_7  and  N_8 
REMARK       I    between atoms: N_8  and  C_9 
REMARK    3  A    between atoms: C_9  and  C_10 
REMARK    4  A    between atoms: N_11  and  C_12 
REMARK    5  A    between atoms: C_16  and  N_17 
REMARK    6  A    between atoms: C_20  and  C_21 
REMARK    7  A    between atoms: C_21  and  N_22 
REMARK    8  A    between atoms: C_30  and  O_31 
ROOT
HETATM    1  C   UNL     1      41.543 -12.409   2.005  1.00  0.00     0.159 A 
HETATM    2  N   UNL     1      40.874 -11.575   2.908  1.00  0.00    -0.184 N 
HETATM    3  N   UNL     1      40.653 -10.374   2.297  1.00  0.00    -0.058 NA
HETATM    4  N   UNL     1      41.091 -10.413   1.056  1.00  0.00    -0.132 NA
HETATM    5  C   UNL     1      41.644 -11.634   0.848  1.00  0.00     0.118 A 
ENDROOT
BRANCH   1   6
HETATM    6  C   UNL     1      42.033 -13.764   2.107  1.00  0.00     0.292 C 
HETATM    7  N   UNL     1      43.050 -14.053   2.993  1.00  0.00    -0.242 N 
HETATM    8  H   UNL     1      43.368 -13.377   3.686  1.00  0.00     0.192 HD
HETATM    9  O   UNL     1      41.562 -14.623   1.355  1.00  0.00    -0.264 OA
BRANCH   7  10
HETATM   10  N   UNL     1      43.547 -15.322   3.054  1.00  0.00    -0.183 NA
HETATM   11  C   UNL     1      43.186 -16.013   4.092  1.00  0.00     0.153 C 
BRANCH  11  12
HETATM   12  C   UNL     1      43.653 -17.401   4.285  1.00  0.00     0.017 A 
HETATM   13  C   UNL     1      43.503 -18.296   3.221  1.00  0.00     0.034 A 
HETATM   14  C   UNL     1      43.931 -19.616   3.372  1.00  0.00     0.012 A 
HETATM   15  C   UNL     1      44.505 -20.048   4.568  1.00  0.00     0.022 A 
HETATM   16 BR   UNL     1      43.728 -20.831   1.938  1.00  0.00    -0.051 Br
HETATM   17  C   UNL     1      44.655 -19.152   5.627  1.00  0.00     0.039 A 
HETATM   18  C   UNL     1      44.231 -17.832   5.487  1.00  0.00     0.077 A 
BRANCH  18  19
HETATM   19  O   UNL     1      44.411 -17.014   6.568  1.00  0.00    -0.360 OA
HETATM   20  H   UNL     1      43.858 -16.214   6.432  1.00  0.00     0.217 HD
ENDBRANCH  18  19
ENDBRANCH  11  12
ENDBRANCH   7  10
ENDBRANCH   1   6
BRANCH   2  21
HETATM   21  C   UNL     1      40.406 -11.802   4.225  1.00  0.00     0.230 A 
HETATM   22  N   UNL     1      41.214 -12.299   5.163  1.00  0.00    -0.081 NA
HETATM   23  O   UNL     1      40.401 -12.406   6.292  1.00  0.00    -0.103 OA
HETATM   24  N   UNL     1      39.120 -11.947   6.030  1.00  0.00    -0.083 NA
HETATM   25  C   UNL     1      39.119 -11.578   4.751  1.00  0.00     0.201 A 
BRANCH  25  26
HETATM   26  N   UNL     1      38.054 -11.067   4.112  1.00  0.00    -0.379 N 
HETATM   27  H   UNL     1      37.127 -11.454   4.267  1.00  0.00     0.158 HD
HETATM   28  H   UNL     1      38.117 -10.389   3.356  1.00  0.00     0.158 HD
ENDBRANCH  25  26
ENDBRANCH   2  21
BRANCH   5  29
HETATM   29  C   UNL     1      42.266 -11.942  -0.480  1.00  0.00     0.298 C 
BRANCH  29  30
HETATM   30  N   UNL     1      41.584 -13.013  -1.304  1.00  0.00    -0.066 N 
HETATM   31  H   UNL     1      41.774 -13.898  -0.786  1.00  0.00     0.280 HD
HETATM   32  C   UNL     1      40.091 -12.841  -1.387  1.00  0.00     0.235 C 
HETATM   33  C   UNL     1      39.481 -14.042  -2.097  1.00  0.00     0.028 C 
HETATM   34  C   UNL     1      40.105 -14.264  -3.471  1.00  0.00     0.003 C 
HETATM   35  C   UNL     1      41.621 -14.370  -3.373  1.00  0.00     0.028 C 
HETATM   36  C   UNL     1      42.225 -13.170  -2.657  1.00  0.00     0.235 C 
ENDBRANCH  29  30
ENDBRANCH   5  29
TORSDOF 8
ENDMDL
