MODEL 1
REMARK VINA RESULT:      -8.8      0.000      0.000
REMARK  5 active torsions:
REMARK  status: ('A' for Active; 'I' for Inactive)
REMARK    1  A    between atoms: C_6  and  O_7 
REMARK    2  A    between atoms: O_7  and  C_8 
REMARK    3  A    between atoms: C_8  and  C_9 
REMARK       I    between atoms: C_9  and  N_10 
REMARK    4  A    between atoms: N_10  and  N_11 
REMARK    5  A    between atoms: C_12  and  C_13 
ROOT
HETATM    1  C   UNL     1      43.535 -14.767   4.010  1.00  0.00     0.261 C 
HETATM    2  N   UNL     1      43.422 -14.841   5.389  1.00  0.00    -0.246 N 
HETATM    3  O   UNL     1      44.055 -13.838   3.392  1.00  0.00    -0.269 OA
HETATM    4  H   UNL     1      42.947 -15.629   5.821  1.00  0.00     0.192 HD
ENDROOT
BRANCH   2   5
HETATM    5  N   UNL     1      43.966 -13.843   6.136  1.00  0.00    -0.184 NA
HETATM    6  C   UNL     1      44.958 -14.137   6.908  1.00  0.00     0.152 C 
BRANCH   6   7
HETATM    7  C   UNL     1      45.567 -13.076   7.689  1.00  0.00     0.011 A 
HETATM    8  C   UNL     1      45.073 -12.426   8.872  1.00  0.00     0.004 A 
HETATM    9  C   UNL     1      46.007 -11.456   9.240  1.00  0.00     0.043 A 
HETATM   10  C   UNL     1      43.914 -12.567   9.667  1.00  0.00     0.014 A 
HETATM   11  C   UNL     1      45.840 -10.625  10.355  1.00  0.00     0.030 A 
HETATM   12  N   UNL     1      47.032 -11.516   8.325  1.00  0.00    -0.364 N 
HETATM   13  C   UNL     1      44.683 -10.789  11.123  1.00  0.00     0.002 A 
HETATM   14  C   UNL     1      43.731 -11.746  10.785  1.00  0.00     0.001 A 
HETATM   15  H   UNL     1      47.848 -10.919   8.347  1.00  0.00     0.165 HD
HETATM   16  C   UNL     1      46.781 -12.484   7.388  1.00  0.00     0.102 A 
ENDBRANCH   6   7
ENDBRANCH   2   5
BRANCH   1  17
HETATM   17  C   UNL     1      43.021 -15.996   3.271  1.00  0.00     0.280 C 
BRANCH  17  18
HETATM   18  O   UNL     1      42.735 -17.113   4.117  1.00  0.00    -0.340 OA
BRANCH  18  19
HETATM   19  C   UNL     1      43.240 -18.263   3.553  1.00  0.00     0.092 A 
HETATM   20  C   UNL     1      44.232 -18.979   4.235  1.00  0.00     0.045 A 
HETATM   21  C   UNL     1      44.706 -20.190   3.724  1.00  0.00     0.028 A 
HETATM   22 BR   UNL     1      44.942 -18.359   5.883  1.00  0.00    -0.048 Br
HETATM   23  C   UNL     1      44.206 -20.687   2.515  1.00  0.00    -0.060 A 
HETATM   24  C   UNL     1      44.646 -22.025   1.996  1.00  0.00     0.048 C 
HETATM   25  C   UNL     1      43.240 -19.947   1.820  1.00  0.00     0.016 A 
HETATM   26  C   UNL     1      42.770 -18.717   2.310  1.00  0.00    -0.027 A 
HETATM   27  C   UNL     1      41.742 -17.965   1.513  1.00  0.00     0.051 C 
ENDBRANCH  18  19
ENDBRANCH  17  18
ENDBRANCH   1  17
TORSDOF 5
ENDMDL
MODEL 2
REMARK VINA RESULT:      -8.6      2.030      2.829
REMARK  5 active torsions:
REMARK  status: ('A' for Active; 'I' for Inactive)
REMARK    1  A    between atoms: C_6  and  O_7 
REMARK    2  A    between atoms: O_7  and  C_8 
REMARK    3  A    between atoms: C_8  and  C_9 
REMARK       I    between atoms: C_9  and  N_10 
REMARK    4  A    between atoms: N_10  and  N_11 
REMARK    5  A    between atoms: C_12  and  C_13 
ROOT
HETATM    1  C   UNL     1      43.905 -15.784   6.627  1.00  0.00     0.261 C 
HETATM    2  N   UNL     1      44.536 -14.551   6.594  1.00  0.00    -0.246 N 
HETATM    3  O   UNL     1      43.526 -16.357   7.649  1.00  0.00    -0.269 OA
HETATM    4  H   UNL     1      44.849 -14.162   5.709  1.00  0.00     0.192 HD
ENDROOT
BRANCH   2   5
HETATM    5  N   UNL     1      44.716 -13.886   7.766  1.00  0.00    -0.184 NA
HETATM    6  C   UNL     1      44.267 -12.679   7.852  1.00  0.00     0.152 C 
BRANCH   6   7
HETATM    7  C   UNL     1      44.426 -11.967   9.107  1.00  0.00     0.011 A 
HETATM    8  C   UNL     1      43.532 -11.037   9.739  1.00  0.00     0.004 A 
HETATM    9  C   UNL     1      44.139 -10.607  10.921  1.00  0.00     0.043 A 
HETATM   10  C   UNL     1      42.260 -10.513   9.418  1.00  0.00     0.014 A 
HETATM   11  C   UNL     1      43.542  -9.684  11.789  1.00  0.00     0.030 A 
HETATM   12  N   UNL     1      45.350 -11.252  11.010  1.00  0.00    -0.364 N 
HETATM   13  C   UNL     1      42.283  -9.184  11.444  1.00  0.00     0.002 A 
HETATM   14  C   UNL     1      41.648  -9.592  10.274  1.00  0.00     0.001 A 
HETATM   15  H   UNL     1      46.006 -11.127  11.769  1.00  0.00     0.165 HD
HETATM   16  C   UNL     1      45.535 -12.073   9.928  1.00  0.00     0.102 A 
ENDBRANCH   6   7
ENDBRANCH   2   5
BRANCH   1  17
HETATM   17  C   UNL     1      43.625 -16.383   5.255  1.00  0.00     0.280 C 
BRANCH  17  18
HETATM   18  O   UNL     1      42.656 -17.435   5.262  1.00  0.00    -0.340 OA
BRANCH  18  19
HETATM   19  C   UNL     1      43.082 -18.462   4.449  1.00  0.00     0.092 A 
HETATM   20  C   UNL     1      42.681 -18.481   3.106  1.00  0.00     0.045 A 
HETATM   21  C   UNL     1      43.161 -19.467   2.241  1.00  0.00     0.028 A 
HETATM   22 BR   UNL     1      41.510 -17.162   2.407  1.00  0.00    -0.048 Br
HETATM   23  C   UNL     1      44.031 -20.455   2.713  1.00  0.00    -0.060 A 
HETATM   24  C   UNL     1      44.619 -21.471   1.777  1.00  0.00     0.048 C 
HETATM   25  C   UNL     1      44.400 -20.452   4.066  1.00  0.00     0.016 A 
HETATM   26  C   UNL     1      43.908 -19.480   4.954  1.00  0.00    -0.027 A 
HETATM   27  C   UNL     1      44.329 -19.536   6.395  1.00  0.00     0.051 C 
ENDBRANCH  18  19
ENDBRANCH  17  18
ENDBRANCH   1  17
TORSDOF 5
ENDMDL
MODEL 3
REMARK VINA RESULT:      -8.6      2.714      9.749
REMARK  5 active torsions:
REMARK  status: ('A' for Active; 'I' for Inactive)
REMARK    1  A    between atoms: C_6  and  O_7 
REMARK    2  A    between atoms: O_7  and  C_8 
REMARK    3  A    between atoms: C_8  and  C_9 
REMARK       I    between atoms: C_9  and  N_10 
REMARK    4  A    between atoms: N_10  and  N_11 
REMARK    5  A    between atoms: C_12  and  C_13 
ROOT
HETATM    1  C   UNL     1      44.622 -13.812   7.228  1.00  0.00     0.261 C 
HETATM    2  N   UNL     1      43.626 -14.761   7.059  1.00  0.00    -0.246 N 
HETATM    3  O   UNL     1      45.509 -13.566   6.411  1.00  0.00    -0.269 OA
HETATM    4  H   UNL     1      42.949 -14.926   7.799  1.00  0.00     0.192 HD
ENDROOT
BRANCH   2   5
HETATM    5  N   UNL     1      43.580 -15.448   5.887  1.00  0.00    -0.184 NA
HETATM    6  C   UNL     1      42.965 -16.582   5.874  1.00  0.00     0.152 C 
BRANCH   6   7
HETATM    7  C   UNL     1      42.883 -17.313   4.622  1.00  0.00     0.011 A 
HETATM    8  C   UNL     1      43.585 -18.502   4.221  1.00  0.00     0.004 A 
HETATM    9  C   UNL     1      43.183 -18.807   2.920  1.00  0.00     0.043 A 
HETATM   10  C   UNL     1      44.530 -19.349   4.841  1.00  0.00     0.014 A 
HETATM   11  C   UNL     1      43.678 -19.910   2.211  1.00  0.00     0.030 A 
HETATM   12  N   UNL     1      42.270 -17.850   2.544  1.00  0.00    -0.364 N 
HETATM   13  C   UNL     1      44.612 -20.730   2.851  1.00  0.00     0.002 A 
HETATM   14  C   UNL     1      45.034 -20.455   4.148  1.00  0.00     0.001 A 
HETATM   15  H   UNL     1      41.813 -17.824   1.642  1.00  0.00     0.165 HD
HETATM   16  C   UNL     1      42.080 -16.947   3.557  1.00  0.00     0.102 A 
ENDBRANCH   6   7
ENDBRANCH   2   5
BRANCH   1  17
HETATM   17  C   UNL     1      44.505 -13.000   8.511  1.00  0.00     0.280 C 
BRANCH  17  18
HETATM   18  O   UNL     1      44.412 -11.588   8.305  1.00  0.00    -0.340 OA
BRANCH  18  19
HETATM   19  C   UNL     1      43.842 -10.995   9.409  1.00  0.00     0.092 A 
HETATM   20  C   UNL     1      42.508 -10.570   9.343  1.00  0.00     0.045 A 
HETATM   21  C   UNL     1      41.882 -10.037  10.472  1.00  0.00     0.028 A 
HETATM   22 BR   UNL     1      41.498 -10.733   7.745  1.00  0.00    -0.048 Br
HETATM   23  C   UNL     1      42.588  -9.905  11.673  1.00  0.00    -0.060 A 
HETATM   24  C   UNL     1      41.903  -9.410  12.914  1.00  0.00     0.048 C 
HETATM   25  C   UNL     1      43.932 -10.298  11.722  1.00  0.00     0.016 A 
HETATM   26  C   UNL     1      44.583 -10.815  10.589  1.00  0.00    -0.027 A 
HETATM   27  C   UNL     1      46.029 -11.208  10.700  1.00  0.00     0.051 C 
ENDBRANCH  18  19
ENDBRANCH  17  18
ENDBRANCH   1  17
TORSDOF 5
ENDMDL
MODEL 4
REMARK VINA RESULT:      -8.3      5.735      8.907
REMARK  5 active torsions:
REMARK  status: ('A' for Active; 'I' for Inactive)
REMARK    1  A    between atoms: C_6  and  O_7 
REMARK    2  A    between atoms: O_7  and  C_8 
REMARK    3  A    between atoms: C_8  and  C_9 
REMARK       I    between atoms: C_9  and  N_10 
REMARK    4  A    between atoms: N_10  and  N_11 
REMARK    5  A    between atoms: C_12  and  C_13 
ROOT
HETATM    1  C   UNL     1      41.361 -15.943   0.377  1.00  0.00     0.261 C 
HETATM    2  N   UNL     1      42.522 -16.685   0.518  1.00  0.00    -0.246 N 
HETATM    3  O   UNL     1      40.464 -15.867   1.218  1.00  0.00    -0.269 OA
HETATM    4  H   UNL     1      43.199 -16.723  -0.239  1.00  0.00     0.192 HD
ENDROOT
BRANCH   2   5
HETATM    5  N   UNL     1      42.727 -17.348   1.688  1.00  0.00    -0.184 NA
HETATM    6  C   UNL     1      43.832 -18.000   1.828  1.00  0.00     0.152 C 
BRANCH   6   7
HETATM    7  C   UNL     1      44.076 -18.688   3.082  1.00  0.00     0.011 A 
HETATM    8  C   UNL     1      44.294 -20.090   3.318  1.00  0.00     0.004 A 
HETATM    9  C   UNL     1      44.463 -20.262   4.694  1.00  0.00     0.043 A 
HETATM   10  C   UNL     1      44.361 -21.233   2.492  1.00  0.00     0.014 A 
HETATM   11  C   UNL     1      44.691 -21.514   5.279  1.00  0.00     0.030 A 
HETATM   12  N   UNL     1      44.359 -19.019   5.272  1.00  0.00    -0.364 N 
HETATM   13  C   UNL     1      44.751 -22.627   4.435  1.00  0.00     0.002 A 
HETATM   14  C   UNL     1      44.589 -22.491   3.060  1.00  0.00     0.001 A 
HETATM   15  H   UNL     1      44.438 -18.847   6.265  1.00  0.00     0.165 HD
HETATM   16  C   UNL     1      44.128 -18.065   4.316  1.00  0.00     0.102 A 
ENDBRANCH   6   7
ENDBRANCH   2   5
BRANCH   1  17
HETATM   17  C   UNL     1      41.289 -15.127  -0.907  1.00  0.00     0.280 C 
BRANCH  17  18
HETATM   18  O   UNL     1      40.493 -13.943  -0.806  1.00  0.00    -0.340 OA
BRANCH  18  19
HETATM   19  C   UNL     1      41.290 -12.834  -0.977  1.00  0.00     0.092 A 
HETATM   20  C   UNL     1      41.633 -12.061   0.140  1.00  0.00     0.045 A 
HETATM   21  C   UNL     1      42.503 -10.976   0.007  1.00  0.00     0.028 A 
HETATM   22 BR   UNL     1      40.966 -12.473   1.869  1.00  0.00    -0.048 Br
HETATM   23  C   UNL     1      43.023 -10.640  -1.247  1.00  0.00    -0.060 A 
HETATM   24  C   UNL     1      44.022  -9.529  -1.391  1.00  0.00     0.048 C 
HETATM   25  C   UNL     1      42.647 -11.395  -2.367  1.00  0.00     0.016 A 
HETATM   26  C   UNL     1      41.756 -12.475  -2.253  1.00  0.00    -0.027 A 
HETATM   27  C   UNL     1      41.381 -13.239  -3.491  1.00  0.00     0.051 C 
ENDBRANCH  18  19
ENDBRANCH  17  18
ENDBRANCH   1  17
TORSDOF 5
ENDMDL
MODEL 5
REMARK VINA RESULT:      -8.3      5.430      8.147
REMARK  5 active torsions:
REMARK  status: ('A' for Active; 'I' for Inactive)
REMARK    1  A    between atoms: C_6  and  O_7 
REMARK    2  A    between atoms: O_7  and  C_8 
REMARK    3  A    between atoms: C_8  and  C_9 
REMARK       I    between atoms: C_9  and  N_10 
REMARK    4  A    between atoms: N_10  and  N_11 
REMARK    5  A    between atoms: C_12  and  C_13 
ROOT
HETATM    1  C   UNL     1      41.059 -16.728   2.356  1.00  0.00     0.261 C 
HETATM    2  N   UNL     1      42.016 -15.985   1.686  1.00  0.00    -0.246 N 
HETATM    3  O   UNL     1      39.948 -17.018   1.909  1.00  0.00    -0.269 OA
HETATM    4  H   UNL     1      42.898 -15.760   2.139  1.00  0.00     0.192 HD
ENDROOT
BRANCH   2   5
HETATM    5  N   UNL     1      41.747 -15.577   0.417  1.00  0.00    -0.184 NA
HETATM    6  C   UNL     1      41.883 -14.323   0.143  1.00  0.00     0.152 C 
BRANCH   6   7
HETATM    7  C   UNL     1      41.626 -13.878  -1.215  1.00  0.00     0.011 A 
HETATM    8  C   UNL     1      42.030 -12.658  -1.859  1.00  0.00     0.004 A 
HETATM    9  C   UNL     1      41.525 -12.683  -3.160  1.00  0.00     0.043 A 
HETATM   10  C   UNL     1      42.778 -11.529  -1.458  1.00  0.00     0.014 A 
HETATM   11  C   UNL     1      41.727 -11.640  -4.074  1.00  0.00     0.030 A 
HETATM   12  N   UNL     1      40.846 -13.870  -3.307  1.00  0.00    -0.364 N 
HETATM   13  C   UNL     1      42.470 -10.535  -3.648  1.00  0.00     0.002 A 
HETATM   14  C   UNL     1      42.990 -10.478  -2.358  1.00  0.00     0.001 A 
HETATM   15  H   UNL     1      40.374 -14.153  -4.155  1.00  0.00     0.165 HD
HETATM   16  C   UNL     1      40.900 -14.598  -2.147  1.00  0.00     0.102 A 
ENDBRANCH   6   7
ENDBRANCH   2   5
BRANCH   1  17
HETATM   17  C   UNL     1      41.508 -17.256   3.712  1.00  0.00     0.280 C 
BRANCH  17  18
HETATM   18  O   UNL     1      42.898 -17.061   3.986  1.00  0.00    -0.340 OA
BRANCH  18  19
HETATM   19  C   UNL     1      43.484 -18.268   4.295  1.00  0.00     0.092 A 
HETATM   20  C   UNL     1      43.529 -18.681   5.633  1.00  0.00     0.045 A 
HETATM   21  C   UNL     1      44.047 -19.936   5.966  1.00  0.00     0.028 A 
HETATM   22 BR   UNL     1      42.864 -17.582   7.030  1.00  0.00    -0.048 Br
HETATM   23  C   UNL     1      44.542 -20.780   4.967  1.00  0.00    -0.060 A 
HETATM   24  C   UNL     1      45.026 -22.162   5.302  1.00  0.00     0.048 C 
HETATM   25  C   UNL     1      44.527 -20.345   3.635  1.00  0.00     0.016 A 
HETATM   26  C   UNL     1      44.031 -19.078   3.286  1.00  0.00    -0.027 A 
HETATM   27  C   UNL     1      44.052 -18.663   1.842  1.00  0.00     0.051 C 
ENDBRANCH  18  19
ENDBRANCH  17  18
ENDBRANCH   1  17
TORSDOF 5
ENDMDL
MODEL 6
REMARK VINA RESULT:      -8.2      4.795      8.115
REMARK  5 active torsions:
REMARK  status: ('A' for Active; 'I' for Inactive)
REMARK    1  A    between atoms: C_6  and  O_7 
REMARK    2  A    between atoms: O_7  and  C_8 
REMARK    3  A    between atoms: C_8  and  C_9 
REMARK       I    between atoms: C_9  and  N_10 
REMARK    4  A    between atoms: N_10  and  N_11 
REMARK    5  A    between atoms: C_12  and  C_13 
ROOT
HETATM    1  C   UNL     1      41.363 -16.334   3.844  1.00  0.00     0.261 C 
HETATM    2  N   UNL     1      41.384 -14.994   3.491  1.00  0.00    -0.246 N 
HETATM    3  O   UNL     1      40.639 -17.188   3.333  1.00  0.00    -0.269 OA
HETATM    4  H   UNL     1      41.989 -14.345   3.987  1.00  0.00     0.192 HD
ENDROOT
BRANCH   2   5
HETATM    5  N   UNL     1      40.585 -14.582   2.471  1.00  0.00    -0.184 NA
HETATM    6  C   UNL     1      41.135 -14.349   1.327  1.00  0.00     0.152 C 
BRANCH   6   7
HETATM    7  C   UNL     1      40.289 -13.937   0.222  1.00  0.00     0.011 A 
HETATM    8  C   UNL     1      40.213 -14.476  -1.109  1.00  0.00     0.004 A 
HETATM    9  C   UNL     1      39.264 -13.729  -1.810  1.00  0.00     0.043 A 
HETATM   10  C   UNL     1      40.863 -15.530  -1.787  1.00  0.00     0.014 A 
HETATM   11  C   UNL     1      38.939 -13.981  -3.149  1.00  0.00     0.030 A 
HETATM   12  N   UNL     1      38.778 -12.779  -0.944  1.00  0.00    -0.364 N 
HETATM   13  C   UNL     1      39.600 -15.030  -3.795  1.00  0.00     0.002 A 
HETATM   14  C   UNL     1      40.550 -15.796  -3.125  1.00  0.00     0.001 A 
HETATM   15  H   UNL     1      38.075 -12.094  -1.188  1.00  0.00     0.165 HD
HETATM   16  C   UNL     1      39.384 -12.893   0.281  1.00  0.00     0.102 A 
ENDBRANCH   6   7
ENDBRANCH   2   5
BRANCH   1  17
HETATM   17  C   UNL     1      42.392 -16.722   4.898  1.00  0.00     0.280 C 
BRANCH  17  18
HETATM   18  O   UNL     1      43.735 -16.782   4.413  1.00  0.00    -0.340 OA
BRANCH  18  19
HETATM   19  C   UNL     1      43.970 -18.017   3.850  1.00  0.00     0.092 A 
HETATM   20  C   UNL     1      44.228 -19.110   4.688  1.00  0.00     0.045 A 
HETATM   21  C   UNL     1      44.392 -20.388   4.148  1.00  0.00     0.028 A 
HETATM   22 BR   UNL     1      44.328 -18.908   6.573  1.00  0.00    -0.048 Br
HETATM   23  C   UNL     1      44.320 -20.583   2.765  1.00  0.00    -0.060 A 
HETATM   24  C   UNL     1      44.413 -21.962   2.179  1.00  0.00     0.048 C 
HETATM   25  C   UNL     1      44.098 -19.479   1.930  1.00  0.00     0.016 A 
HETATM   26  C   UNL     1      43.953 -18.184   2.456  1.00  0.00    -0.027 A 
HETATM   27  C   UNL     1      43.730 -17.039   1.509  1.00  0.00     0.051 C 
ENDBRANCH  18  19
ENDBRANCH  17  18
ENDBRANCH   1  17
TORSDOF 5
ENDMDL
MODEL 7
REMARK VINA RESULT:      -8.1      1.905      2.372
REMARK  5 active torsions:
REMARK  status: ('A' for Active; 'I' for Inactive)
REMARK    1  A    between atoms: C_6  and  O_7 
REMARK    2  A    between atoms: O_7  and  C_8 
REMARK    3  A    between atoms: C_8  and  C_9 
REMARK       I    between atoms: C_9  and  N_10 
REMARK    4  A    between atoms: N_10  and  N_11 
REMARK    5  A    between atoms: C_12  and  C_13 
ROOT
HETATM    1  C   UNL     1      42.010 -15.540   5.395  1.00  0.00     0.261 C 
HETATM    2  N   UNL     1      42.250 -14.201   5.134  1.00  0.00    -0.246 N 
HETATM    3  O   UNL     1      41.617 -15.991   6.471  1.00  0.00    -0.269 OA
HETATM    4  H   UNL     1      42.607 -13.914   4.227  1.00  0.00     0.192 HD
ENDROOT
BRANCH   2   5
HETATM    5  N   UNL     1      41.991 -13.295   6.115  1.00  0.00    -0.184 NA
HETATM    6  C   UNL     1      42.983 -12.622   6.593  1.00  0.00     0.152 C 
BRANCH   6   7
HETATM    7  C   UNL     1      42.716 -11.631   7.620  1.00  0.00     0.011 A 
HETATM    8  C   UNL     1      43.387 -11.425   8.875  1.00  0.00     0.004 A 
HETATM    9  C   UNL     1      42.752 -10.363   9.521  1.00  0.00     0.043 A 
HETATM   10  C   UNL     1      44.475 -12.044   9.527  1.00  0.00     0.014 A 
HETATM   11  C   UNL     1      43.148  -9.894  10.780  1.00  0.00     0.030 A 
HETATM   12  N   UNL     1      41.740  -9.934   8.694  1.00  0.00    -0.364 N 
HETATM   13  C   UNL     1      44.228 -10.528  11.401  1.00  0.00     0.002 A 
HETATM   14  C   UNL     1      44.885 -11.588  10.785  1.00  0.00     0.001 A 
HETATM   15  H   UNL     1      41.111  -9.173   8.913  1.00  0.00     0.165 HD
HETATM   16  C   UNL     1      41.708 -10.686   7.548  1.00  0.00     0.102 A 
ENDBRANCH   6   7
ENDBRANCH   2   5
BRANCH   1  17
HETATM   17  C   UNL     1      42.196 -16.458   4.193  1.00  0.00     0.280 C 
BRANCH  17  18
HETATM   18  O   UNL     1      43.550 -16.577   3.750  1.00  0.00    -0.340 OA
BRANCH  18  19
HETATM   19  C   UNL     1      43.803 -17.878   3.378  1.00  0.00     0.092 A 
HETATM   20  C   UNL     1      44.298 -18.776   4.333  1.00  0.00     0.045 A 
HETATM   21  C   UNL     1      44.490 -20.120   4.003  1.00  0.00     0.028 A 
HETATM   22 BR   UNL     1      44.691 -18.219   6.104  1.00  0.00    -0.048 Br
HETATM   23  C   UNL     1      44.208 -20.576   2.711  1.00  0.00    -0.060 A 
HETATM   24  C   UNL     1      44.332 -22.032   2.367  1.00  0.00     0.048 C 
HETATM   25  C   UNL     1      43.747 -19.664   1.751  1.00  0.00     0.016 A 
HETATM   26  C   UNL     1      43.571 -18.305   2.060  1.00  0.00    -0.027 A 
HETATM   27  C   UNL     1      43.086 -17.374   0.985  1.00  0.00     0.051 C 
ENDBRANCH  18  19
ENDBRANCH  17  18
ENDBRANCH   1  17
TORSDOF 5
ENDMDL
MODEL 8
REMARK VINA RESULT:      -8.1      5.688      8.873
REMARK  5 active torsions:
REMARK  status: ('A' for Active; 'I' for Inactive)
REMARK    1  A    between atoms: C_6  and  O_7 
REMARK    2  A    between atoms: O_7  and  C_8 
REMARK    3  A    between atoms: C_8  and  C_9 
REMARK       I    between atoms: C_9  and  N_10 
REMARK    4  A    between atoms: N_10  and  N_11 
REMARK    5  A    between atoms: C_12  and  C_13 
ROOT
HETATM    1  C   UNL     1      41.283 -15.645   1.277  1.00  0.00     0.261 C 
HETATM    2  N   UNL     1      41.840 -15.589   2.544  1.00  0.00    -0.246 N 
HETATM    3  O   UNL     1      41.165 -16.667   0.601  1.00  0.00    -0.269 OA
HETATM    4  H   UNL     1      41.931 -14.697   3.023  1.00  0.00     0.192 HD
ENDROOT
BRANCH   2   5
HETATM    5  N   UNL     1      42.249 -16.750   3.121  1.00  0.00    -0.184 NA
HETATM    6  C   UNL     1      43.512 -17.015   3.118  1.00  0.00     0.152 C 
BRANCH   6   7
HETATM    7  C   UNL     1      43.966 -18.237   3.757  1.00  0.00     0.011 A 
HETATM    8  C   UNL     1      44.041 -19.567   3.216  1.00  0.00     0.004 A 
HETATM    9  C   UNL     1      44.522 -20.404   4.224  1.00  0.00     0.043 A 
HETATM   10  C   UNL     1      43.741 -20.142   1.961  1.00  0.00     0.014 A 
HETATM   11  C   UNL     1      44.715 -21.780   4.041  1.00  0.00     0.030 A 
HETATM   12  N   UNL     1      44.738 -19.619   5.332  1.00  0.00    -0.364 N 
HETATM   13  C   UNL     1      44.409 -22.320   2.788  1.00  0.00     0.002 A 
HETATM   14  C   UNL     1      43.929 -21.514   1.760  1.00  0.00     0.001 A 
HETATM   15  H   UNL     1      45.086 -19.967   6.215  1.00  0.00     0.165 HD
HETATM   16  C   UNL     1      44.409 -18.316   5.065  1.00  0.00     0.102 A 
ENDBRANCH   6   7
ENDBRANCH   2   5
BRANCH   1  17
HETATM   17  C   UNL     1      40.729 -14.317   0.776  1.00  0.00     0.280 C 
BRANCH  17  18
HETATM   18  O   UNL     1      39.880 -14.431  -0.370  1.00  0.00    -0.340 OA
BRANCH  18  19
HETATM   19  C   UNL     1      40.395 -13.682  -1.404  1.00  0.00     0.092 A 
HETATM   20  C   UNL     1      40.347 -12.284  -1.323  1.00  0.00     0.045 A 
HETATM   21  C   UNL     1      40.932 -11.500  -2.321  1.00  0.00     0.028 A 
HETATM   22 BR   UNL     1      39.528 -11.406   0.147  1.00  0.00    -0.048 Br
HETATM   23  C   UNL     1      41.552 -12.105  -3.419  1.00  0.00    -0.060 A 
HETATM   24  C   UNL     1      42.255 -11.277  -4.455  1.00  0.00     0.048 C 
HETATM   25  C   UNL     1      41.564 -13.504  -3.512  1.00  0.00     0.016 A 
HETATM   26  C   UNL     1      40.962 -14.305  -2.528  1.00  0.00    -0.027 A 
HETATM   27  C   UNL     1      40.996 -15.799  -2.689  1.00  0.00     0.051 C 
ENDBRANCH  18  19
ENDBRANCH  17  18
ENDBRANCH   1  17
TORSDOF 5
ENDMDL
MODEL 9
REMARK VINA RESULT:      -8.1      3.065      9.643
REMARK  5 active torsions:
REMARK  status: ('A' for Active; 'I' for Inactive)
REMARK    1  A    between atoms: C_6  and  O_7 
REMARK    2  A    between atoms: O_7  and  C_8 
REMARK    3  A    between atoms: C_8  and  C_9 
REMARK       I    between atoms: C_9  and  N_10 
REMARK    4  A    between atoms: N_10  and  N_11 
REMARK    5  A    between atoms: C_12  and  C_13 
ROOT
HETATM    1  C   UNL     1      41.752 -11.762   6.502  1.00  0.00     0.261 C 
HETATM    2  N   UNL     1      42.411 -12.980   6.540  1.00  0.00    -0.246 N 
HETATM    3  O   UNL     1      41.294 -11.238   5.487  1.00  0.00    -0.269 OA
HETATM    4  H   UNL     1      42.791 -13.328   7.416  1.00  0.00     0.192 HD
ENDROOT
BRANCH   2   5
HETATM    5  N   UNL     1      42.527 -13.689   5.385  1.00  0.00    -0.184 NA
HETATM    6  C   UNL     1      43.096 -14.846   5.440  1.00  0.00     0.152 C 
BRANCH   6   7
HETATM    7  C   UNL     1      43.200 -15.625   4.219  1.00  0.00     0.011 A 
HETATM    8  C   UNL     1      43.556 -17.009   4.057  1.00  0.00     0.004 A 
HETATM    9  C   UNL     1      43.536 -17.289   2.689  1.00  0.00     0.043 A 
HETATM   10  C   UNL     1      43.897 -18.053   4.945  1.00  0.00     0.014 A 
HETATM   11  C   UNL     1      43.841 -18.554   2.169  1.00  0.00     0.030 A 
HETATM   12  N   UNL     1      43.178 -16.129   2.044  1.00  0.00    -0.364 N 
HETATM   13  C   UNL     1      44.175 -19.567   3.073  1.00  0.00     0.002 A 
HETATM   14  C   UNL     1      44.203 -19.322   4.443  1.00  0.00     0.001 A 
HETATM   15  H   UNL     1      43.087 -16.042   1.041  1.00  0.00     0.165 HD
HETATM   16  C   UNL     1      42.972 -15.122   2.951  1.00  0.00     0.102 A 
ENDBRANCH   6   7
ENDBRANCH   2   5
BRANCH   1  17
HETATM   17  C   UNL     1      41.551 -11.114   7.866  1.00  0.00     0.280 C 
BRANCH  17  18
HETATM   18  O   UNL     1      42.497 -10.087   8.172  1.00  0.00    -0.340 OA
BRANCH  18  19
HETATM   19  C   UNL     1      42.646  -9.986   9.537  1.00  0.00     0.092 A 
HETATM   20  C   UNL     1      43.699 -10.669  10.160  1.00  0.00     0.045 A 
HETATM   21  C   UNL     1      43.921 -10.522  11.532  1.00  0.00     0.028 A 
HETATM   22 BR   UNL     1      44.878 -11.781   9.172  1.00  0.00    -0.048 Br
HETATM   23  C   UNL     1      43.080  -9.708  12.297  1.00  0.00    -0.060 A 
HETATM   24  C   UNL     1      43.356  -9.477  13.755  1.00  0.00     0.048 C 
HETATM   25  C   UNL     1      42.007  -9.056  11.674  1.00  0.00     0.016 A 
HETATM   26  C   UNL     1      41.757  -9.211  10.300  1.00  0.00    -0.027 A 
HETATM   27  C   UNL     1      40.584  -8.498   9.692  1.00  0.00     0.051 C 
ENDBRANCH  18  19
ENDBRANCH  17  18
ENDBRANCH   1  17
TORSDOF 5
ENDMDL
MODEL 10
REMARK VINA RESULT:      -8.1      3.345      9.826
REMARK  5 active torsions:
REMARK  status: ('A' for Active; 'I' for Inactive)
REMARK    1  A    between atoms: C_6  and  O_7 
REMARK    2  A    between atoms: O_7  and  C_8 
REMARK    3  A    between atoms: C_8  and  C_9 
REMARK       I    between atoms: C_9  and  N_10 
REMARK    4  A    between atoms: N_10  and  N_11 
REMARK    5  A    between atoms: C_12  and  C_13 
ROOT
HETATM    1  C   UNL     1      44.966 -12.831   8.141  1.00  0.00     0.261 C 
HETATM    2  N   UNL     1      44.015 -13.751   7.733  1.00  0.00    -0.246 N 
HETATM    3  O   UNL     1      46.178 -12.933   7.948  1.00  0.00    -0.269 OA
HETATM    4  H   UNL     1      43.036 -13.609   7.962  1.00  0.00     0.192 HD
ENDROOT
BRANCH   2   5
HETATM    5  N   UNL     1      44.428 -14.833   7.018  1.00  0.00    -0.184 NA
HETATM    6  C   UNL     1      43.697 -15.896   7.054  1.00  0.00     0.152 C 
BRANCH   6   7
HETATM    7  C   UNL     1      44.111 -17.047   6.273  1.00  0.00     0.011 A 
HETATM    8  C   UNL     1      43.614 -17.506   5.004  1.00  0.00     0.004 A 
HETATM    9  C   UNL     1      44.315 -18.667   4.673  1.00  0.00     0.043 A 
HETATM   10  C   UNL     1      42.628 -17.046   4.103  1.00  0.00     0.014 A 
HETATM   11  C   UNL     1      44.079 -19.386   3.494  1.00  0.00     0.030 A 
HETATM   12  N   UNL     1      45.207 -18.904   5.692  1.00  0.00    -0.364 N 
HETATM   13  C   UNL     1      43.098 -18.906   2.623  1.00  0.00     0.002 A 
HETATM   14  C   UNL     1      42.380 -17.751   2.921  1.00  0.00     0.001 A 
HETATM   15  H   UNL     1      45.847 -19.687   5.717  1.00  0.00     0.165 HD
HETATM   16  C   UNL     1      45.096 -17.939   6.659  1.00  0.00     0.102 A 
ENDBRANCH   6   7
ENDBRANCH   2   5
BRANCH   1  17
HETATM   17  C   UNL     1      44.392 -11.588   8.810  1.00  0.00     0.280 C 
BRANCH  17  18
HETATM   18  O   UNL     1      43.091 -11.774   9.373  1.00  0.00    -0.340 OA
BRANCH  18  19
HETATM   19  C   UNL     1      42.950 -10.978  10.487  1.00  0.00     0.092 A 
HETATM   20  C   UNL     1      42.229  -9.780  10.383  1.00  0.00     0.045 A 
HETATM   21  C   UNL     1      42.005  -8.992  11.515  1.00  0.00     0.028 A 
HETATM   22 BR   UNL     1      41.505  -9.204   8.727  1.00  0.00    -0.048 Br
HETATM   23  C   UNL     1      42.516  -9.383  12.757  1.00  0.00    -0.060 A 
HETATM   24  C   UNL     1      42.213  -8.589  13.995  1.00  0.00     0.048 C 
HETATM   25  C   UNL     1      43.267 -10.563  12.847  1.00  0.00     0.016 A 
HETATM   26  C   UNL     1      43.520 -11.355  11.715  1.00  0.00    -0.027 A 
HETATM   27  C   UNL     1      44.342 -12.602  11.872  1.00  0.00     0.051 C 
ENDBRANCH  18  19
ENDBRANCH  17  18
ENDBRANCH   1  17
TORSDOF 5
ENDMDL
