MODEL 1
REMARK VINA RESULT:      -8.2      0.000      0.000
REMARK  3 active torsions:
REMARK  status: ('A' for Active; 'I' for Inactive)
REMARK    1  A    between atoms: C_4  and  C_5 
REMARK    2  A    between atoms: C_9  and  C_10 
REMARK       I    between atoms: C_10  and  N_11 
REMARK    3  A    between atoms: N_11  and  C_12 
ROOT
HETATM    1  C   UNL     1      40.892 -14.946   0.101  1.00  0.00     0.276 C 
HETATM    2  N   UNL     1      41.959 -14.572  -0.687  1.00  0.00    -0.317 N 
HETATM    3  O   UNL     1      39.752 -14.499   0.019  1.00  0.00    -0.266 OA
HETATM    4  H   UNL     1      42.841 -15.041  -0.468  1.00  0.00     0.169 HD
ENDROOT
BRANCH   1   5
HETATM    5  C   UNL     1      41.260 -15.963   1.100  1.00  0.00     0.147 A 
HETATM    6  N   UNL     1      40.568 -16.125   2.244  1.00  0.00    -0.169 NA
HETATM    7  N   UNL     1      41.206 -17.129   2.868  1.00  0.00    -0.277 N 
HETATM    8  C   UNL     1      42.265 -17.656   2.172  1.00  0.00     0.063 A 
HETATM    9  H   UNL     1      40.868 -17.411   3.782  1.00  0.00     0.189 HD
HETATM   10  C   UNL     1      42.329 -16.890   1.023  1.00  0.00     0.071 A 
BRANCH   8  11
HETATM   11  C   UNL     1      43.089 -18.772   2.641  1.00  0.00    -0.008 A 
HETATM   12  C   UNL     1      43.697 -18.757   3.907  1.00  0.00     0.014 A 
HETATM   13  C   UNL     1      44.473 -19.836   4.342  1.00  0.00     0.001 A 
HETATM   14  C   UNL     1      44.650 -20.947   3.522  1.00  0.00     0.000 A 
HETATM   15  C   UNL     1      44.052 -20.981   2.267  1.00  0.00     0.001 A 
HETATM   16  C   UNL     1      43.277 -19.902   1.830  1.00  0.00     0.014 A 
ENDBRANCH   8  11
ENDBRANCH   1   5
BRANCH   2  17
HETATM   17  C   UNL     1      42.004 -13.641  -1.699  1.00  0.00     0.102 A 
HETATM   18  C   UNL     1      42.420 -12.240  -1.304  1.00  0.00     0.218 A 
HETATM   19  O   UNL     1      42.704 -11.997  -0.131  1.00  0.00    -0.284 OA
HETATM   20  C   UNL     1      42.462 -11.191  -2.381  1.00  0.00     0.078 A 
HETATM   21 BR   UNL     1      42.942  -9.449  -1.949  1.00  0.00    -0.045 Br
HETATM   22  C   UNL     1      42.138 -11.577  -3.624  1.00  0.00     0.111 A 
HETATM   23  N   UNL     1      41.778 -12.858  -3.946  1.00  0.00    -0.372 N 
HETATM   24  C   UNL     1      41.715 -13.844  -2.994  1.00  0.00     0.121 A 
HETATM   25  H   UNL     1      41.534 -13.087  -4.907  1.00  0.00     0.164 HD
ENDBRANCH   2  17
TORSDOF 3
ENDMDL
MODEL 2
REMARK VINA RESULT:      -7.7      0.990      1.450
REMARK  3 active torsions:
REMARK  status: ('A' for Active; 'I' for Inactive)
REMARK    1  A    between atoms: C_4  and  C_5 
REMARK    2  A    between atoms: C_9  and  C_10 
REMARK       I    between atoms: C_10  and  N_11 
REMARK    3  A    between atoms: N_11  and  C_12 
ROOT
HETATM    1  C   UNL     1      40.700 -15.312   0.609  1.00  0.00     0.276 C 
HETATM    2  N   UNL     1      41.375 -15.255  -0.591  1.00  0.00    -0.317 N 
HETATM    3  O   UNL     1      39.722 -14.635   0.911  1.00  0.00    -0.266 OA
HETATM    4  H   UNL     1      42.178 -15.883  -0.662  1.00  0.00     0.169 HD
ENDROOT
BRANCH   1   5
HETATM    5  C   UNL     1      41.289 -16.288   1.540  1.00  0.00     0.147 A 
HETATM    6  N   UNL     1      41.043 -16.252   2.865  1.00  0.00    -0.169 NA
HETATM    7  N   UNL     1      41.748 -17.288   3.352  1.00  0.00    -0.277 N 
HETATM    8  C   UNL     1      42.418 -18.022   2.405  1.00  0.00     0.063 A 
HETATM    9  H   UNL     1      41.734 -17.441   4.354  1.00  0.00     0.189 HD
HETATM   10  C   UNL     1      42.147 -17.368   1.216  1.00  0.00     0.071 A 
BRANCH   8  11
HETATM   11  C   UNL     1      43.227 -19.207   2.698  1.00  0.00    -0.008 A 
HETATM   12  C   UNL     1      43.275 -20.301   1.820  1.00  0.00     0.014 A 
HETATM   13  C   UNL     1      44.060 -21.421   2.111  1.00  0.00     0.001 A 
HETATM   14  C   UNL     1      44.812 -21.463   3.283  1.00  0.00     0.000 A 
HETATM   15  C   UNL     1      44.779 -20.386   4.163  1.00  0.00     0.001 A 
HETATM   16  C   UNL     1      43.992 -19.267   3.872  1.00  0.00     0.014 A 
ENDBRANCH   8  11
ENDBRANCH   1   5
BRANCH   2  17
HETATM   17  C   UNL     1      41.135 -14.453  -1.683  1.00  0.00     0.102 A 
HETATM   18  C   UNL     1      41.804 -13.095  -1.679  1.00  0.00     0.218 A 
HETATM   19  O   UNL     1      42.524 -12.774  -0.734  1.00  0.00    -0.284 OA
HETATM   20  C   UNL     1      41.549 -12.184  -2.847  1.00  0.00     0.078 A 
HETATM   21 BR   UNL     1      42.325 -10.496  -2.884  1.00  0.00    -0.045 Br
HETATM   22  C   UNL     1      40.752 -12.647  -3.821  1.00  0.00     0.111 A 
HETATM   23  N   UNL     1      40.173 -13.888  -3.797  1.00  0.00    -0.372 N 
HETATM   24  C   UNL     1      40.369 -14.747  -2.744  1.00  0.00     0.121 A 
HETATM   25  H   UNL     1      39.570 -14.178  -4.563  1.00  0.00     0.164 HD
ENDBRANCH   2  17
TORSDOF 3
ENDMDL
MODEL 3
REMARK VINA RESULT:      -7.7      2.102      2.404
REMARK  3 active torsions:
REMARK  status: ('A' for Active; 'I' for Inactive)
REMARK    1  A    between atoms: C_4  and  C_5 
REMARK    2  A    between atoms: C_9  and  C_10 
REMARK       I    between atoms: C_10  and  N_11 
REMARK    3  A    between atoms: N_11  and  C_12 
ROOT
HETATM    1  C   UNL     1      41.896 -15.185   0.768  1.00  0.00     0.276 C 
HETATM    2  N   UNL     1      41.206 -15.595  -0.352  1.00  0.00    -0.317 N 
HETATM    3  O   UNL     1      42.213 -14.029   1.029  1.00  0.00    -0.266 OA
HETATM    4  H   UNL     1      41.041 -16.602  -0.411  1.00  0.00     0.169 HD
ENDROOT
BRANCH   1   5
HETATM    5  C   UNL     1      42.245 -16.307   1.655  1.00  0.00     0.147 A 
HETATM    6  N   UNL     1      41.918 -16.314   2.962  1.00  0.00    -0.169 NA
HETATM    7  N   UNL     1      42.402 -17.485   3.410  1.00  0.00    -0.277 N 
HETATM    8  C   UNL     1      43.002 -18.262   2.450  1.00  0.00     0.063 A 
HETATM    9  H   UNL     1      42.292 -17.698   4.395  1.00  0.00     0.189 HD
HETATM   10  C   UNL     1      42.929 -17.497   1.301  1.00  0.00     0.071 A 
BRANCH   8  11
HETATM   11  C   UNL     1      43.576 -19.586   2.700  1.00  0.00    -0.008 A 
HETATM   12  C   UNL     1      44.292 -19.869   3.874  1.00  0.00     0.014 A 
HETATM   13  C   UNL     1      44.825 -21.142   4.099  1.00  0.00     0.001 A 
HETATM   14  C   UNL     1      44.648 -22.153   3.157  1.00  0.00     0.000 A 
HETATM   15  C   UNL     1      43.938 -21.891   1.990  1.00  0.00     0.001 A 
HETATM   16  C   UNL     1      43.406 -20.618   1.763  1.00  0.00     0.014 A 
ENDBRANCH   8  11
ENDBRANCH   1   5
BRANCH   2  17
HETATM   17  C   UNL     1      40.740 -14.843  -1.405  1.00  0.00     0.102 A 
HETATM   18  C   UNL     1      39.480 -14.043  -1.154  1.00  0.00     0.218 A 
HETATM   19  O   UNL     1      38.943 -14.086  -0.047  1.00  0.00    -0.284 OA
HETATM   20  C   UNL     1      38.930 -13.224  -2.288  1.00  0.00     0.078 A 
HETATM   21 BR   UNL     1      37.372 -12.242  -2.043  1.00  0.00    -0.045 Br
HETATM   22  C   UNL     1      39.607 -13.250  -3.446  1.00  0.00     0.111 A 
HETATM   23  N   UNL     1      40.753 -13.976  -3.633  1.00  0.00    -0.372 N 
HETATM   24  C   UNL     1      41.283 -14.748  -2.629  1.00  0.00     0.121 A 
HETATM   25  H   UNL     1      41.215 -13.963  -4.539  1.00  0.00     0.164 HD
ENDBRANCH   2  17
TORSDOF 3
ENDMDL
MODEL 4
REMARK VINA RESULT:      -7.5      2.814      3.335
REMARK  3 active torsions:
REMARK  status: ('A' for Active; 'I' for Inactive)
REMARK    1  A    between atoms: C_4  and  C_5 
REMARK    2  A    between atoms: C_9  and  C_10 
REMARK       I    between atoms: C_10  and  N_11 
REMARK    3  A    between atoms: N_11  and  C_12 
ROOT
HETATM    1  C   UNL     1      41.727 -14.871   1.897  1.00  0.00     0.276 C 
HETATM    2  N   UNL     1      40.449 -15.194   1.495  1.00  0.00    -0.317 N 
HETATM    3  O   UNL     1      42.258 -13.772   1.775  1.00  0.00    -0.266 OA
HETATM    4  H   UNL     1      40.177 -16.165   1.663  1.00  0.00     0.169 HD
ENDROOT
BRANCH   1   5
HETATM    5  C   UNL     1      42.433 -16.015   2.498  1.00  0.00     0.147 A 
HETATM    6  N   UNL     1      43.043 -15.929   3.696  1.00  0.00    -0.169 NA
HETATM    7  N   UNL     1      43.556 -17.157   3.886  1.00  0.00    -0.277 N 
HETATM    8  C   UNL     1      43.281 -18.054   2.884  1.00  0.00     0.063 A 
HETATM    9  H   UNL     1      44.093 -17.321   4.730  1.00  0.00     0.189 HD
HETATM   10  C   UNL     1      42.566 -17.318   1.957  1.00  0.00     0.071 A 
BRANCH   8  11
HETATM   11  C   UNL     1      43.712 -19.454   2.888  1.00  0.00    -0.008 A 
HETATM   12  C   UNL     1      44.434 -20.000   3.961  1.00  0.00     0.014 A 
HETATM   13  C   UNL     1      44.829 -21.341   3.952  1.00  0.00     0.001 A 
HETATM   14  C   UNL     1      44.507 -22.158   2.871  1.00  0.00     0.000 A 
HETATM   15  C   UNL     1      43.788 -21.635   1.801  1.00  0.00     0.001 A 
HETATM   16  C   UNL     1      43.395 -20.294   1.809  1.00  0.00     0.014 A 
ENDBRANCH   8  11
ENDBRANCH   1   5
BRANCH   2  17
HETATM   17  C   UNL     1      39.510 -14.401   0.877  1.00  0.00     0.102 A 
HETATM   18  C   UNL     1      39.627 -14.267  -0.626  1.00  0.00     0.218 A 
HETATM   19  O   UNL     1      40.525 -14.863  -1.222  1.00  0.00    -0.284 OA
HETATM   20  C   UNL     1      38.629 -13.393  -1.333  1.00  0.00     0.078 A 
HETATM   21 BR   UNL     1      38.741 -13.173  -3.174  1.00  0.00    -0.045 Br
HETATM   22  C   UNL     1      37.692 -12.800  -0.578  1.00  0.00     0.111 A 
HETATM   23  N   UNL     1      37.608 -12.955   0.780  1.00  0.00    -0.372 N 
HETATM   24  C   UNL     1      38.506 -13.733   1.468  1.00  0.00     0.121 A 
HETATM   25  H   UNL     1      36.879 -12.470   1.299  1.00  0.00     0.164 HD
ENDBRANCH   2  17
TORSDOF 3
ENDMDL
MODEL 5
REMARK VINA RESULT:      -7.5      2.791      3.548
REMARK  3 active torsions:
REMARK  status: ('A' for Active; 'I' for Inactive)
REMARK    1  A    between atoms: C_4  and  C_5 
REMARK    2  A    between atoms: C_9  and  C_10 
REMARK       I    between atoms: C_10  and  N_11 
REMARK    3  A    between atoms: N_11  and  C_12 
ROOT
HETATM    1  C   UNL     1      43.010 -14.546   2.862  1.00  0.00     0.276 C 
HETATM    2  N   UNL     1      41.891 -14.478   2.060  1.00  0.00    -0.317 N 
HETATM    3  O   UNL     1      43.734 -13.601   3.159  1.00  0.00    -0.266 OA
HETATM    4  H   UNL     1      41.416 -15.370   1.908  1.00  0.00     0.169 HD
ENDROOT
BRANCH   1   5
HETATM    5  C   UNL     1      43.277 -15.912   3.340  1.00  0.00     0.147 A 
HETATM    6  N   UNL     1      43.316 -16.216   4.652  1.00  0.00    -0.169 NA
HETATM    7  N   UNL     1      43.580 -17.534   4.670  1.00  0.00    -0.277 N 
HETATM    8  C   UNL     1      43.682 -18.115   3.431  1.00  0.00     0.063 A 
HETATM    9  H   UNL     1      43.683 -17.985   5.572  1.00  0.00     0.189 HD
HETATM   10  C   UNL     1      43.509 -17.065   2.549  1.00  0.00     0.071 A 
BRANCH   8  11
HETATM   11  C   UNL     1      43.937 -19.540   3.205  1.00  0.00    -0.008 A 
HETATM   12  C   UNL     1      43.576 -20.172   2.004  1.00  0.00     0.014 A 
HETATM   13  C   UNL     1      43.836 -21.531   1.803  1.00  0.00     0.001 A 
HETATM   14  C   UNL     1      44.464 -22.279   2.796  1.00  0.00     0.000 A 
HETATM   15  C   UNL     1      44.832 -21.668   3.991  1.00  0.00     0.001 A 
HETATM   16  C   UNL     1      44.570 -20.310   4.193  1.00  0.00     0.014 A 
ENDBRANCH   8  11
ENDBRANCH   1   5
BRANCH   2  17
HETATM   17  C   UNL     1      41.350 -13.388   1.418  1.00  0.00     0.102 A 
HETATM   18  C   UNL     1      40.114 -12.783   2.049  1.00  0.00     0.218 A 
HETATM   19  O   UNL     1      39.660 -13.268   3.085  1.00  0.00    -0.284 OA
HETATM   20  C   UNL     1      39.484 -11.602   1.364  1.00  0.00     0.078 A 
HETATM   21 BR   UNL     1      37.951 -10.834   2.080  1.00  0.00    -0.045 Br
HETATM   22  C   UNL     1      40.073 -11.157   0.245  1.00  0.00     0.111 A 
HETATM   23  N   UNL     1      41.200 -11.722  -0.290  1.00  0.00    -0.372 N 
HETATM   24  C   UNL     1      41.801 -12.809   0.294  1.00  0.00     0.121 A 
HETATM   25  H   UNL     1      41.595 -11.345  -1.149  1.00  0.00     0.164 HD
ENDBRANCH   2  17
TORSDOF 3
ENDMDL
MODEL 6
REMARK VINA RESULT:      -7.3      2.042      2.498
REMARK  3 active torsions:
REMARK  status: ('A' for Active; 'I' for Inactive)
REMARK    1  A    between atoms: C_4  and  C_5 
REMARK    2  A    between atoms: C_9  and  C_10 
REMARK       I    between atoms: C_10  and  N_11 
REMARK    3  A    between atoms: N_11  and  C_12 
ROOT
HETATM    1  C   UNL     1      42.370 -14.346   2.193  1.00  0.00     0.276 C 
HETATM    2  N   UNL     1      41.318 -14.231   1.310  1.00  0.00    -0.317 N 
HETATM    3  O   UNL     1      43.137 -13.443   2.511  1.00  0.00    -0.266 OA
HETATM    4  H   UNL     1      40.792 -15.094   1.154  1.00  0.00     0.169 HD
ENDROOT
BRANCH   1   5
HETATM    5  C   UNL     1      42.505 -15.709   2.733  1.00  0.00     0.147 A 
HETATM    6  N   UNL     1      41.886 -16.093   3.867  1.00  0.00    -0.169 NA
HETATM    7  N   UNL     1      42.253 -17.378   4.015  1.00  0.00    -0.277 N 
HETATM    8  C   UNL     1      43.055 -17.864   3.014  1.00  0.00     0.063 A 
HETATM    9  H   UNL     1      41.920 -17.874   4.834  1.00  0.00     0.189 HD
HETATM   10  C   UNL     1      43.249 -16.779   2.178  1.00  0.00     0.071 A 
BRANCH   8  11
HETATM   11  C   UNL     1      43.555 -19.239   2.950  1.00  0.00    -0.008 A 
HETATM   12  C   UNL     1      44.351 -19.782   3.971  1.00  0.00     0.014 A 
HETATM   13  C   UNL     1      44.812 -21.100   3.897  1.00  0.00     0.001 A 
HETATM   14  C   UNL     1      44.480 -21.898   2.805  1.00  0.00     0.000 A 
HETATM   15  C   UNL     1      43.688 -21.378   1.786  1.00  0.00     0.001 A 
HETATM   16  C   UNL     1      43.230 -20.059   1.858  1.00  0.00     0.014 A 
ENDBRANCH   8  11
ENDBRANCH   1   5
BRANCH   2  17
HETATM   17  C   UNL     1      40.903 -13.131   0.597  1.00  0.00     0.102 A 
HETATM   18  C   UNL     1      41.307 -13.085  -0.862  1.00  0.00     0.218 A 
HETATM   19  O   UNL     1      41.962 -14.010  -1.341  1.00  0.00    -0.284 OA
HETATM   20  C   UNL     1      40.887 -11.888  -1.668  1.00  0.00     0.078 A 
HETATM   21 BR   UNL     1      41.376 -11.767  -3.457  1.00  0.00    -0.045 Br
HETATM   22  C   UNL     1      40.169 -10.947  -1.038  1.00  0.00     0.111 A 
HETATM   23  N   UNL     1      39.810 -11.028   0.281  1.00  0.00    -0.372 N 
HETATM   24  C   UNL     1      40.182 -12.096   1.058  1.00  0.00     0.121 A 
HETATM   25  H   UNL     1      39.272 -10.276   0.704  1.00  0.00     0.164 HD
ENDBRANCH   2  17
TORSDOF 3
ENDMDL
MODEL 7
REMARK VINA RESULT:      -7.3      4.022      5.155
REMARK  3 active torsions:
REMARK  status: ('A' for Active; 'I' for Inactive)
REMARK    1  A    between atoms: C_4  and  C_5 
REMARK    2  A    between atoms: C_9  and  C_10 
REMARK       I    between atoms: C_10  and  N_11 
REMARK    3  A    between atoms: N_11  and  C_12 
ROOT
HETATM    1  C   UNL     1      42.617 -14.454   3.272  1.00  0.00     0.276 C 
HETATM    2  N   UNL     1      41.525 -14.145   4.055  1.00  0.00    -0.317 N 
HETATM    3  O   UNL     1      43.492 -13.667   2.925  1.00  0.00    -0.266 OA
HETATM    4  H   UNL     1      40.890 -14.927   4.234  1.00  0.00     0.169 HD
ENDROOT
BRANCH   1   5
HETATM    5  C   UNL     1      42.633 -15.868   2.862  1.00  0.00     0.147 A 
HETATM    6  N   UNL     1      41.882 -16.325   1.842  1.00  0.00    -0.169 NA
HETATM    7  N   UNL     1      42.176 -17.635   1.786  1.00  0.00    -0.277 N 
HETATM    8  C   UNL     1      43.110 -18.052   2.701  1.00  0.00     0.063 A 
HETATM    9  H   UNL     1      41.696 -18.200   1.094  1.00  0.00     0.189 HD
HETATM   10  C   UNL     1      43.404 -16.913   3.428  1.00  0.00     0.071 A 
BRANCH   8  11
HETATM   11  C   UNL     1      43.604 -19.427   2.809  1.00  0.00    -0.008 A 
HETATM   12  C   UNL     1      43.398 -20.366   1.786  1.00  0.00     0.014 A 
HETATM   13  C   UNL     1      43.885 -21.672   1.902  1.00  0.00     0.001 A 
HETATM   14  C   UNL     1      44.589 -22.058   3.039  1.00  0.00     0.000 A 
HETATM   15  C   UNL     1      44.806 -21.139   4.061  1.00  0.00     0.001 A 
HETATM   16  C   UNL     1      44.318 -19.834   3.946  1.00  0.00     0.014 A 
ENDBRANCH   8  11
ENDBRANCH   1   5
BRANCH   2  17
HETATM   17  C   UNL     1      41.164 -12.935   4.599  1.00  0.00     0.102 A 
HETATM   18  C   UNL     1      39.966 -12.249   3.976  1.00  0.00     0.218 A 
HETATM   19  O   UNL     1      39.373 -12.790   3.043  1.00  0.00    -0.284 OA
HETATM   20  C   UNL     1      39.554 -10.915   4.532  1.00  0.00     0.078 A 
HETATM   21 BR   UNL     1      38.106 -10.017   3.790  1.00  0.00    -0.045 Br
HETATM   22  C   UNL     1      40.273 -10.430   5.555  1.00  0.00     0.111 A 
HETATM   23  N   UNL     1      41.344 -11.085   6.103  1.00  0.00    -0.372 N 
HETATM   24  C   UNL     1      41.763 -12.299   5.618  1.00  0.00     0.121 A 
HETATM   25  H   UNL     1      41.855 -10.660   6.872  1.00  0.00     0.164 HD
ENDBRANCH   2  17
TORSDOF 3
ENDMDL
MODEL 8
REMARK VINA RESULT:      -7.3      4.746      5.532
REMARK  3 active torsions:
REMARK  status: ('A' for Active; 'I' for Inactive)
REMARK    1  A    between atoms: C_4  and  C_5 
REMARK    2  A    between atoms: C_9  and  C_10 
REMARK       I    between atoms: C_10  and  N_11 
REMARK    3  A    between atoms: N_11  and  C_12 
ROOT
HETATM    1  C   UNL     1      42.989 -14.685   5.157  1.00  0.00     0.276 C 
HETATM    2  N   UNL     1      41.618 -14.557   5.095  1.00  0.00    -0.317 N 
HETATM    3  O   UNL     1      43.788 -13.759   5.250  1.00  0.00    -0.266 OA
HETATM    4  H   UNL     1      41.108 -15.439   5.004  1.00  0.00     0.169 HD
ENDROOT
BRANCH   1   5
HETATM    5  C   UNL     1      43.427 -16.088   5.084  1.00  0.00     0.147 A 
HETATM    6  N   UNL     1      44.013 -16.709   6.127  1.00  0.00    -0.169 NA
HETATM    7  N   UNL     1      44.255 -17.949   5.669  1.00  0.00    -0.277 N 
HETATM    8  C   UNL     1      43.824 -18.181   4.387  1.00  0.00     0.063 A 
HETATM    9  H   UNL     1      44.726 -18.599   6.288  1.00  0.00     0.189 HD
HETATM   10  C   UNL     1      43.301 -16.968   3.981  1.00  0.00     0.071 A 
BRANCH   8  11
HETATM   11  C   UNL     1      43.956 -19.463   3.690  1.00  0.00    -0.008 A 
HETATM   12  C   UNL     1      44.628 -20.551   4.270  1.00  0.00     0.014 A 
HETATM   13  C   UNL     1      44.736 -21.770   3.595  1.00  0.00     0.001 A 
HETATM   14  C   UNL     1      44.170 -21.923   2.332  1.00  0.00     0.000 A 
HETATM   15  C   UNL     1      43.497 -20.858   1.743  1.00  0.00     0.001 A 
HETATM   16  C   UNL     1      43.391 -19.638   2.418  1.00  0.00     0.014 A 
ENDBRANCH   8  11
ENDBRANCH   1   5
BRANCH   2  17
HETATM   17  C   UNL     1      40.852 -13.414   5.109  1.00  0.00     0.102 A 
HETATM   18  C   UNL     1      40.035 -13.138   3.865  1.00  0.00     0.218 A 
HETATM   19  O   UNL     1      40.077 -13.928   2.922  1.00  0.00    -0.284 OA
HETATM   20  C   UNL     1      39.201 -11.887   3.837  1.00  0.00     0.078 A 
HETATM   21 BR   UNL     1      38.197 -11.485   2.326  1.00  0.00    -0.045 Br
HETATM   22  C   UNL     1      39.231 -11.107   4.928  1.00  0.00     0.111 A 
HETATM   23  N   UNL     1      39.974 -11.396   6.042  1.00  0.00    -0.372 N 
HETATM   24  C   UNL     1      40.759 -12.520   6.106  1.00  0.00     0.121 A 
HETATM   25  H   UNL     1      39.962 -10.759   6.835  1.00  0.00     0.164 HD
ENDBRANCH   2  17
TORSDOF 3
ENDMDL
MODEL 9
REMARK VINA RESULT:      -7.2      3.653      4.059
REMARK  3 active torsions:
REMARK  status: ('A' for Active; 'I' for Inactive)
REMARK    1  A    between atoms: C_4  and  C_5 
REMARK    2  A    between atoms: C_9  and  C_10 
REMARK       I    between atoms: C_10  and  N_11 
REMARK    3  A    between atoms: N_11  and  C_12 
ROOT
HETATM    1  C   UNL     1      41.273 -15.258   3.357  1.00  0.00     0.276 C 
HETATM    2  N   UNL     1      41.277 -14.252   2.414  1.00  0.00    -0.317 N 
HETATM    3  O   UNL     1      40.558 -15.300   4.353  1.00  0.00    -0.266 OA
HETATM    4  H   UNL     1      41.951 -14.377   1.655  1.00  0.00     0.169 HD
ENDROOT
BRANCH   1   5
HETATM    5  C   UNL     1      42.253 -16.314   3.056  1.00  0.00     0.147 A 
HETATM    6  N   UNL     1      43.423 -16.050   2.443  1.00  0.00    -0.169 NA
HETATM    7  N   UNL     1      44.019 -17.252   2.354  1.00  0.00    -0.277 N 
HETATM    8  C   UNL     1      43.310 -18.286   2.911  1.00  0.00     0.063 A 
HETATM    9  H   UNL     1      44.921 -17.301   1.893  1.00  0.00     0.189 HD
HETATM   10  C   UNL     1      42.141 -17.695   3.354  1.00  0.00     0.071 A 
BRANCH   8  11
HETATM   11  C   UNL     1      43.772 -19.675   2.955  1.00  0.00    -0.008 A 
HETATM   12  C   UNL     1      44.425 -20.198   4.083  1.00  0.00     0.014 A 
HETATM   13  C   UNL     1      44.851 -21.529   4.112  1.00  0.00     0.001 A 
HETATM   14  C   UNL     1      44.628 -22.360   3.017  1.00  0.00     0.000 A 
HETATM   15  C   UNL     1      43.980 -21.860   1.892  1.00  0.00     0.001 A 
HETATM   16  C   UNL     1      43.555 -20.528   1.862  1.00  0.00     0.014 A 
ENDBRANCH   8  11
ENDBRANCH   1   5
BRANCH   2  17
HETATM   17  C   UNL     1      40.525 -13.101   2.373  1.00  0.00     0.102 A 
HETATM   18  C   UNL     1      39.214 -13.182   1.619  1.00  0.00     0.218 A 
HETATM   19  O   UNL     1      38.876 -14.245   1.098  1.00  0.00    -0.284 OA
HETATM   20  C   UNL     1      38.375 -11.938   1.537  1.00  0.00     0.078 A 
HETATM   21 BR   UNL     1      36.768 -11.973   0.604  1.00  0.00    -0.045 Br
HETATM   22  C   UNL     1      38.843 -10.841   2.151  1.00  0.00     0.111 A 
HETATM   23  N   UNL     1      40.029 -10.809   2.835  1.00  0.00    -0.372 N 
HETATM   24  C   UNL     1      40.833 -11.917   2.925  1.00  0.00     0.121 A 
HETATM   25  H   UNL     1      40.335  -9.942   3.272  1.00  0.00     0.164 HD
ENDBRANCH   2  17
TORSDOF 3
ENDMDL
MODEL 10
REMARK VINA RESULT:      -7.2      4.263      4.832
REMARK  3 active torsions:
REMARK  status: ('A' for Active; 'I' for Inactive)
REMARK    1  A    between atoms: C_4  and  C_5 
REMARK    2  A    between atoms: C_9  and  C_10 
REMARK       I    between atoms: C_10  and  N_11 
REMARK    3  A    between atoms: N_11  and  C_12 
ROOT
HETATM    1  C   UNL     1      41.576 -15.143   3.970  1.00  0.00     0.276 C 
HETATM    2  N   UNL     1      42.299 -13.970   3.933  1.00  0.00    -0.317 N 
HETATM    3  O   UNL     1      40.353 -15.231   3.930  1.00  0.00    -0.266 OA
HETATM    4  H   UNL     1      43.313 -14.088   3.991  1.00  0.00     0.169 HD
ENDROOT
BRANCH   1   5
HETATM    5  C   UNL     1      42.439 -16.332   4.078  1.00  0.00     0.147 A 
HETATM    6  N   UNL     1      43.407 -16.430   5.010  1.00  0.00    -0.169 NA
HETATM    7  N   UNL     1      43.953 -17.637   4.782  1.00  0.00    -0.277 N 
HETATM    8  C   UNL     1      43.366 -18.349   3.766  1.00  0.00     0.063 A 
HETATM    9  H   UNL     1      44.736 -17.920   5.361  1.00  0.00     0.189 HD
HETATM   10  C   UNL     1      42.389 -17.500   3.279  1.00  0.00     0.071 A 
BRANCH   8  11
HETATM   11  C   UNL     1      43.775 -19.695   3.358  1.00  0.00    -0.008 A 
HETATM   12  C   UNL     1      44.496 -20.538   4.218  1.00  0.00     0.014 A 
HETATM   13  C   UNL     1      44.870 -21.824   3.814  1.00  0.00     0.001 A 
HETATM   14  C   UNL     1      44.525 -22.288   2.547  1.00  0.00     0.000 A 
HETATM   15  C   UNL     1      43.807 -21.467   1.684  1.00  0.00     0.001 A 
HETATM   16  C   UNL     1      43.435 -20.181   2.086  1.00  0.00     0.014 A 
ENDBRANCH   8  11
ENDBRANCH   1   5
BRANCH   2  17
HETATM   17  C   UNL     1      41.843 -12.674   3.860  1.00  0.00     0.102 A 
HETATM   18  C   UNL     1      41.778 -11.911   5.166  1.00  0.00     0.218 A 
HETATM   19  O   UNL     1      42.135 -12.458   6.209  1.00  0.00    -0.284 OA
HETATM   20  C   UNL     1      41.266 -10.498   5.128  1.00  0.00     0.078 A 
HETATM   21 BR   UNL     1      41.142  -9.522   6.704  1.00  0.00    -0.045 Br
HETATM   22  C   UNL     1      40.914 -10.007   3.931  1.00  0.00     0.111 A 
HETATM   23  N   UNL     1      40.998 -10.724   2.767  1.00  0.00    -0.372 N 
HETATM   24  C   UNL     1      41.447 -12.021   2.757  1.00  0.00     0.121 A 
HETATM   25  H   UNL     1      40.706 -10.298   1.890  1.00  0.00     0.164 HD
ENDBRANCH   2  17
TORSDOF 3
ENDMDL
