MODEL 1
REMARK VINA RESULT:      -8.0      0.000      0.000
REMARK  7 active torsions:
REMARK  status: ('A' for Active; 'I' for Inactive)
REMARK    1  A    between atoms: C_4  and  C_5 
REMARK    2  A    between atoms: C_10  and  C_11 
REMARK       I    between atoms: C_11  and  N_12 
REMARK    3  A    between atoms: N_12  and  C_13 
REMARK    4  A    between atoms: C_13  and  C_14 
REMARK    5  A    between atoms: C_14  and  C_15 
REMARK    6  A    between atoms: C_15  and  N_16 
REMARK    7  A    between atoms: C_26  and  C_27 
ROOT
HETATM    1  C   UNL     1      44.380 -18.093   3.436  1.00  0.00     0.125 C 
HETATM    2  N   UNL     1      43.852 -17.044   2.558  1.00  0.00    -0.365 N 
HETATM    3  C   UNL     1      42.615 -16.522   2.745  1.00  0.00     0.141 A 
HETATM    4  N   UNL     1      41.886 -16.816   3.868  1.00  0.00    -0.238 N 
HETATM    5  N   UNL     1      40.661 -16.259   3.876  1.00  0.00    -0.163 NA
HETATM    6  C   UNL     1      40.635 -15.501   2.755  1.00  0.00     0.165 A 
HETATM    7  C   UNL     1      41.832 -15.663   2.016  1.00  0.00     0.092 A 
HETATM    8 BR   UNL     1      42.268 -14.851   0.388  1.00  0.00    -0.044 Br
HETATM    9  C   UNL     1      42.340 -17.718   4.916  1.00  0.00     0.221 C 
HETATM   10  C   UNL     1      43.874 -17.844   4.869  1.00  0.00     0.067 C 
HETATM   11  H   UNL     1      44.304 -16.989   1.644  1.00  0.00     0.162 HD
ENDROOT
BRANCH   6  12
HETATM   12  C   UNL     1      39.473 -14.648   2.481  1.00  0.00     0.273 C 
HETATM   13  N   UNL     1      38.768 -15.026   1.356  1.00  0.00    -0.355 N 
HETATM   14  H   UNL     1      39.176 -15.803   0.831  1.00  0.00     0.162 HD
HETATM   15  O   UNL     1      39.082 -13.722   3.193  1.00  0.00    -0.266 OA
BRANCH  13  16
HETATM   16  C   UNL     1      37.624 -14.313   0.846  1.00  0.00     0.124 C 
BRANCH  16  17
HETATM   17  C   UNL     1      37.996 -13.115  -0.027  1.00  0.00     0.047 C 
BRANCH  17  18
HETATM   18  C   UNL     1      37.745 -13.248  -1.530  1.00  0.00     0.236 C 
BRANCH  18  19
HETATM   19  N   UNL     1      38.446 -14.416  -2.170  1.00  0.00    -0.067 N 
HETATM   20  H   UNL     1      38.484 -15.177  -1.458  1.00  0.00     0.280 HD
HETATM   21  C   UNL     1      37.785 -14.950  -3.428  1.00  0.00     0.261 C 
HETATM   22  C   UNL     1      38.593 -16.128  -3.984  1.00  0.00     0.195 C 
HETATM   23  O   UNL     1      39.949 -15.747  -4.243  1.00  0.00    -0.388 OA
HETATM   24  C   UNL     1      40.608 -15.326  -3.043  1.00  0.00     0.195 C 
HETATM   25  C   UNL     1      39.916 -14.096  -2.447  1.00  0.00     0.261 C 
ENDBRANCH  18  19
ENDBRANCH  17  18
ENDBRANCH  16  17
ENDBRANCH  13  16
ENDBRANCH   6  12
BRANCH   9  26
HETATM   26  C   UNL     1      41.908 -17.247   6.289  1.00  0.00     0.409 C 
HETATM   27  F   UNL     1      40.568 -17.324   6.457  1.00  0.00    -0.169 F 
HETATM   28  F   UNL     1      42.493 -17.938   7.291  1.00  0.00    -0.169 F 
HETATM   29  F   UNL     1      42.253 -15.947   6.469  1.00  0.00    -0.169 F 
ENDBRANCH   9  26
BRANCH   1  30
HETATM   30  C   UNL     1      44.099 -19.507   2.979  1.00  0.00     0.005 A 
HETATM   31  S   UNL     1      44.845 -20.824   3.799  1.00  0.00    -0.104 SA
HETATM   32  C   UNL     1      44.087 -21.973   2.788  1.00  0.00     0.050 A 
HETATM   33  C   UNL     1      43.292 -21.378   1.836  1.00  0.00     0.008 A 
HETATM   34  C   UNL     1      43.303 -19.957   1.941  1.00  0.00     0.017 A 
ENDBRANCH   1  30
TORSDOF 7
ENDMDL
MODEL 2
REMARK VINA RESULT:      -8.0      3.102      4.638
REMARK  7 active torsions:
REMARK  status: ('A' for Active; 'I' for Inactive)
REMARK    1  A    between atoms: C_4  and  C_5 
REMARK    2  A    between atoms: C_10  and  C_11 
REMARK       I    between atoms: C_11  and  N_12 
REMARK    3  A    between atoms: N_12  and  C_13 
REMARK    4  A    between atoms: C_13  and  C_14 
REMARK    5  A    between atoms: C_14  and  C_15 
REMARK    6  A    between atoms: C_15  and  N_16 
REMARK    7  A    between atoms: C_26  and  C_27 
ROOT
HETATM    1  C   UNL     1      41.355 -16.686   4.596  1.00  0.00     0.125 C 
HETATM    2  N   UNL     1      40.432 -16.020   3.671  1.00  0.00    -0.365 N 
HETATM    3  C   UNL     1      40.757 -15.818   2.371  1.00  0.00     0.141 A 
HETATM    4  N   UNL     1      41.875 -16.392   1.824  1.00  0.00    -0.238 N 
HETATM    5  N   UNL     1      42.081 -16.051   0.539  1.00  0.00    -0.163 NA
HETATM    6  C   UNL     1      41.002 -15.300   0.218  1.00  0.00     0.165 A 
HETATM    7  C   UNL     1      40.170 -15.117   1.348  1.00  0.00     0.092 A 
HETATM    8 BR   UNL     1      38.575 -14.139   1.425  1.00  0.00    -0.044 Br
HETATM    9  C   UNL     1      42.812 -17.216   2.573  1.00  0.00     0.221 C 
HETATM   10  C   UNL     1      42.123 -17.779   3.830  1.00  0.00     0.067 C 
HETATM   11  H   UNL     1      39.724 -15.439   4.124  1.00  0.00     0.162 HD
ENDROOT
BRANCH   6  12
HETATM   12  C   UNL     1      40.827 -14.830  -1.161  1.00  0.00     0.273 C 
HETATM   13  N   UNL     1      40.467 -15.832  -2.040  1.00  0.00    -0.355 N 
HETATM   14  H   UNL     1      40.430 -16.770  -1.635  1.00  0.00     0.162 HD
HETATM   15  O   UNL     1      40.909 -13.658  -1.533  1.00  0.00    -0.266 OA
BRANCH  13  16
HETATM   16  C   UNL     1      40.294 -15.634  -3.458  1.00  0.00     0.124 C 
BRANCH  16  17
HETATM   17  C   UNL     1      38.974 -16.188  -3.991  1.00  0.00     0.047 C 
BRANCH  17  18
HETATM   18  C   UNL     1      37.692 -15.498  -3.518  1.00  0.00     0.236 C 
BRANCH  18  19
HETATM   19  N   UNL     1      37.389 -14.208  -4.232  1.00  0.00    -0.067 N 
HETATM   20  H   UNL     1      38.053 -14.139  -5.033  1.00  0.00     0.280 HD
HETATM   21  C   UNL     1      35.970 -14.081  -4.754  1.00  0.00     0.261 C 
HETATM   22  C   UNL     1      35.787 -12.729  -5.452  1.00  0.00     0.195 C 
HETATM   23  O   UNL     1      36.104 -11.646  -4.570  1.00  0.00    -0.388 OA
HETATM   24  C   UNL     1      37.469 -11.708  -4.142  1.00  0.00     0.195 C 
HETATM   25  C   UNL     1      37.736 -12.999  -3.362  1.00  0.00     0.261 C 
ENDBRANCH  18  19
ENDBRANCH  17  18
ENDBRANCH  16  17
ENDBRANCH  13  16
ENDBRANCH   6  12
BRANCH   9  26
HETATM   26  C   UNL     1      43.354 -18.354   1.734  1.00  0.00     0.409 C 
HETATM   27  F   UNL     1      42.399 -19.264   1.431  1.00  0.00    -0.169 F 
HETATM   28  F   UNL     1      43.912 -17.937   0.577  1.00  0.00    -0.169 F 
HETATM   29  F   UNL     1      44.326 -19.015   2.412  1.00  0.00    -0.169 F 
ENDBRANCH   9  26
BRANCH   1  30
HETATM   30  C   UNL     1      42.291 -15.759   5.340  1.00  0.00     0.005 A 
HETATM   31  S   UNL     1      43.531 -16.426   6.328  1.00  0.00    -0.104 SA
HETATM   32  C   UNL     1      44.105 -14.879   6.771  1.00  0.00     0.050 A 
HETATM   33  C   UNL     1      43.367 -13.871   6.196  1.00  0.00     0.008 A 
HETATM   34  C   UNL     1      42.318 -14.376   5.375  1.00  0.00     0.017 A 
ENDBRANCH   1  30
TORSDOF 7
ENDMDL
MODEL 3
REMARK VINA RESULT:      -8.0      4.172      8.199
REMARK  7 active torsions:
REMARK  status: ('A' for Active; 'I' for Inactive)
REMARK    1  A    between atoms: C_4  and  C_5 
REMARK    2  A    between atoms: C_10  and  C_11 
REMARK       I    between atoms: C_11  and  N_12 
REMARK    3  A    between atoms: N_12  and  C_13 
REMARK    4  A    between atoms: C_13  and  C_14 
REMARK    5  A    between atoms: C_14  and  C_15 
REMARK    6  A    between atoms: C_15  and  N_16 
REMARK    7  A    between atoms: C_26  and  C_27 
ROOT
HETATM    1  C   UNL     1      41.020 -14.507  -1.728  1.00  0.00     0.125 C 
HETATM    2  N   UNL     1      41.751 -15.525  -0.966  1.00  0.00    -0.365 N 
HETATM    3  C   UNL     1      41.589 -15.657   0.373  1.00  0.00     0.141 A 
HETATM    4  N   UNL     1      40.601 -14.976   1.037  1.00  0.00    -0.238 N 
HETATM    5  N   UNL     1      40.608 -15.178   2.367  1.00  0.00    -0.163 NA
HETATM    6  C   UNL     1      41.583 -16.098   2.557  1.00  0.00     0.165 A 
HETATM    7  C   UNL     1      42.228 -16.398   1.334  1.00  0.00     0.092 A 
HETATM    8 BR   UNL     1      43.651 -17.587   1.075  1.00  0.00    -0.044 Br
HETATM    9  C   UNL     1      39.685 -14.046   0.394  1.00  0.00     0.221 C 
HETATM   10  C   UNL     1      39.617 -14.341  -1.116  1.00  0.00     0.067 C 
HETATM   11  H   UNL     1      42.599 -15.867  -1.420  1.00  0.00     0.162 HD
ENDROOT
BRANCH   6  12
HETATM   12  C   UNL     1      41.811 -16.650   3.898  1.00  0.00     0.273 C 
HETATM   13  N   UNL     1      42.830 -16.021   4.584  1.00  0.00    -0.355 N 
HETATM   14  H   UNL     1      43.330 -15.303   4.052  1.00  0.00     0.162 HD
HETATM   15  O   UNL     1      41.138 -17.534   4.431  1.00  0.00    -0.266 OA
BRANCH  13  16
HETATM   16  C   UNL     1      43.284 -16.418   5.893  1.00  0.00     0.124 C 
BRANCH  16  17
HETATM   17  C   UNL     1      44.387 -17.473   5.858  1.00  0.00     0.047 C 
BRANCH  17  18
HETATM   18  C   UNL     1      44.003 -18.893   6.282  1.00  0.00     0.236 C 
BRANCH  18  19
HETATM   19  N   UNL     1      44.600 -19.974   5.422  1.00  0.00    -0.067 N 
HETATM   20  H   UNL     1      45.628 -19.801   5.384  1.00  0.00     0.280 HD
HETATM   21  C   UNL     1      44.355 -21.390   5.911  1.00  0.00     0.261 C 
HETATM   22  C   UNL     1      45.005 -22.394   4.952  1.00  0.00     0.195 C 
HETATM   23  O   UNL     1      44.517 -22.224   3.618  1.00  0.00    -0.388 OA
HETATM   24  C   UNL     1      44.822 -20.918   3.115  1.00  0.00     0.195 C 
HETATM   25  C   UNL     1      44.150 -19.838   3.967  1.00  0.00     0.261 C 
ENDBRANCH  18  19
ENDBRANCH  17  18
ENDBRANCH  16  17
ENDBRANCH  13  16
ENDBRANCH   6  12
BRANCH   9  26
HETATM   26  C   UNL     1      38.296 -14.121   0.992  1.00  0.00     0.409 C 
HETATM   27  F   UNL     1      38.105 -15.261   1.696  1.00  0.00    -0.169 F 
HETATM   28  F   UNL     1      38.016 -13.079   1.805  1.00  0.00    -0.169 F 
HETATM   29  F   UNL     1      37.360 -14.103   0.010  1.00  0.00    -0.169 F 
ENDBRANCH   9  26
BRANCH   1  30
HETATM   30  C   UNL     1      41.733 -13.180  -1.866  1.00  0.00     0.005 A 
HETATM   31  S   UNL     1      41.578 -12.287  -3.329  1.00  0.00    -0.104 SA
HETATM   32  C   UNL     1      42.573 -11.027  -2.746  1.00  0.00     0.050 A 
HETATM   33  C   UNL     1      43.030 -11.277  -1.472  1.00  0.00     0.008 A 
HETATM   34  C   UNL     1      42.550 -12.520  -0.966  1.00  0.00     0.017 A 
ENDBRANCH   1  30
TORSDOF 7
ENDMDL
MODEL 4
REMARK VINA RESULT:      -8.0      2.914      4.030
REMARK  7 active torsions:
REMARK  status: ('A' for Active; 'I' for Inactive)
REMARK    1  A    between atoms: C_4  and  C_5 
REMARK    2  A    between atoms: C_10  and  C_11 
REMARK       I    between atoms: C_11  and  N_12 
REMARK    3  A    between atoms: N_12  and  C_13 
REMARK    4  A    between atoms: C_13  and  C_14 
REMARK    5  A    between atoms: C_14  and  C_15 
REMARK    6  A    between atoms: C_15  and  N_16 
REMARK    7  A    between atoms: C_26  and  C_27 
ROOT
HETATM    1  C   UNL     1      41.681 -18.117   4.993  1.00  0.00     0.125 C 
HETATM    2  N   UNL     1      40.929 -16.954   4.511  1.00  0.00    -0.365 N 
HETATM    3  C   UNL     1      41.452 -16.106   3.592  1.00  0.00     0.141 A 
HETATM    4  N   UNL     1      42.621 -16.403   2.940  1.00  0.00    -0.238 N 
HETATM    5  N   UNL     1      43.029 -15.434   2.099  1.00  0.00    -0.163 NA
HETATM    6  C   UNL     1      42.035 -14.517   2.143  1.00  0.00     0.165 A 
HETATM    7  C   UNL     1      41.049 -14.897   3.085  1.00  0.00     0.092 A 
HETATM    8 BR   UNL     1      39.493 -13.954   3.528  1.00  0.00    -0.044 Br
HETATM    9  C   UNL     1      43.407 -17.601   3.191  1.00  0.00     0.221 C 
HETATM   10  C   UNL     1      42.520 -18.683   3.833  1.00  0.00     0.067 C 
HETATM   11  H   UNL     1      40.181 -16.645   5.134  1.00  0.00     0.162 HD
ENDROOT
BRANCH   6  12
HETATM   12  C   UNL     1      42.084 -13.348   1.257  1.00  0.00     0.273 C 
HETATM   13  N   UNL     1      41.600 -13.600  -0.011  1.00  0.00    -0.355 N 
HETATM   14  H   UNL     1      41.332 -14.572  -0.186  1.00  0.00     0.162 HD
HETATM   15  O   UNL     1      42.442 -12.216   1.586  1.00  0.00    -0.266 OA
BRANCH  13  16
HETATM   16  C   UNL     1      41.598 -12.632  -1.078  1.00  0.00     0.124 C 
BRANCH  16  17
HETATM   17  C   UNL     1      41.749 -13.256  -2.464  1.00  0.00     0.047 C 
BRANCH  17  18
HETATM   18  C   UNL     1      40.842 -12.714  -3.571  1.00  0.00     0.236 C 
BRANCH  18  19
HETATM   19  N   UNL     1      39.705 -13.630  -3.938  1.00  0.00    -0.067 N 
HETATM   20  H   UNL     1      39.572 -13.553  -4.970  1.00  0.00     0.280 HD
HETATM   21  C   UNL     1      39.913 -15.088  -3.574  1.00  0.00     0.261 C 
HETATM   22  C   UNL     1      38.690 -15.912  -3.992  1.00  0.00     0.195 C 
HETATM   23  O   UNL     1      37.495 -15.402  -3.391  1.00  0.00    -0.388 OA
HETATM   24  C   UNL     1      37.242 -14.053  -3.800  1.00  0.00     0.195 C 
HETATM   25  C   UNL     1      38.381 -13.130  -3.358  1.00  0.00     0.261 C 
ENDBRANCH  18  19
ENDBRANCH  17  18
ENDBRANCH  16  17
ENDBRANCH  13  16
ENDBRANCH   6  12
BRANCH   9  26
HETATM   26  C   UNL     1      44.032 -18.139   1.921  1.00  0.00     0.409 C 
HETATM   27  F   UNL     1      44.941 -17.285   1.397  1.00  0.00    -0.169 F 
HETATM   28  F   UNL     1      44.638 -19.334   2.097  1.00  0.00    -0.169 F 
HETATM   29  F   UNL     1      43.079 -18.329   0.974  1.00  0.00    -0.169 F 
ENDBRANCH   9  26
BRANCH   1  30
HETATM   30  C   UNL     1      42.524 -17.866   6.224  1.00  0.00     0.005 A 
HETATM   31  S   UNL     1      43.644 -19.065   6.741  1.00  0.00    -0.104 SA
HETATM   32  C   UNL     1      44.161 -18.113   8.061  1.00  0.00     0.050 A 
HETATM   33  C   UNL     1      43.493 -16.912   8.124  1.00  0.00     0.008 A 
HETATM   34  C   UNL     1      42.545 -16.771   7.069  1.00  0.00     0.017 A 
ENDBRANCH   1  30
TORSDOF 7
ENDMDL
MODEL 5
REMARK VINA RESULT:      -7.9      3.070      4.583
REMARK  7 active torsions:
REMARK  status: ('A' for Active; 'I' for Inactive)
REMARK    1  A    between atoms: C_4  and  C_5 
REMARK    2  A    between atoms: C_10  and  C_11 
REMARK       I    between atoms: C_11  and  N_12 
REMARK    3  A    between atoms: N_12  and  C_13 
REMARK    4  A    between atoms: C_13  and  C_14 
REMARK    5  A    between atoms: C_14  and  C_15 
REMARK    6  A    between atoms: C_15  and  N_16 
REMARK    7  A    between atoms: C_26  and  C_27 
ROOT
HETATM    1  C   UNL     1      41.605 -17.019   4.849  1.00  0.00     0.125 C 
HETATM    2  N   UNL     1      40.716 -16.303   3.928  1.00  0.00    -0.365 N 
HETATM    3  C   UNL     1      41.061 -16.088   2.635  1.00  0.00     0.141 A 
HETATM    4  N   UNL     1      42.165 -16.691   2.089  1.00  0.00    -0.238 N 
HETATM    5  N   UNL     1      42.396 -16.334   0.812  1.00  0.00    -0.163 NA
HETATM    6  C   UNL     1      41.348 -15.539   0.495  1.00  0.00     0.165 A 
HETATM    7  C   UNL     1      40.511 -15.348   1.620  1.00  0.00     0.092 A 
HETATM    8 BR   UNL     1      38.952 -14.315   1.700  1.00  0.00    -0.044 Br
HETATM    9  C   UNL     1      43.063 -17.563   2.831  1.00  0.00     0.221 C 
HETATM   10  C   UNL     1      42.342 -18.124   4.070  1.00  0.00     0.067 C 
HETATM   11  H   UNL     1      40.024 -15.706   4.385  1.00  0.00     0.162 HD
ENDROOT
BRANCH   6  12
HETATM   12  C   UNL     1      41.205 -15.037  -0.876  1.00  0.00     0.273 C 
HETATM   13  N   UNL     1      40.612 -15.943  -1.733  1.00  0.00    -0.355 N 
HETATM   14  H   UNL     1      40.409 -16.858  -1.321  1.00  0.00     0.162 HD
HETATM   15  O   UNL     1      41.499 -13.903  -1.257  1.00  0.00    -0.266 OA
BRANCH  13  16
HETATM   16  C   UNL     1      40.415 -15.709  -3.141  1.00  0.00     0.124 C 
BRANCH  16  17
HETATM   17  C   UNL     1      38.946 -15.735  -3.561  1.00  0.00     0.047 C 
BRANCH  17  18
HETATM   18  C   UNL     1      38.209 -14.394  -3.588  1.00  0.00     0.236 C 
BRANCH  18  19
HETATM   19  N   UNL     1      38.927 -13.283  -2.871  1.00  0.00    -0.067 N 
HETATM   20  H   UNL     1      39.740 -13.712  -2.379  1.00  0.00     0.280 HD
HETATM   21  C   UNL     1      39.425 -12.161  -3.763  1.00  0.00     0.261 C 
HETATM   22  C   UNL     1      40.130 -11.093  -2.918  1.00  0.00     0.195 C 
HETATM   23  O   UNL     1      39.262 -10.587  -1.898  1.00  0.00    -0.388 OA
HETATM   24  C   UNL     1      38.857 -11.624  -0.997  1.00  0.00     0.195 C 
HETATM   25  C   UNL     1      38.072 -12.711  -1.739  1.00  0.00     0.261 C 
ENDBRANCH  18  19
ENDBRANCH  17  18
ENDBRANCH  16  17
ENDBRANCH  13  16
ENDBRANCH   6  12
BRANCH   9  26
HETATM   26  C   UNL     1      43.573 -18.704   1.976  1.00  0.00     0.409 C 
HETATM   27  F   UNL     1      44.024 -18.278   0.773  1.00  0.00    -0.169 F 
HETATM   28  F   UNL     1      44.565 -19.403   2.568  1.00  0.00    -0.169 F 
HETATM   29  F   UNL     1      42.574 -19.589   1.731  1.00  0.00    -0.169 F 
ENDBRANCH   9  26
BRANCH   1  30
HETATM   30  C   UNL     1      42.565 -16.140   5.620  1.00  0.00     0.005 A 
HETATM   31  S   UNL     1      42.431 -14.430   5.495  1.00  0.00    -0.104 SA
HETATM   32  C   UNL     1      43.737 -14.179   6.567  1.00  0.00     0.050 A 
HETATM   33  C   UNL     1      44.279 -15.365   7.005  1.00  0.00     0.008 A 
HETATM   34  C   UNL     1      43.608 -16.496   6.456  1.00  0.00     0.017 A 
ENDBRANCH   1  30
TORSDOF 7
ENDMDL
MODEL 6
REMARK VINA RESULT:      -7.2      3.150      4.397
REMARK  7 active torsions:
REMARK  status: ('A' for Active; 'I' for Inactive)
REMARK    1  A    between atoms: C_4  and  C_5 
REMARK    2  A    between atoms: C_10  and  C_11 
REMARK       I    between atoms: C_11  and  N_12 
REMARK    3  A    between atoms: N_12  and  C_13 
REMARK    4  A    between atoms: C_13  and  C_14 
REMARK    5  A    between atoms: C_14  and  C_15 
REMARK    6  A    between atoms: C_15  and  N_16 
REMARK    7  A    between atoms: C_26  and  C_27 
ROOT
HETATM    1  C   UNL     1      41.088 -16.616   5.219  1.00  0.00     0.125 C 
HETATM    2  N   UNL     1      40.409 -15.403   4.751  1.00  0.00    -0.365 N 
HETATM    3  C   UNL     1      40.679 -14.866   3.537  1.00  0.00     0.141 A 
HETATM    4  N   UNL     1      41.454 -15.534   2.624  1.00  0.00    -0.238 N 
HETATM    5  N   UNL     1      41.668 -14.842   1.490  1.00  0.00    -0.163 NA
HETATM    6  C   UNL     1      40.925 -13.721   1.642  1.00  0.00     0.165 A 
HETATM    7  C   UNL     1      40.316 -13.696   2.919  1.00  0.00     0.092 A 
HETATM    8 BR   UNL     1      39.215 -12.352   3.615  1.00  0.00    -0.044 Br
HETATM    9  C   UNL     1      42.072 -16.827   2.878  1.00  0.00     0.221 C 
HETATM   10  C   UNL     1      41.327 -17.548   4.017  1.00  0.00     0.067 C 
HETATM   11  H   UNL     1      40.009 -14.828   5.494  1.00  0.00     0.162 HD
ENDROOT
BRANCH   6  12
HETATM   12  C   UNL     1      40.828 -12.759   0.538  1.00  0.00     0.273 C 
HETATM   13  N   UNL     1      42.052 -12.275   0.121  1.00  0.00    -0.355 N 
HETATM   14  H   UNL     1      42.853 -12.597   0.670  1.00  0.00     0.162 HD
HETATM   15  O   UNL     1      39.789 -12.440  -0.042  1.00  0.00    -0.266 OA
BRANCH  13  16
HETATM   16  C   UNL     1      42.215 -11.277  -0.905  1.00  0.00     0.124 C 
BRANCH  16  17
HETATM   17  C   UNL     1      42.950 -11.793  -2.141  1.00  0.00     0.047 C 
BRANCH  17  18
HETATM   18  C   UNL     1      42.088 -12.232  -3.327  1.00  0.00     0.236 C 
BRANCH  18  19
HETATM   19  N   UNL     1      41.029 -13.243  -2.976  1.00  0.00    -0.067 N 
HETATM   20  H   UNL     1      41.008 -13.315  -1.936  1.00  0.00     0.280 HD
HETATM   21  C   UNL     1      39.636 -12.912  -3.478  1.00  0.00     0.261 C 
HETATM   22  C   UNL     1      38.654 -14.014  -3.063  1.00  0.00     0.195 C 
HETATM   23  O   UNL     1      39.080 -15.292  -3.548  1.00  0.00    -0.388 OA
HETATM   24  C   UNL     1      40.356 -15.654  -3.009  1.00  0.00     0.195 C 
HETATM   25  C   UNL     1      41.429 -14.646  -3.434  1.00  0.00     0.261 C 
ENDBRANCH  18  19
ENDBRANCH  17  18
ENDBRANCH  16  17
ENDBRANCH  13  16
ENDBRANCH   6  12
BRANCH   9  26
HETATM   26  C   UNL     1      42.079 -17.699   1.640  1.00  0.00     0.409 C 
HETATM   27  F   UNL     1      42.373 -18.988   1.925  1.00  0.00    -0.169 F 
HETATM   28  F   UNL     1      40.903 -17.679   0.975  1.00  0.00    -0.169 F 
HETATM   29  F   UNL     1      43.021 -17.264   0.765  1.00  0.00    -0.169 F 
ENDBRANCH   9  26
BRANCH   1  30
HETATM   30  C   UNL     1      42.359 -16.373   6.002  1.00  0.00     0.005 A 
HETATM   31  S   UNL     1      43.075 -14.809   5.986  1.00  0.00    -0.104 SA
HETATM   32  C   UNL     1      44.344 -15.303   7.017  1.00  0.00     0.050 A 
HETATM   33  C   UNL     1      44.242 -16.631   7.361  1.00  0.00     0.008 A 
HETATM   34  C   UNL     1      43.102 -17.250   6.773  1.00  0.00     0.017 A 
ENDBRANCH   1  30
TORSDOF 7
ENDMDL
MODEL 7
REMARK VINA RESULT:      -7.2      1.399      1.964
REMARK  7 active torsions:
REMARK  status: ('A' for Active; 'I' for Inactive)
REMARK    1  A    between atoms: C_4  and  C_5 
REMARK    2  A    between atoms: C_10  and  C_11 
REMARK       I    between atoms: C_11  and  N_12 
REMARK    3  A    between atoms: N_12  and  C_13 
REMARK    4  A    between atoms: C_13  and  C_14 
REMARK    5  A    between atoms: C_14  and  C_15 
REMARK    6  A    between atoms: C_15  and  N_16 
REMARK    7  A    between atoms: C_26  and  C_27 
ROOT
HETATM    1  C   UNL     1      44.290 -17.968   3.397  1.00  0.00     0.125 C 
HETATM    2  N   UNL     1      43.766 -16.919   2.516  1.00  0.00    -0.365 N 
HETATM    3  C   UNL     1      42.528 -16.397   2.697  1.00  0.00     0.141 A 
HETATM    4  N   UNL     1      41.793 -16.691   3.817  1.00  0.00    -0.238 N 
HETATM    5  N   UNL     1      40.568 -16.134   3.818  1.00  0.00    -0.163 NA
HETATM    6  C   UNL     1      40.548 -15.376   2.696  1.00  0.00     0.165 A 
HETATM    7  C   UNL     1      41.748 -15.539   1.964  1.00  0.00     0.092 A 
HETATM    8 BR   UNL     1      42.193 -14.727   0.337  1.00  0.00    -0.044 Br
HETATM    9  C   UNL     1      42.242 -17.592   4.867  1.00  0.00     0.221 C 
HETATM   10  C   UNL     1      43.776 -17.719   4.827  1.00  0.00     0.067 C 
HETATM   11  H   UNL     1      44.222 -16.864   1.605  1.00  0.00     0.162 HD
ENDROOT
BRANCH   6  12
HETATM   12  C   UNL     1      39.387 -14.524   2.416  1.00  0.00     0.273 C 
HETATM   13  N   UNL     1      38.593 -14.997   1.391  1.00  0.00    -0.355 N 
HETATM   14  H   UNL     1      38.945 -15.836   0.924  1.00  0.00     0.162 HD
HETATM   15  O   UNL     1      39.069 -13.518   3.052  1.00  0.00    -0.266 OA
BRANCH  13  16
HETATM   16  C   UNL     1      37.430 -14.309   0.890  1.00  0.00     0.124 C 
BRANCH  16  17
HETATM   17  C   UNL     1      37.743 -13.341  -0.250  1.00  0.00     0.047 C 
BRANCH  17  18
HETATM   18  C   UNL     1      38.757 -13.807  -1.297  1.00  0.00     0.236 C 
BRANCH  18  19
HETATM   19  N   UNL     1      39.436 -12.686  -2.037  1.00  0.00    -0.067 N 
HETATM   20  H   UNL     1      38.692 -12.160  -2.545  1.00  0.00     0.280 HD
HETATM   21  C   UNL     1      40.215 -11.721  -1.163  1.00  0.00     0.261 C 
HETATM   22  C   UNL     1      40.861 -10.634  -2.031  1.00  0.00     0.195 C 
HETATM   23  O   UNL     1      41.705 -11.209  -3.034  1.00  0.00    -0.388 OA
HETATM   24  C   UNL     1      40.961 -12.054  -3.919  1.00  0.00     0.195 C 
HETATM   25  C   UNL     1      40.334 -13.223  -3.153  1.00  0.00     0.261 C 
ENDBRANCH  18  19
ENDBRANCH  17  18
ENDBRANCH  16  17
ENDBRANCH  13  16
ENDBRANCH   6  12
BRANCH   9  26
HETATM   26  C   UNL     1      41.803 -17.121   6.237  1.00  0.00     0.409 C 
HETATM   27  F   UNL     1      42.397 -17.820   7.232  1.00  0.00    -0.169 F 
HETATM   28  F   UNL     1      42.050 -15.809   6.447  1.00  0.00    -0.169 F 
HETATM   29  F   UNL     1      40.465 -17.287   6.384  1.00  0.00    -0.169 F 
ENDBRANCH   9  26
BRANCH   1  30
HETATM   30  C   UNL     1      44.012 -19.382   2.939  1.00  0.00     0.005 A 
HETATM   31  S   UNL     1      44.821 -20.693   3.706  1.00  0.00    -0.104 SA
HETATM   32  C   UNL     1      44.033 -21.845   2.722  1.00  0.00     0.050 A 
HETATM   33  C   UNL     1      43.181 -21.256   1.817  1.00  0.00     0.008 A 
HETATM   34  C   UNL     1      43.171 -19.836   1.938  1.00  0.00     0.017 A 
ENDBRANCH   1  30
TORSDOF 7
ENDMDL
MODEL 8
REMARK VINA RESULT:      -6.8      5.437      8.898
REMARK  7 active torsions:
REMARK  status: ('A' for Active; 'I' for Inactive)
REMARK    1  A    between atoms: C_4  and  C_5 
REMARK    2  A    between atoms: C_10  and  C_11 
REMARK       I    between atoms: C_11  and  N_12 
REMARK    3  A    between atoms: N_12  and  C_13 
REMARK    4  A    between atoms: C_13  and  C_14 
REMARK    5  A    between atoms: C_14  and  C_15 
REMARK    6  A    between atoms: C_15  and  N_16 
REMARK    7  A    between atoms: C_26  and  C_27 
ROOT
HETATM    1  C   UNL     1      42.155 -13.316   1.900  1.00  0.00     0.125 C 
HETATM    2  N   UNL     1      42.009 -12.066   2.652  1.00  0.00    -0.365 N 
HETATM    3  C   UNL     1      41.284 -12.010   3.796  1.00  0.00     0.141 A 
HETATM    4  N   UNL     1      40.818 -13.153   4.394  1.00  0.00    -0.238 N 
HETATM    5  N   UNL     1      40.075 -12.921   5.492  1.00  0.00    -0.163 NA
HETATM    6  C   UNL     1      40.141 -11.579   5.659  1.00  0.00     0.165 A 
HETATM    7  C   UNL     1      40.869 -10.981   4.603  1.00  0.00     0.092 A 
HETATM    8 BR   UNL     1      41.218  -9.157   4.367  1.00  0.00    -0.044 Br
HETATM    9  C   UNL     1      41.019 -14.490   3.856  1.00  0.00     0.221 C 
HETATM   10  C   UNL     1      42.221 -14.490   2.893  1.00  0.00     0.067 C 
HETATM   11  H   UNL     1      42.179 -11.220   2.106  1.00  0.00     0.162 HD
ENDROOT
BRANCH   6  12
HETATM   12  C   UNL     1      39.524 -10.962   6.839  1.00  0.00     0.273 C 
HETATM   13  N   UNL     1      39.919 -11.539   8.029  1.00  0.00    -0.355 N 
HETATM   14  H   UNL     1      40.533 -12.351   7.933  1.00  0.00     0.162 HD
HETATM   15  O   UNL     1      38.780  -9.980   6.825  1.00  0.00    -0.266 OA
BRANCH  13  16
HETATM   16  C   UNL     1      39.408 -11.150   9.320  1.00  0.00     0.124 C 
BRANCH  16  17
HETATM   17  C   UNL     1      40.357 -10.242  10.099  1.00  0.00     0.047 C 
BRANCH  17  18
HETATM   18  C   UNL     1      41.191 -10.895  11.204  1.00  0.00     0.236 C 
BRANCH  18  19
HETATM   19  N   UNL     1      42.449 -11.560  10.712  1.00  0.00    -0.067 N 
HETATM   20  H   UNL     1      42.193 -12.532  10.437  1.00  0.00     0.280 HD
HETATM   21  C   UNL     1      43.119 -10.874   9.536  1.00  0.00     0.261 C 
HETATM   22  C   UNL     1      44.385 -11.639   9.135  1.00  0.00     0.195 C 
HETATM   23  O   UNL     1      45.289 -11.756  10.240  1.00  0.00    -0.388 OA
HETATM   24  C   UNL     1      44.695 -12.480  11.323  1.00  0.00     0.195 C 
HETATM   25  C   UNL     1      43.455 -11.751  11.849  1.00  0.00     0.261 C 
ENDBRANCH  18  19
ENDBRANCH  17  18
ENDBRANCH  16  17
ENDBRANCH  13  16
ENDBRANCH   6  12
BRANCH   9  26
HETATM   26  C   UNL     1      41.241 -15.510   4.952  1.00  0.00     0.409 C 
HETATM   27  F   UNL     1      40.106 -15.775   5.640  1.00  0.00    -0.169 F 
HETATM   28  F   UNL     1      41.730 -16.681   4.490  1.00  0.00    -0.169 F 
HETATM   29  F   UNL     1      42.145 -15.045   5.850  1.00  0.00    -0.169 F 
ENDBRANCH   9  26
BRANCH   1  30
HETATM   30  C   UNL     1      41.109 -13.543   0.831  1.00  0.00     0.005 A 
HETATM   31  S   UNL     1      41.367 -14.759  -0.359  1.00  0.00    -0.104 SA
HETATM   32  C   UNL     1      39.874 -14.429  -1.120  1.00  0.00     0.050 A 
HETATM   33  C   UNL     1      39.192 -13.409  -0.498  1.00  0.00     0.008 A 
HETATM   34  C   UNL     1      39.905 -12.894   0.623  1.00  0.00     0.017 A 
ENDBRANCH   1  30
TORSDOF 7
ENDMDL
MODEL 9
REMARK VINA RESULT:      -6.8      3.563      4.717
REMARK  7 active torsions:
REMARK  status: ('A' for Active; 'I' for Inactive)
REMARK    1  A    between atoms: C_4  and  C_5 
REMARK    2  A    between atoms: C_10  and  C_11 
REMARK       I    between atoms: C_11  and  N_12 
REMARK    3  A    between atoms: N_12  and  C_13 
REMARK    4  A    between atoms: C_13  and  C_14 
REMARK    5  A    between atoms: C_14  and  C_15 
REMARK    6  A    between atoms: C_15  and  N_16 
REMARK    7  A    between atoms: C_26  and  C_27 
ROOT
HETATM    1  C   UNL     1      41.633 -18.042   4.863  1.00  0.00     0.125 C 
HETATM    2  N   UNL     1      40.883 -16.854   4.441  1.00  0.00    -0.365 N 
HETATM    3  C   UNL     1      41.400 -15.971   3.552  1.00  0.00     0.141 A 
HETATM    4  N   UNL     1      42.558 -16.248   2.872  1.00  0.00    -0.238 N 
HETATM    5  N   UNL     1      42.962 -15.248   2.068  1.00  0.00    -0.163 NA
HETATM    6  C   UNL     1      41.975 -14.327   2.164  1.00  0.00     0.165 A 
HETATM    7  C   UNL     1      40.999 -14.740   3.101  1.00  0.00     0.092 A 
HETATM    8 BR   UNL     1      39.456 -13.806   3.604  1.00  0.00    -0.044 Br
HETATM    9  C   UNL     1      43.339 -17.461   3.061  1.00  0.00     0.221 C 
HETATM   10  C   UNL     1      42.453 -18.564   3.669  1.00  0.00     0.067 C 
HETATM   11  H   UNL     1      40.145 -16.567   5.086  1.00  0.00     0.162 HD
ENDROOT
BRANCH   6  12
HETATM   12  C   UNL     1      42.022 -13.122   1.327  1.00  0.00     0.273 C 
HETATM   13  N   UNL     1      41.496 -13.310   0.065  1.00  0.00    -0.355 N 
HETATM   14  H   UNL     1      41.203 -14.268  -0.143  1.00  0.00     0.162 HD
HETATM   15  O   UNL     1      42.412 -12.012   1.693  1.00  0.00    -0.266 OA
BRANCH  13  16
HETATM   16  C   UNL     1      41.481 -12.296  -0.960  1.00  0.00     0.124 C 
BRANCH  16  17
HETATM   17  C   UNL     1      41.713 -12.851  -2.365  1.00  0.00     0.047 C 
BRANCH  17  18
HETATM   18  C   UNL     1      42.520 -11.979  -3.330  1.00  0.00     0.236 C 
BRANCH  18  19
HETATM   19  N   UNL     1      41.703 -10.937  -4.046  1.00  0.00    -0.067 N 
HETATM   20  H   UNL     1      41.536 -10.161  -3.369  1.00  0.00     0.280 HD
HETATM   21  C   UNL     1      42.345 -10.369  -5.299  1.00  0.00     0.261 C 
HETATM   22  C   UNL     1      41.418  -9.328  -5.936  1.00  0.00     0.195 C 
HETATM   23  O   UNL     1      40.135  -9.892  -6.231  1.00  0.00    -0.388 OA
HETATM   24  C   UNL     1      39.483 -10.350  -5.041  1.00  0.00     0.195 C 
HETATM   25  C   UNL     1      40.301 -11.456  -4.366  1.00  0.00     0.261 C 
ENDBRANCH  18  19
ENDBRANCH  17  18
ENDBRANCH  16  17
ENDBRANCH  13  16
ENDBRANCH   6  12
BRANCH   9  26
HETATM   26  C   UNL     1      43.944 -17.949   1.762  1.00  0.00     0.409 C 
HETATM   27  F   UNL     1      43.023 -18.041   0.774  1.00  0.00    -0.169 F 
HETATM   28  F   UNL     1      44.950 -17.163   1.321  1.00  0.00    -0.169 F 
HETATM   29  F   UNL     1      44.470 -19.189   1.925  1.00  0.00    -0.169 F 
ENDBRANCH   9  26
BRANCH   1  30
HETATM   30  C   UNL     1      42.494 -17.848   6.093  1.00  0.00     0.005 A 
HETATM   31  S   UNL     1      43.714 -19.003   6.460  1.00  0.00    -0.104 SA
HETATM   32  C   UNL     1      44.202 -18.147   7.856  1.00  0.00     0.050 A 
HETATM   33  C   UNL     1      43.450 -17.013   8.054  1.00  0.00     0.008 A 
HETATM   34  C   UNL     1      42.462 -16.842   7.042  1.00  0.00     0.017 A 
ENDBRANCH   1  30
TORSDOF 7
ENDMDL
MODEL 10
REMARK VINA RESULT:      -6.8      4.273      8.282
REMARK  7 active torsions:
REMARK  status: ('A' for Active; 'I' for Inactive)
REMARK    1  A    between atoms: C_4  and  C_5 
REMARK    2  A    between atoms: C_10  and  C_11 
REMARK       I    between atoms: C_11  and  N_12 
REMARK    3  A    between atoms: N_12  and  C_13 
REMARK    4  A    between atoms: C_13  and  C_14 
REMARK    5  A    between atoms: C_14  and  C_15 
REMARK    6  A    between atoms: C_15  and  N_16 
REMARK    7  A    between atoms: C_26  and  C_27 
ROOT
HETATM    1  C   UNL     1      40.429 -10.894  -0.883  1.00  0.00     0.125 C 
HETATM    2  N   UNL     1      40.470 -12.264  -1.406  1.00  0.00    -0.365 N 
HETATM    3  C   UNL     1      40.859 -13.305  -0.629  1.00  0.00     0.141 A 
HETATM    4  N   UNL     1      41.048 -13.149   0.720  1.00  0.00    -0.238 N 
HETATM    5  N   UNL     1      41.482 -14.265   1.334  1.00  0.00    -0.163 NA
HETATM    6  C   UNL     1      41.486 -15.201   0.358  1.00  0.00     0.165 A 
HETATM    7  C   UNL     1      41.125 -14.626  -0.884  1.00  0.00     0.092 A 
HETATM    8 BR   UNL     1      41.007 -15.498  -2.536  1.00  0.00    -0.044 Br
HETATM    9  C   UNL     1      40.890 -11.883   1.420  1.00  0.00     0.221 C 
HETATM   10  C   UNL     1      39.998 -10.938   0.594  1.00  0.00     0.067 C 
HETATM   11  H   UNL     1      40.525 -12.329  -2.423  1.00  0.00     0.162 HD
ENDROOT
BRANCH   6  12
HETATM   12  C   UNL     1      41.809 -16.594   0.687  1.00  0.00     0.273 C 
HETATM   13  N   UNL     1      43.156 -16.808   0.905  1.00  0.00    -0.355 N 
HETATM   14  H   UNL     1      43.753 -15.993   0.750  1.00  0.00     0.162 HD
HETATM   15  O   UNL     1      40.990 -17.502   0.839  1.00  0.00    -0.266 OA
BRANCH  13  16
HETATM   16  C   UNL     1      43.730 -18.100   1.185  1.00  0.00     0.124 C 
BRANCH  16  17
HETATM   17  C   UNL     1      44.045 -18.316   2.664  1.00  0.00     0.047 C 
BRANCH  17  18
HETATM   18  C   UNL     1      42.938 -18.926   3.527  1.00  0.00     0.236 C 
BRANCH  18  19
HETATM   19  N   UNL     1      42.556 -18.090   4.719  1.00  0.00    -0.067 N 
HETATM   20  H   UNL     1      42.149 -18.737   5.428  1.00  0.00     0.280 HD
HETATM   21  C   UNL     1      43.699 -17.318   5.353  1.00  0.00     0.261 C 
HETATM   22  C   UNL     1      43.183 -16.506   6.546  1.00  0.00     0.195 C 
HETATM   23  O   UNL     1      42.128 -15.622   6.152  1.00  0.00    -0.388 OA
HETATM   24  C   UNL     1      41.008 -16.349   5.634  1.00  0.00     0.195 C 
HETATM   25  C   UNL     1      41.406 -17.140   4.383  1.00  0.00     0.261 C 
ENDBRANCH  18  19
ENDBRANCH  17  18
ENDBRANCH  16  17
ENDBRANCH  13  16
ENDBRANCH   6  12
BRANCH   9  26
HETATM   26  C   UNL     1      40.294 -12.074   2.799  1.00  0.00     0.409 C 
HETATM   27  F   UNL     1      41.233 -12.386   3.721  1.00  0.00    -0.169 F 
HETATM   28  F   UNL     1      39.625 -10.986   3.238  1.00  0.00    -0.169 F 
HETATM   29  F   UNL     1      39.400 -13.094   2.786  1.00  0.00    -0.169 F 
ENDBRANCH   9  26
BRANCH   1  30
HETATM   30  C   UNL     1      41.703 -10.101  -1.074  1.00  0.00     0.005 A 
HETATM   31  S   UNL     1      41.648  -8.384  -0.997  1.00  0.00    -0.104 SA
HETATM   32  C   UNL     1      43.329  -8.249  -1.273  1.00  0.00     0.050 A 
HETATM   33  C   UNL     1      43.925  -9.477  -1.435  1.00  0.00     0.008 A 
HETATM   34  C   UNL     1      42.989 -10.546  -1.325  1.00  0.00     0.017 A 
ENDBRANCH   1  30
TORSDOF 7
ENDMDL
