MODEL 1
REMARK VINA RESULT:      -8.4      0.000      0.000
REMARK  11 active torsions:
REMARK  status: ('A' for Active; 'I' for Inactive)
REMARK    1  A    between atoms: C_2  and  O_3 
REMARK    2  A    between atoms: O_3  and  C_4 
REMARK    3  A    between atoms: C_4  and  C_5 
REMARK    4  A    between atoms: C_5  and  C_6 
REMARK    5  A    between atoms: C_6  and  C_7 
REMARK    6  A    between atoms: C_13  and  C_14 
REMARK    7  A    between atoms: C_14  and  N_15 
REMARK    8  A    between atoms: N_15  and  C_18 
REMARK    9  A    between atoms: N_21  and  C_23 
REMARK   10  A    between atoms: C_23  and  C_24 
REMARK   11  A    between atoms: C_32  and  O_33 
ROOT
HETATM    1  C   UNL     1      40.348 -14.160   0.312  1.00  0.00     0.025 A 
HETATM    2  C   UNL     1      41.124 -14.775   1.424  1.00  0.00     0.295 A 
HETATM    3  O   UNL     1      41.957 -15.656   1.251  1.00  0.00    -0.259 OA
HETATM    4  O   UNL     1      40.841 -14.349   2.710  1.00  0.00    -0.274 OA
HETATM    5  C   UNL     1      39.968 -13.283   2.971  1.00  0.00     0.101 A 
HETATM    6  C   UNL     1      39.310 -12.638   1.924  1.00  0.00     0.005 A 
HETATM    7  C   UNL     1      39.798 -12.931   4.320  1.00  0.00     0.035 A 
HETATM    8  C   UNL     1      38.939 -11.870   4.612  1.00  0.00     0.076 A 
HETATM    9  C   UNL     1      38.288 -11.178   3.600  1.00  0.00     0.038 A 
HETATM   10  C   UNL     1      38.475 -11.563   2.265  1.00  0.00     0.017 A 
HETATM   11  C   UNL     1      39.494 -13.134   0.541  1.00  0.00    -0.037 A 
HETATM   12  C   UNL     1      38.663 -12.467  -0.530  1.00  0.00     0.050 C 
ENDROOT
BRANCH   7  13
HETATM   13  C   UNL     1      40.501 -13.669   5.421  1.00  0.00     0.276 C 
BRANCH  13  14
HETATM   14  N   UNL     1      40.226 -15.154   5.317  1.00  0.00    -0.067 N 
HETATM   15  H   UNL     1      39.227 -15.195   5.603  1.00  0.00     0.277 HD
HETATM   16  H   UNL     1      40.216 -15.377   4.315  1.00  0.00     0.277 HD
BRANCH  14  17
HETATM   17  C   UNL     1      41.064 -16.054   6.173  1.00  0.00     0.189 C 
HETATM   18  C   UNL     1      42.545 -15.674   6.142  1.00  0.00     0.060 C 
HETATM   19  C   UNL     1      43.250 -16.019   4.836  1.00  0.00     0.237 C 
HETATM   20  N   UNL     1      43.030 -17.472   4.496  1.00  0.00    -0.067 N 
HETATM   21  H   UNL     1      43.509 -18.039   5.212  1.00  0.00     0.280 HD
HETATM   22  C   UNL     1      41.581 -17.869   4.442  1.00  0.00     0.237 C 
HETATM   23  C   UNL     1      40.878 -17.512   5.746  1.00  0.00     0.060 C 
BRANCH  20  24
HETATM   24  C   UNL     1      43.739 -17.874   3.192  1.00  0.00     0.273 C 
BRANCH  24  25
HETATM   25  C   UNL     1      43.940 -19.356   3.059  1.00  0.00    -0.033 A 
HETATM   26  C   UNL     1      44.594 -20.080   4.069  1.00  0.00     0.009 A 
HETATM   27  C   UNL     1      44.803 -21.453   3.927  1.00  0.00     0.001 A 
HETATM   28  C   UNL     1      44.364 -22.113   2.782  1.00  0.00     0.000 A 
HETATM   29  C   UNL     1      43.709 -21.406   1.778  1.00  0.00     0.001 A 
HETATM   30  C   UNL     1      43.494 -20.034   1.914  1.00  0.00     0.009 A 
ENDBRANCH  24  25
ENDBRANCH  20  24
ENDBRANCH  14  17
ENDBRANCH  13  14
ENDBRANCH   7  13
BRANCH   8  31
HETATM   31  O   UNL     1      38.721 -11.559   5.928  1.00  0.00    -0.360 OA
HETATM   32  H   UNL     1      39.376 -10.871   6.178  1.00  0.00     0.217 HD
ENDBRANCH   8  31
BRANCH   1  33
HETATM   33  C   UNL     1      40.625 -14.805  -1.037  1.00  0.00     0.055 C 
BRANCH  33  34
HETATM   34  C   UNL     1      41.636 -14.060  -1.912  1.00  0.00     0.116 C 
BRANCH  34  35
HETATM   35  C   UNL     1      41.216 -13.991  -3.359  1.00  0.00     0.259 C 
HETATM   36  O   UNL     1      40.648 -14.904  -3.947  1.00  0.00    -0.265 OA
BRANCH  35  37
HETATM   37  O   UNL     1      41.544 -12.785  -3.890  1.00  0.00    -0.322 OA
BRANCH  37  38
HETATM   38  C   UNL     1      42.528 -12.018  -3.180  1.00  0.00     0.174 C 
HETATM   39  C   UNL     1      42.404 -10.552  -3.544  1.00  0.00     0.034 C 
ENDBRANCH  37  38
ENDBRANCH  35  37
ENDBRANCH  34  35
ENDBRANCH  33  34
ENDBRANCH   1  33
TORSDOF 11
ENDMDL
MODEL 2
REMARK VINA RESULT:      -8.4      0.897      1.731
REMARK  11 active torsions:
REMARK  status: ('A' for Active; 'I' for Inactive)
REMARK    1  A    between atoms: C_2  and  O_3 
REMARK    2  A    between atoms: O_3  and  C_4 
REMARK    3  A    between atoms: C_4  and  C_5 
REMARK    4  A    between atoms: C_5  and  C_6 
REMARK    5  A    between atoms: C_6  and  C_7 
REMARK    6  A    between atoms: C_13  and  C_14 
REMARK    7  A    between atoms: C_14  and  N_15 
REMARK    8  A    between atoms: N_15  and  C_18 
REMARK    9  A    between atoms: N_21  and  C_23 
REMARK   10  A    between atoms: C_23  and  C_24 
REMARK   11  A    between atoms: C_32  and  O_33 
ROOT
HETATM    1  C   UNL     1      40.313 -14.417   0.383  1.00  0.00     0.025 A 
HETATM    2  C   UNL     1      41.097 -15.002   1.506  1.00  0.00     0.295 A 
HETATM    3  O   UNL     1      41.910 -15.905   1.355  1.00  0.00    -0.259 OA
HETATM    4  O   UNL     1      40.845 -14.518   2.778  1.00  0.00    -0.274 OA
HETATM    5  C   UNL     1      39.997 -13.425   3.010  1.00  0.00     0.101 A 
HETATM    6  C   UNL     1      39.333 -12.810   1.948  1.00  0.00     0.005 A 
HETATM    7  C   UNL     1      39.858 -13.014   4.345  1.00  0.00     0.035 A 
HETATM    8  C   UNL     1      39.025 -11.925   4.608  1.00  0.00     0.076 A 
HETATM    9  C   UNL     1      38.369 -11.263   3.579  1.00  0.00     0.038 A 
HETATM   10  C   UNL     1      38.525 -11.706   2.259  1.00  0.00     0.017 A 
HETATM   11  C   UNL     1      39.483 -13.366   0.584  1.00  0.00    -0.037 A 
HETATM   12  C   UNL     1      38.646 -12.727  -0.500  1.00  0.00     0.050 C 
ENDROOT
BRANCH   7  13
HETATM   13  C   UNL     1      40.567 -13.720   5.463  1.00  0.00     0.276 C 
BRANCH  13  14
HETATM   14  N   UNL     1      40.272 -15.204   5.419  1.00  0.00    -0.067 N 
HETATM   15  H   UNL     1      39.289 -15.226   5.755  1.00  0.00     0.277 HD
HETATM   16  H   UNL     1      40.209 -15.456   4.426  1.00  0.00     0.277 HD
BRANCH  14  17
HETATM   17  C   UNL     1      41.144 -16.088   6.257  1.00  0.00     0.189 C 
HETATM   18  C   UNL     1      42.618 -15.685   6.191  1.00  0.00     0.060 C 
HETATM   19  C   UNL     1      43.297 -16.024   4.871  1.00  0.00     0.237 C 
HETATM   20  N   UNL     1      43.092 -17.481   4.540  1.00  0.00    -0.067 N 
HETATM   21  H   UNL     1      43.596 -18.039   5.247  1.00  0.00     0.280 HD
HETATM   22  C   UNL     1      41.649 -17.901   4.521  1.00  0.00     0.237 C 
HETATM   23  C   UNL     1      40.970 -17.551   5.840  1.00  0.00     0.060 C 
BRANCH  20  24
HETATM   24  C   UNL     1      43.777 -17.877   3.222  1.00  0.00     0.273 C 
BRANCH  24  25
HETATM   25  C   UNL     1      44.013 -19.354   3.096  1.00  0.00    -0.033 A 
HETATM   26  C   UNL     1      43.618 -20.043   1.938  1.00  0.00     0.009 A 
HETATM   27  C   UNL     1      43.815 -21.421   1.838  1.00  0.00     0.001 A 
HETATM   28  C   UNL     1      44.404 -22.122   2.887  1.00  0.00     0.000 A 
HETATM   29  C   UNL     1      44.805 -21.449   4.037  1.00  0.00     0.001 A 
HETATM   30  C   UNL     1      44.614 -20.070   4.143  1.00  0.00     0.009 A 
ENDBRANCH  24  25
ENDBRANCH  20  24
ENDBRANCH  14  17
ENDBRANCH  13  14
ENDBRANCH   7  13
BRANCH   8  31
HETATM   31  O   UNL     1      38.836 -11.556   5.913  1.00  0.00    -0.360 OA
HETATM   32  H   UNL     1      38.172 -12.168   6.297  1.00  0.00     0.217 HD
ENDBRANCH   8  31
BRANCH   1  33
HETATM   33  C   UNL     1      40.554 -15.122  -0.943  1.00  0.00     0.055 C 
BRANCH  33  34
HETATM   34  C   UNL     1      41.331 -14.304  -1.977  1.00  0.00     0.116 C 
BRANCH  34  35
HETATM   35  C   UNL     1      40.635 -14.241  -3.313  1.00  0.00     0.259 C 
HETATM   36  O   UNL     1      40.439 -13.199  -3.930  1.00  0.00    -0.265 OA
BRANCH  35  37
HETATM   37  O   UNL     1      40.281 -15.486  -3.722  1.00  0.00    -0.322 OA
BRANCH  37  38
HETATM   38  C   UNL     1      38.981 -15.620  -4.316  1.00  0.00     0.174 C 
HETATM   39  C   UNL     1      37.915 -15.173  -3.336  1.00  0.00     0.034 C 
ENDBRANCH  37  38
ENDBRANCH  35  37
ENDBRANCH  34  35
ENDBRANCH  33  34
ENDBRANCH   1  33
TORSDOF 11
ENDMDL
MODEL 3
REMARK VINA RESULT:      -8.2      5.213      9.166
REMARK  11 active torsions:
REMARK  status: ('A' for Active; 'I' for Inactive)
REMARK    1  A    between atoms: C_2  and  O_3 
REMARK    2  A    between atoms: O_3  and  C_4 
REMARK    3  A    between atoms: C_4  and  C_5 
REMARK    4  A    between atoms: C_5  and  C_6 
REMARK    5  A    between atoms: C_6  and  C_7 
REMARK    6  A    between atoms: C_13  and  C_14 
REMARK    7  A    between atoms: C_14  and  N_15 
REMARK    8  A    between atoms: N_15  and  C_18 
REMARK    9  A    between atoms: N_21  and  C_23 
REMARK   10  A    between atoms: C_23  and  C_24 
REMARK   11  A    between atoms: C_32  and  O_33 
ROOT
HETATM    1  C   UNL     1      41.403 -16.772   4.541  1.00  0.00     0.025 A 
HETATM    2  C   UNL     1      41.301 -16.235   5.927  1.00  0.00     0.295 A 
HETATM    3  O   UNL     1      41.773 -16.807   6.902  1.00  0.00    -0.259 OA
HETATM    4  O   UNL     1      40.595 -15.058   6.103  1.00  0.00    -0.274 OA
HETATM    5  C   UNL     1      40.109 -14.307   5.023  1.00  0.00     0.101 A 
HETATM    6  C   UNL     1      40.286 -14.757   3.715  1.00  0.00     0.005 A 
HETATM    7  C   UNL     1      39.441 -13.113   5.343  1.00  0.00     0.035 A 
HETATM    8  C   UNL     1      38.950 -12.340   4.289  1.00  0.00     0.076 A 
HETATM    9  C   UNL     1      39.131 -12.733   2.969  1.00  0.00     0.038 A 
HETATM   10  C   UNL     1      39.796 -13.934   2.689  1.00  0.00     0.017 A 
HETATM   11  C   UNL     1      40.935 -16.068   3.484  1.00  0.00    -0.037 A 
HETATM   12  C   UNL     1      40.990 -16.549   2.052  1.00  0.00     0.050 C 
ENDROOT
BRANCH   7  13
HETATM   13  C   UNL     1      39.245 -12.678   6.765  1.00  0.00     0.276 C 
BRANCH  13  14
HETATM   14  N   UNL     1      40.536 -12.127   7.329  1.00  0.00    -0.067 N 
HETATM   15  H   UNL     1      40.682 -12.751   8.148  1.00  0.00     0.277 HD
HETATM   16  H   UNL     1      41.276 -12.391   6.669  1.00  0.00     0.277 HD
BRANCH  14  17
HETATM   17  C   UNL     1      40.526 -10.688   7.749  1.00  0.00     0.189 C 
HETATM   18  C   UNL     1      41.932 -10.088   7.807  1.00  0.00     0.060 C 
HETATM   19  C   UNL     1      42.768 -10.576   8.983  1.00  0.00     0.237 C 
HETATM   20  N   UNL     1      42.014 -10.379  10.274  1.00  0.00    -0.067 N 
HETATM   21  H   UNL     1      41.910  -9.363  10.427  1.00  0.00     0.280 HD
HETATM   22  C   UNL     1      40.654 -11.019  10.285  1.00  0.00     0.237 C 
HETATM   23  C   UNL     1      39.824 -10.537   9.101  1.00  0.00     0.060 C 
BRANCH  20  24
HETATM   24  C   UNL     1      42.826 -10.839  11.495  1.00  0.00     0.273 C 
BRANCH  24  25
HETATM   25  C   UNL     1      42.594  -9.996  12.715  1.00  0.00    -0.033 A 
HETATM   26  C   UNL     1      42.593  -8.595  12.624  1.00  0.00     0.009 A 
HETATM   27  C   UNL     1      42.403  -7.815  13.766  1.00  0.00     0.001 A 
HETATM   28  C   UNL     1      42.215  -8.423  15.004  1.00  0.00     0.000 A 
HETATM   29  C   UNL     1      42.209  -9.811  15.106  1.00  0.00     0.001 A 
HETATM   30  C   UNL     1      42.394 -10.597  13.968  1.00  0.00     0.009 A 
ENDBRANCH  24  25
ENDBRANCH  20  24
ENDBRANCH  14  17
ENDBRANCH  13  14
ENDBRANCH   7  13
BRANCH   8  31
HETATM   31  O   UNL     1      38.245 -11.206   4.593  1.00  0.00    -0.360 OA
HETATM   32  H   UNL     1      38.591 -10.485   4.023  1.00  0.00     0.217 HD
ENDBRANCH   8  31
BRANCH   1  33
HETATM   33  C   UNL     1      42.063 -18.141   4.479  1.00  0.00     0.055 C 
BRANCH  33  34
HETATM   34  C   UNL     1      43.546 -18.125   4.105  1.00  0.00     0.116 C 
BRANCH  34  35
HETATM   35  C   UNL     1      44.360 -19.110   4.905  1.00  0.00     0.259 C 
HETATM   36  O   UNL     1      44.697 -18.928   6.070  1.00  0.00    -0.265 OA
BRANCH  35  37
HETATM   37  O   UNL     1      44.644 -20.208   4.159  1.00  0.00    -0.322 OA
BRANCH  37  38
HETATM   38  C   UNL     1      44.562 -20.053   2.734  1.00  0.00     0.174 C 
HETATM   39  C   UNL     1      44.017 -21.320   2.105  1.00  0.00     0.034 C 
ENDBRANCH  37  38
ENDBRANCH  35  37
ENDBRANCH  34  35
ENDBRANCH  33  34
ENDBRANCH   1  33
TORSDOF 11
ENDMDL
MODEL 4
REMARK VINA RESULT:      -8.2      2.452      8.339
REMARK  11 active torsions:
REMARK  status: ('A' for Active; 'I' for Inactive)
REMARK    1  A    between atoms: C_2  and  O_3 
REMARK    2  A    between atoms: O_3  and  C_4 
REMARK    3  A    between atoms: C_4  and  C_5 
REMARK    4  A    between atoms: C_5  and  C_6 
REMARK    5  A    between atoms: C_6  and  C_7 
REMARK    6  A    between atoms: C_13  and  C_14 
REMARK    7  A    between atoms: C_14  and  N_15 
REMARK    8  A    between atoms: N_15  and  C_18 
REMARK    9  A    between atoms: N_21  and  C_23 
REMARK   10  A    between atoms: C_23  and  C_24 
REMARK   11  A    between atoms: C_32  and  O_33 
ROOT
HETATM    1  C   UNL     1      42.924 -18.036   2.798  1.00  0.00     0.025 A 
HETATM    2  C   UNL     1      42.367 -17.031   1.853  1.00  0.00     0.295 A 
HETATM    3  O   UNL     1      42.577 -17.058   0.646  1.00  0.00    -0.259 OA
HETATM    4  O   UNL     1      41.619 -15.998   2.391  1.00  0.00    -0.274 OA
HETATM    5  C   UNL     1      41.264 -15.956   3.747  1.00  0.00     0.101 A 
HETATM    6  C   UNL     1      41.704 -16.950   4.621  1.00  0.00     0.005 A 
HETATM    7  C   UNL     1      40.472 -14.870   4.152  1.00  0.00     0.035 A 
HETATM    8  C   UNL     1      40.098 -14.803   5.496  1.00  0.00     0.076 A 
HETATM    9  C   UNL     1      40.486 -15.787   6.395  1.00  0.00     0.038 A 
HETATM   10  C   UNL     1      41.284 -16.852   5.956  1.00  0.00     0.017 A 
HETATM   11  C   UNL     1      42.602 -18.013   4.113  1.00  0.00    -0.037 A 
HETATM   12  C   UNL     1      43.136 -18.989   5.136  1.00  0.00     0.050 C 
ENDROOT
BRANCH   7  13
HETATM   13  C   UNL     1      40.044 -13.804   3.187  1.00  0.00     0.276 C 
BRANCH  13  14
HETATM   14  N   UNL     1      39.287 -14.418   2.028  1.00  0.00    -0.067 N 
HETATM   15  H   UNL     1      40.029 -14.995   1.585  1.00  0.00     0.277 HD
HETATM   16  H   UNL     1      38.638 -15.101   2.436  1.00  0.00     0.277 HD
BRANCH  14  17
HETATM   17  C   UNL     1      38.688 -13.466   1.038  1.00  0.00     0.189 C 
HETATM   18  C   UNL     1      38.680 -14.032  -0.383  1.00  0.00     0.060 C 
HETATM   19  C   UNL     1      40.053 -14.079  -1.041  1.00  0.00     0.237 C 
HETATM   20  N   UNL     1      40.708 -12.722  -0.974  1.00  0.00    -0.067 N 
HETATM   21  H   UNL     1      40.156 -12.076  -1.560  1.00  0.00     0.280 HD
HETATM   22  C   UNL     1      40.802 -12.162   0.418  1.00  0.00     0.237 C 
HETATM   23  C   UNL     1      39.429 -12.127   1.076  1.00  0.00     0.060 C 
BRANCH  20  24
HETATM   24  C   UNL     1      42.092 -12.714  -1.644  1.00  0.00     0.273 C 
BRANCH  24  25
HETATM   25  C   UNL     1      42.259 -11.609  -2.646  1.00  0.00    -0.033 A 
HETATM   26  C   UNL     1      42.501 -10.292  -2.222  1.00  0.00     0.009 A 
HETATM   27  C   UNL     1      42.628  -9.264  -3.156  1.00  0.00     0.001 A 
HETATM   28  C   UNL     1      42.516  -9.537  -4.517  1.00  0.00     0.000 A 
HETATM   29  C   UNL     1      42.282 -10.839  -4.950  1.00  0.00     0.001 A 
HETATM   30  C   UNL     1      42.157 -11.873  -4.021  1.00  0.00     0.009 A 
ENDBRANCH  24  25
ENDBRANCH  20  24
ENDBRANCH  14  17
ENDBRANCH  13  14
ENDBRANCH   7  13
BRANCH   8  31
HETATM   31  O   UNL     1      39.376 -13.716   5.912  1.00  0.00    -0.360 OA
HETATM   32  H   UNL     1      38.976 -13.946   6.779  1.00  0.00     0.217 HD
ENDBRANCH   8  31
BRANCH   1  33
HETATM   33  C   UNL     1      43.853 -19.036   2.126  1.00  0.00     0.055 C 
BRANCH  33  34
HETATM   34  C   UNL     1      43.203 -20.369   1.749  1.00  0.00     0.116 C 
BRANCH  34  35
HETATM   35  C   UNL     1      44.106 -21.550   2.001  1.00  0.00     0.259 C 
HETATM   36  O   UNL     1      44.276 -22.461   1.198  1.00  0.00    -0.265 OA
BRANCH  35  37
HETATM   37  O   UNL     1      44.695 -21.444   3.220  1.00  0.00    -0.322 OA
BRANCH  37  38
HETATM   38  C   UNL     1      44.683 -22.621   4.043  1.00  0.00     0.174 C 
HETATM   39  C   UNL     1      44.823 -22.234   5.501  1.00  0.00     0.034 C 
ENDBRANCH  37  38
ENDBRANCH  35  37
ENDBRANCH  34  35
ENDBRANCH  33  34
ENDBRANCH   1  33
TORSDOF 11
ENDMDL
MODEL 5
REMARK VINA RESULT:      -8.0      5.239      9.176
REMARK  11 active torsions:
REMARK  status: ('A' for Active; 'I' for Inactive)
REMARK    1  A    between atoms: C_2  and  O_3 
REMARK    2  A    between atoms: O_3  and  C_4 
REMARK    3  A    between atoms: C_4  and  C_5 
REMARK    4  A    between atoms: C_5  and  C_6 
REMARK    5  A    between atoms: C_6  and  C_7 
REMARK    6  A    between atoms: C_13  and  C_14 
REMARK    7  A    between atoms: C_14  and  N_15 
REMARK    8  A    between atoms: N_15  and  C_18 
REMARK    9  A    between atoms: N_21  and  C_23 
REMARK   10  A    between atoms: C_23  and  C_24 
REMARK   11  A    between atoms: C_32  and  O_33 
ROOT
HETATM    1  C   UNL     1      42.754 -10.169  10.317  1.00  0.00     0.025 A 
HETATM    2  C   UNL     1      43.337 -11.202   9.417  1.00  0.00     0.295 A 
HETATM    3  O   UNL     1      44.324 -11.865   9.711  1.00  0.00    -0.259 OA
HETATM    4  O   UNL     1      42.748 -11.370   8.176  1.00  0.00    -0.274 OA
HETATM    5  C   UNL     1      41.564 -10.712   7.812  1.00  0.00     0.101 A 
HETATM    6  C   UNL     1      40.960  -9.813   8.691  1.00  0.00     0.005 A 
HETATM    7  C   UNL     1      41.055 -11.001   6.536  1.00  0.00     0.035 A 
HETATM    8  C   UNL     1      39.875 -10.365   6.147  1.00  0.00     0.076 A 
HETATM    9  C   UNL     1      39.221  -9.487   7.001  1.00  0.00     0.038 A 
HETATM   10  C   UNL     1      39.764  -9.216   8.265  1.00  0.00     0.017 A 
HETATM   11  C   UNL     1      41.616  -9.515   9.985  1.00  0.00    -0.037 A 
HETATM   12  C   UNL     1      40.971  -8.446  10.837  1.00  0.00     0.050 C 
ENDROOT
BRANCH   7  13
HETATM   13  C   UNL     1      41.752 -11.952   5.608  1.00  0.00     0.276 C 
BRANCH  13  14
HETATM   14  N   UNL     1      41.597 -13.375   6.100  1.00  0.00    -0.067 N 
HETATM   15  H   UNL     1      42.590 -13.652   6.233  1.00  0.00     0.277 HD
HETATM   16  H   UNL     1      41.218 -13.313   7.051  1.00  0.00     0.277 HD
BRANCH  14  17
HETATM   17  C   UNL     1      40.894 -14.330   5.183  1.00  0.00     0.189 C 
HETATM   18  C   UNL     1      40.596 -15.671   5.856  1.00  0.00     0.060 C 
HETATM   19  C   UNL     1      41.824 -16.548   6.064  1.00  0.00     0.237 C 
HETATM   20  N   UNL     1      42.567 -16.719   4.763  1.00  0.00    -0.067 N 
HETATM   21  H   UNL     1      41.963 -17.258   4.123  1.00  0.00     0.280 HD
HETATM   22  C   UNL     1      42.945 -15.421   4.106  1.00  0.00     0.237 C 
HETATM   23  C   UNL     1      41.716 -14.542   3.909  1.00  0.00     0.060 C 
BRANCH  20  24
HETATM   24  C   UNL     1      43.807 -17.615   4.918  1.00  0.00     0.273 C 
BRANCH  24  25
HETATM   25  C   UNL     1      43.845 -18.751   3.937  1.00  0.00    -0.033 A 
HETATM   26  C   UNL     1      43.091 -18.696   2.753  1.00  0.00     0.009 A 
HETATM   27  C   UNL     1      43.108 -19.766   1.858  1.00  0.00     0.001 A 
HETATM   28  C   UNL     1      43.873 -20.897   2.134  1.00  0.00     0.000 A 
HETATM   29  C   UNL     1      44.627 -20.960   3.302  1.00  0.00     0.001 A 
HETATM   30  C   UNL     1      44.618 -19.893   4.200  1.00  0.00     0.009 A 
ENDBRANCH  24  25
ENDBRANCH  20  24
ENDBRANCH  14  17
ENDBRANCH  13  14
ENDBRANCH   7  13
BRANCH   8  31
HETATM   31  O   UNL     1      39.404 -10.595   4.882  1.00  0.00    -0.360 OA
HETATM   32  H   UNL     1      39.906 -10.011   4.272  1.00  0.00     0.217 HD
ENDBRANCH   8  31
BRANCH   1  33
HETATM   33  C   UNL     1      43.565  -9.958  11.586  1.00  0.00     0.055 C 
BRANCH  33  34
HETATM   34  C   UNL     1      43.341 -11.007  12.677  1.00  0.00     0.116 C 
BRANCH  34  35
HETATM   35  C   UNL     1      42.194 -10.661  13.593  1.00  0.00     0.259 C 
HETATM   36  O   UNL     1      41.031 -10.988  13.380  1.00  0.00    -0.265 OA
BRANCH  35  37
HETATM   37  O   UNL     1      42.640  -9.962  14.668  1.00  0.00    -0.322 OA
BRANCH  37  38
HETATM   38  C   UNL     1      41.650  -9.562  15.628  1.00  0.00     0.174 C 
HETATM   39  C   UNL     1      41.234  -8.127  15.376  1.00  0.00     0.034 C 
ENDBRANCH  37  38
ENDBRANCH  35  37
ENDBRANCH  34  35
ENDBRANCH  33  34
ENDBRANCH   1  33
TORSDOF 11
ENDMDL
MODEL 6
REMARK VINA RESULT:      -7.8      1.499      2.061
REMARK  11 active torsions:
REMARK  status: ('A' for Active; 'I' for Inactive)
REMARK    1  A    between atoms: C_2  and  O_3 
REMARK    2  A    between atoms: O_3  and  C_4 
REMARK    3  A    between atoms: C_4  and  C_5 
REMARK    4  A    between atoms: C_5  and  C_6 
REMARK    5  A    between atoms: C_6  and  C_7 
REMARK    6  A    between atoms: C_13  and  C_14 
REMARK    7  A    between atoms: C_14  and  N_15 
REMARK    8  A    between atoms: N_15  and  C_18 
REMARK    9  A    between atoms: N_21  and  C_23 
REMARK   10  A    between atoms: C_23  and  C_24 
REMARK   11  A    between atoms: C_32  and  O_33 
ROOT
HETATM    1  C   UNL     1      38.651 -13.453  -0.657  1.00  0.00     0.025 A 
HETATM    2  C   UNL     1      39.641 -14.057   0.276  1.00  0.00     0.295 A 
HETATM    3  O   UNL     1      40.374 -14.988  -0.035  1.00  0.00    -0.259 OA
HETATM    4  O   UNL     1      39.685 -13.559   1.567  1.00  0.00    -0.274 OA
HETATM    5  C   UNL     1      38.942 -12.438   1.963  1.00  0.00     0.101 A 
HETATM    6  C   UNL     1      38.083 -11.807   1.063  1.00  0.00     0.005 A 
HETATM    7  C   UNL     1      39.108 -12.016   3.292  1.00  0.00     0.035 A 
HETATM    8  C   UNL     1      38.386 -10.899   3.716  1.00  0.00     0.076 A 
HETATM    9  C   UNL     1      37.543 -10.220   2.845  1.00  0.00     0.038 A 
HETATM   10  C   UNL     1      37.396 -10.676   1.528  1.00  0.00     0.017 A 
HETATM   11  C   UNL     1      37.917 -12.375  -0.295  1.00  0.00    -0.037 A 
HETATM   12  C   UNL     1      36.885 -11.714  -1.179  1.00  0.00     0.050 C 
ENDROOT
BRANCH   7  13
HETATM   13  C   UNL     1      40.020 -12.739   4.239  1.00  0.00     0.276 C 
BRANCH  13  14
HETATM   14  N   UNL     1      41.416 -12.828   3.661  1.00  0.00    -0.067 N 
HETATM   15  H   UNL     1      41.230 -13.298   2.753  1.00  0.00     0.277 HD
HETATM   16  H   UNL     1      41.683 -11.870   3.405  1.00  0.00     0.277 HD
BRANCH  14  17
HETATM   17  C   UNL     1      42.427 -13.591   4.461  1.00  0.00     0.189 C 
HETATM   18  C   UNL     1      43.607 -14.063   3.610  1.00  0.00     0.060 C 
HETATM   19  C   UNL     1      43.274 -15.211   2.666  1.00  0.00     0.237 C 
HETATM   20  N   UNL     1      42.636 -16.344   3.431  1.00  0.00    -0.067 N 
HETATM   21  H   UNL     1      43.346 -16.729   4.074  1.00  0.00     0.280 HD
HETATM   22  C   UNL     1      41.426 -15.936   4.223  1.00  0.00     0.237 C 
HETATM   23  C   UNL     1      41.761 -14.780   5.158  1.00  0.00     0.060 C 
BRANCH  20  24
HETATM   24  C   UNL     1      42.298 -17.537   2.523  1.00  0.00     0.273 C 
BRANCH  24  25
HETATM   25  C   UNL     1      43.143 -18.748   2.794  1.00  0.00    -0.033 A 
HETATM   26  C   UNL     1      43.175 -19.814   1.880  1.00  0.00     0.009 A 
HETATM   27  C   UNL     1      43.941 -20.949   2.150  1.00  0.00     0.001 A 
HETATM   28  C   UNL     1      44.678 -21.032   3.329  1.00  0.00     0.000 A 
HETATM   29  C   UNL     1      44.658 -19.979   4.238  1.00  0.00     0.001 A 
HETATM   30  C   UNL     1      43.898 -18.839   3.974  1.00  0.00     0.009 A 
ENDBRANCH  24  25
ENDBRANCH  20  24
ENDBRANCH  14  17
ENDBRANCH  13  14
ENDBRANCH   7  13
BRANCH   8  31
HETATM   31  O   UNL     1      38.495 -10.517   5.027  1.00  0.00    -0.360 OA
HETATM   32  H   UNL     1      38.481  -9.535   5.047  1.00  0.00     0.217 HD
ENDBRANCH   8  31
BRANCH   1  33
HETATM   33  C   UNL     1      38.578 -14.173  -1.995  1.00  0.00     0.055 C 
BRANCH  33  34
HETATM   34  C   UNL     1      39.182 -13.406  -3.174  1.00  0.00     0.116 C 
BRANCH  34  35
HETATM   35  C   UNL     1      40.590 -13.843  -3.493  1.00  0.00     0.259 C 
HETATM   36  O   UNL     1      40.901 -15.001  -3.752  1.00  0.00    -0.265 OA
BRANCH  35  37
HETATM   37  O   UNL     1      41.434 -12.781  -3.465  1.00  0.00    -0.322 OA
BRANCH  37  38
HETATM   38  C   UNL     1      42.633 -12.935  -2.690  1.00  0.00     0.174 C 
HETATM   39  C   UNL     1      42.453 -12.299  -1.325  1.00  0.00     0.034 C 
ENDBRANCH  37  38
ENDBRANCH  35  37
ENDBRANCH  34  35
ENDBRANCH  33  34
ENDBRANCH   1  33
TORSDOF 11
ENDMDL
MODEL 7
REMARK VINA RESULT:      -7.8      4.090      8.043
REMARK  11 active torsions:
REMARK  status: ('A' for Active; 'I' for Inactive)
REMARK    1  A    between atoms: C_2  and  O_3 
REMARK    2  A    between atoms: O_3  and  C_4 
REMARK    3  A    between atoms: C_4  and  C_5 
REMARK    4  A    between atoms: C_5  and  C_6 
REMARK    5  A    between atoms: C_6  and  C_7 
REMARK    6  A    between atoms: C_13  and  C_14 
REMARK    7  A    between atoms: C_14  and  N_15 
REMARK    8  A    between atoms: N_15  and  C_18 
REMARK    9  A    between atoms: N_21  and  C_23 
REMARK   10  A    between atoms: C_23  and  C_24 
REMARK   11  A    between atoms: C_32  and  O_33 
ROOT
HETATM    1  C   UNL     1      41.009  -9.591   8.680  1.00  0.00     0.025 A 
HETATM    2  C   UNL     1      42.015 -10.685   8.595  1.00  0.00     0.295 A 
HETATM    3  O   UNL     1      42.813 -10.933   9.490  1.00  0.00    -0.259 OA
HETATM    4  O   UNL     1      42.065 -11.414   7.419  1.00  0.00    -0.274 OA
HETATM    5  C   UNL     1      41.124 -11.245   6.392  1.00  0.00     0.101 A 
HETATM    6  C   UNL     1      40.119 -10.285   6.509  1.00  0.00     0.005 A 
HETATM    7  C   UNL     1      41.270 -12.074   5.269  1.00  0.00     0.035 A 
HETATM    8  C   UNL     1      40.346 -11.934   4.232  1.00  0.00     0.076 A 
HETATM    9  C   UNL     1      39.309 -11.014   4.318  1.00  0.00     0.038 A 
HETATM   10  C   UNL     1      39.200 -10.197   5.452  1.00  0.00     0.017 A 
HETATM   11  C   UNL     1      40.095  -9.404   7.699  1.00  0.00    -0.037 A 
HETATM   12  C   UNL     1      39.053  -8.310   7.707  1.00  0.00     0.050 C 
ENDROOT
BRANCH   7  13
HETATM   13  C   UNL     1      42.383 -13.075   5.168  1.00  0.00     0.276 C 
BRANCH  13  14
HETATM   14  N   UNL     1      42.097 -14.271   6.051  1.00  0.00    -0.067 N 
HETATM   15  H   UNL     1      43.060 -14.570   6.304  1.00  0.00     0.277 HD
HETATM   16  H   UNL     1      41.705 -13.899   6.923  1.00  0.00     0.277 HD
BRANCH  14  17
HETATM   17  C   UNL     1      41.334 -15.399   5.426  1.00  0.00     0.189 C 
HETATM   18  C   UNL     1      41.306 -16.644   6.313  1.00  0.00     0.060 C 
HETATM   19  C   UNL     1      42.633 -17.389   6.382  1.00  0.00     0.237 C 
HETATM   20  N   UNL     1      43.130 -17.694   4.991  1.00  0.00    -0.067 N 
HETATM   21  H   UNL     1      42.473 -18.364   4.562  1.00  0.00     0.280 HD
HETATM   22  C   UNL     1      43.243 -16.483   4.109  1.00  0.00     0.237 C 
HETATM   23  C   UNL     1      41.917 -15.734   4.052  1.00  0.00     0.060 C 
BRANCH  20  24
HETATM   24  C   UNL     1      44.460 -18.464   5.008  1.00  0.00     0.273 C 
BRANCH  24  25
HETATM   25  C   UNL     1      44.410 -19.753   4.241  1.00  0.00    -0.033 A 
HETATM   26  C   UNL     1      44.783 -20.961   4.852  1.00  0.00     0.009 A 
HETATM   27  C   UNL     1      44.761 -22.153   4.126  1.00  0.00     0.001 A 
HETATM   28  C   UNL     1      44.369 -22.151   2.789  1.00  0.00     0.000 A 
HETATM   29  C   UNL     1      43.992 -20.960   2.175  1.00  0.00     0.001 A 
HETATM   30  C   UNL     1      44.008 -19.765   2.896  1.00  0.00     0.009 A 
ENDBRANCH  24  25
ENDBRANCH  20  24
ENDBRANCH  14  17
ENDBRANCH  13  14
ENDBRANCH   7  13
BRANCH   8  31
HETATM   31  O   UNL     1      40.515 -12.696   3.107  1.00  0.00    -0.360 OA
HETATM   32  H   UNL     1      41.475 -12.699   2.898  1.00  0.00     0.217 HD
ENDBRANCH   8  31
BRANCH   1  33
HETATM   33  C   UNL     1      41.141  -8.758   9.946  1.00  0.00     0.055 C 
BRANCH  33  34
HETATM   34  C   UNL     1      40.069  -9.020  11.006  1.00  0.00     0.116 C 
BRANCH  34  35
HETATM   35  C   UNL     1      40.480 -10.073  12.004  1.00  0.00     0.259 C 
HETATM   36  O   UNL     1      40.194 -11.260  11.898  1.00  0.00    -0.265 OA
BRANCH  35  37
HETATM   37  O   UNL     1      41.210  -9.517  13.005  1.00  0.00    -0.322 OA
BRANCH  37  38
HETATM   38  C   UNL     1      42.330 -10.279  13.481  1.00  0.00     0.174 C 
HETATM   39  C   UNL     1      43.597  -9.828  12.783  1.00  0.00     0.034 C 
ENDBRANCH  37  38
ENDBRANCH  35  37
ENDBRANCH  34  35
ENDBRANCH  33  34
ENDBRANCH   1  33
TORSDOF 11
ENDMDL
MODEL 8
REMARK VINA RESULT:      -7.8      1.796      2.743
REMARK  11 active torsions:
REMARK  status: ('A' for Active; 'I' for Inactive)
REMARK    1  A    between atoms: C_2  and  O_3 
REMARK    2  A    between atoms: O_3  and  C_4 
REMARK    3  A    between atoms: C_4  and  C_5 
REMARK    4  A    between atoms: C_5  and  C_6 
REMARK    5  A    between atoms: C_6  and  C_7 
REMARK    6  A    between atoms: C_13  and  C_14 
REMARK    7  A    between atoms: C_14  and  N_15 
REMARK    8  A    between atoms: N_15  and  C_18 
REMARK    9  A    between atoms: N_21  and  C_23 
REMARK   10  A    between atoms: C_23  and  C_24 
REMARK   11  A    between atoms: C_32  and  O_33 
ROOT
HETATM    1  C   UNL     1      40.431 -11.310   1.095  1.00  0.00     0.025 A 
HETATM    2  C   UNL     1      41.661 -12.047   1.496  1.00  0.00     0.295 A 
HETATM    3  O   UNL     1      42.506 -12.425   0.695  1.00  0.00    -0.259 OA
HETATM    4  O   UNL     1      41.811 -12.351   2.839  1.00  0.00    -0.274 OA
HETATM    5  C   UNL     1      40.931 -11.871   3.819  1.00  0.00     0.101 A 
HETATM    6  C   UNL     1      39.828 -11.097   3.458  1.00  0.00     0.005 A 
HETATM    7  C   UNL     1      41.221 -12.224   5.147  1.00  0.00     0.035 A 
HETATM    8  C   UNL     1      40.366 -11.758   6.146  1.00  0.00     0.076 A 
HETATM    9  C   UNL     1      39.274 -10.958   5.837  1.00  0.00     0.038 A 
HETATM   10  C   UNL     1      39.011 -10.633   4.499  1.00  0.00     0.017 A 
HETATM   11  C   UNL     1      39.562 -10.843   2.023  1.00  0.00    -0.037 A 
HETATM   12  C   UNL     1      38.288 -10.099   1.695  1.00  0.00     0.050 C 
ENDROOT
BRANCH   7  13
HETATM   13  C   UNL     1      42.402 -13.084   5.492  1.00  0.00     0.276 C 
BRANCH  13  14
HETATM   14  N   UNL     1      41.946 -14.349   6.187  1.00  0.00    -0.067 N 
HETATM   15  H   UNL     1      42.852 -14.739   6.513  1.00  0.00     0.277 HD
HETATM   16  H   UNL     1      41.470 -14.051   7.046  1.00  0.00     0.277 HD
BRANCH  14  17
HETATM   17  C   UNL     1      41.205 -15.347   5.349  1.00  0.00     0.189 C 
HETATM   18  C   UNL     1      41.053 -16.697   6.050  1.00  0.00     0.060 C 
HETATM   19  C   UNL     1      42.342 -17.505   6.130  1.00  0.00     0.237 C 
HETATM   20  N   UNL     1      42.955 -17.643   4.759  1.00  0.00    -0.067 N 
HETATM   21  H   UNL     1      42.319 -18.218   4.186  1.00  0.00     0.280 HD
HETATM   22  C   UNL     1      43.190 -16.331   4.066  1.00  0.00     0.237 C 
HETATM   23  C   UNL     1      41.901 -15.521   3.997  1.00  0.00     0.060 C 
BRANCH  20  24
HETATM   24  C   UNL     1      44.252 -18.469   4.786  1.00  0.00     0.273 C 
BRANCH  24  25
HETATM   25  C   UNL     1      44.197 -19.688   3.911  1.00  0.00    -0.033 A 
HETATM   26  C   UNL     1      44.731 -20.908   4.354  1.00  0.00     0.009 A 
HETATM   27  C   UNL     1      44.703 -22.031   3.526  1.00  0.00     0.001 A 
HETATM   28  C   UNL     1      44.144 -21.947   2.253  1.00  0.00     0.000 A 
HETATM   29  C   UNL     1      43.607 -20.744   1.805  1.00  0.00     0.001 A 
HETATM   30  C   UNL     1      43.629 -19.618   2.629  1.00  0.00     0.009 A 
ENDBRANCH  24  25
ENDBRANCH  20  24
ENDBRANCH  14  17
ENDBRANCH  13  14
ENDBRANCH   7  13
BRANCH   8  31
HETATM   31  O   UNL     1      40.607 -12.148   7.437  1.00  0.00    -0.360 OA
HETATM   32  H   UNL     1      39.800 -12.605   7.760  1.00  0.00     0.217 HD
ENDBRANCH   8  31
BRANCH   1  33
HETATM   33  C   UNL     1      40.289 -11.164  -0.412  1.00  0.00     0.055 C 
BRANCH  33  34
HETATM   34  C   UNL     1      39.277 -12.112  -1.060  1.00  0.00     0.116 C 
BRANCH  34  35
HETATM   35  C   UNL     1      39.890 -13.425  -1.475  1.00  0.00     0.259 C 
HETATM   36  O   UNL     1      40.460 -13.602  -2.546  1.00  0.00    -0.265 OA
BRANCH  35  37
HETATM   37  O   UNL     1      39.729 -14.353  -0.497  1.00  0.00    -0.322 OA
BRANCH  37  38
HETATM   38  C   UNL     1      38.584 -14.195   0.355  1.00  0.00     0.174 C 
HETATM   39  C   UNL     1      38.911 -14.671   1.756  1.00  0.00     0.034 C 
ENDBRANCH  37  38
ENDBRANCH  35  37
ENDBRANCH  34  35
ENDBRANCH  33  34
ENDBRANCH   1  33
TORSDOF 11
ENDMDL
MODEL 9
REMARK VINA RESULT:      -7.7      3.218      8.621
REMARK  11 active torsions:
REMARK  status: ('A' for Active; 'I' for Inactive)
REMARK    1  A    between atoms: C_2  and  O_3 
REMARK    2  A    between atoms: O_3  and  C_4 
REMARK    3  A    between atoms: C_4  and  C_5 
REMARK    4  A    between atoms: C_5  and  C_6 
REMARK    5  A    between atoms: C_6  and  C_7 
REMARK    6  A    between atoms: C_13  and  C_14 
REMARK    7  A    between atoms: C_14  and  N_15 
REMARK    8  A    between atoms: N_15  and  C_18 
REMARK    9  A    between atoms: N_21  and  C_23 
REMARK   10  A    between atoms: C_23  and  C_24 
REMARK   11  A    between atoms: C_32  and  O_33 
ROOT
HETATM    1  C   UNL     1      43.008 -17.776   5.064  1.00  0.00     0.025 A 
HETATM    2  C   UNL     1      42.675 -17.543   3.631  1.00  0.00     0.295 A 
HETATM    3  O   UNL     1      42.602 -18.444   2.805  1.00  0.00    -0.259 OA
HETATM    4  O   UNL     1      42.489 -16.232   3.227  1.00  0.00    -0.274 OA
HETATM    5  C   UNL     1      42.468 -15.163   4.135  1.00  0.00     0.101 A 
HETATM    6  C   UNL     1      42.683 -15.389   5.494  1.00  0.00     0.005 A 
HETATM    7  C   UNL     1      42.233 -13.889   3.594  1.00  0.00     0.035 A 
HETATM    8  C   UNL     1      42.201 -12.805   4.473  1.00  0.00     0.076 A 
HETATM    9  C   UNL     1      42.379 -12.986   5.839  1.00  0.00     0.038 A 
HETATM   10  C   UNL     1      42.618 -14.272   6.341  1.00  0.00     0.017 A 
HETATM   11  C   UNL     1      43.000 -16.760   5.957  1.00  0.00    -0.037 A 
HETATM   12  C   UNL     1      43.338 -16.914   7.422  1.00  0.00     0.050 C 
ENDROOT
BRANCH   7  13
HETATM   13  C   UNL     1      42.035 -13.683   2.121  1.00  0.00     0.276 C 
BRANCH  13  14
HETATM   14  N   UNL     1      40.573 -13.437   1.817  1.00  0.00    -0.067 N 
HETATM   15  H   UNL     1      40.227 -13.108   2.739  1.00  0.00     0.277 HD
HETATM   16  H   UNL     1      40.539 -12.605   1.217  1.00  0.00     0.277 HD
BRANCH  14  17
HETATM   17  C   UNL     1      39.780 -14.615   1.336  1.00  0.00     0.189 C 
HETATM   18  C   UNL     1      40.531 -15.433   0.285  1.00  0.00     0.060 C 
HETATM   19  C   UNL     1      40.626 -14.758  -1.077  1.00  0.00     0.237 C 
HETATM   20  N   UNL     1      39.254 -14.347  -1.551  1.00  0.00    -0.067 N 
HETATM   21  H   UNL     1      38.709 -15.207  -1.720  1.00  0.00     0.280 HD
HETATM   22  C   UNL     1      38.511 -13.478  -0.576  1.00  0.00     0.237 C 
HETATM   23  C   UNL     1      38.428 -14.152   0.788  1.00  0.00     0.060 C 
BRANCH  20  24
HETATM   24  C   UNL     1      39.296 -13.677  -2.934  1.00  0.00     0.273 C 
BRANCH  24  25
HETATM   25  C   UNL     1      37.938 -13.491  -3.545  1.00  0.00    -0.033 A 
HETATM   26  C   UNL     1      37.191 -14.600  -3.974  1.00  0.00     0.009 A 
HETATM   27  C   UNL     1      35.941 -14.419  -4.567  1.00  0.00     0.001 A 
HETATM   28  C   UNL     1      35.426 -13.136  -4.737  1.00  0.00     0.000 A 
HETATM   29  C   UNL     1      36.155 -12.030  -4.310  1.00  0.00     0.001 A 
HETATM   30  C   UNL     1      37.404 -12.203  -3.713  1.00  0.00     0.009 A 
ENDBRANCH  24  25
ENDBRANCH  20  24
ENDBRANCH  14  17
ENDBRANCH  13  14
ENDBRANCH   7  13
BRANCH   8  31
HETATM   31  O   UNL     1      42.034 -11.551   3.948  1.00  0.00    -0.360 OA
HETATM   32  H   UNL     1      42.713 -11.434   3.248  1.00  0.00     0.217 HD
ENDBRANCH   8  31
BRANCH   1  33
HETATM   33  C   UNL     1      43.342 -19.229   5.368  1.00  0.00     0.055 C 
BRANCH  33  34
HETATM   34  C   UNL     1      44.822 -19.592   5.234  1.00  0.00     0.116 C 
BRANCH  34  35
HETATM   35  C   UNL     1      45.034 -20.971   4.661  1.00  0.00     0.259 C 
HETATM   36  O   UNL     1      45.212 -21.973   5.346  1.00  0.00    -0.265 OA
BRANCH  35  37
HETATM   37  O   UNL     1      44.985 -20.933   3.305  1.00  0.00    -0.322 OA
BRANCH  37  38
HETATM   38  C   UNL     1      44.401 -22.071   2.653  1.00  0.00     0.174 C 
HETATM   39  C   UNL     1      43.462 -21.613   1.555  1.00  0.00     0.034 C 
ENDBRANCH  37  38
ENDBRANCH  35  37
ENDBRANCH  34  35
ENDBRANCH  33  34
ENDBRANCH   1  33
TORSDOF 11
ENDMDL
MODEL 10
REMARK VINA RESULT:      -7.6      3.433      9.255
REMARK  11 active torsions:
REMARK  status: ('A' for Active; 'I' for Inactive)
REMARK    1  A    between atoms: C_2  and  O_3 
REMARK    2  A    between atoms: O_3  and  C_4 
REMARK    3  A    between atoms: C_4  and  C_5 
REMARK    4  A    between atoms: C_5  and  C_6 
REMARK    5  A    between atoms: C_6  and  C_7 
REMARK    6  A    between atoms: C_13  and  C_14 
REMARK    7  A    between atoms: C_14  and  N_15 
REMARK    8  A    between atoms: N_15  and  C_18 
REMARK    9  A    between atoms: N_21  and  C_23 
REMARK   10  A    between atoms: C_23  and  C_24 
REMARK   11  A    between atoms: C_32  and  O_33 
ROOT
HETATM    1  C   UNL     1      42.591 -18.305   5.012  1.00  0.00     0.025 A 
HETATM    2  C   UNL     1      41.470 -17.355   5.250  1.00  0.00     0.295 A 
HETATM    3  O   UNL     1      40.995 -17.144   6.359  1.00  0.00    -0.259 OA
HETATM    4  O   UNL     1      40.922 -16.727   4.145  1.00  0.00    -0.274 OA
HETATM    5  C   UNL     1      41.474 -16.851   2.862  1.00  0.00     0.101 A 
HETATM    6  C   UNL     1      42.586 -17.665   2.649  1.00  0.00     0.005 A 
HETATM    7  C   UNL     1      40.840 -16.131   1.836  1.00  0.00     0.035 A 
HETATM    8  C   UNL     1      41.370 -16.230   0.548  1.00  0.00     0.076 A 
HETATM    9  C   UNL     1      42.495 -17.004   0.296  1.00  0.00     0.038 A 
HETATM   10  C   UNL     1      43.096 -17.715   1.343  1.00  0.00     0.017 A 
HETATM   11  C   UNL     1      43.136 -18.447   3.781  1.00  0.00    -0.037 A 
HETATM   12  C   UNL     1      44.265 -19.398   3.457  1.00  0.00     0.050 C 
ENDROOT
BRANCH   7  13
HETATM   13  C   UNL     1      39.627 -15.288   2.100  1.00  0.00     0.276 C 
BRANCH  13  14
HETATM   14  N   UNL     1      39.929 -13.831   1.825  1.00  0.00    -0.067 N 
HETATM   15  H   UNL     1      40.454 -13.567   2.682  1.00  0.00     0.277 HD
HETATM   16  H   UNL     1      40.632 -13.818   1.077  1.00  0.00     0.277 HD
BRANCH  14  17
HETATM   17  C   UNL     1      38.751 -12.928   1.621  1.00  0.00     0.189 C 
HETATM   18  C   UNL     1      37.574 -13.646   0.957  1.00  0.00     0.060 C 
HETATM   19  C   UNL     1      37.783 -13.947  -0.522  1.00  0.00     0.237 C 
HETATM   20  N   UNL     1      38.169 -12.688  -1.258  1.00  0.00    -0.067 N 
HETATM   21  H   UNL     1      37.361 -12.047  -1.231  1.00  0.00     0.280 HD
HETATM   22  C   UNL     1      39.369 -11.991  -0.681  1.00  0.00     0.237 C 
HETATM   23  C   UNL     1      39.161 -11.702   0.800  1.00  0.00     0.060 C 
BRANCH  20  24
HETATM   24  C   UNL     1      38.372 -12.937  -2.762  1.00  0.00     0.273 C 
BRANCH  24  25
HETATM   25  C   UNL     1      37.087 -12.977  -3.536  1.00  0.00    -0.033 A 
HETATM   26  C   UNL     1      36.711 -14.136  -4.234  1.00  0.00     0.009 A 
HETATM   27  C   UNL     1      35.529 -14.158  -4.975  1.00  0.00     0.001 A 
HETATM   28  C   UNL     1      34.714 -13.030  -5.028  1.00  0.00     0.000 A 
HETATM   29  C   UNL     1      35.075 -11.877  -4.335  1.00  0.00     0.001 A 
HETATM   30  C   UNL     1      36.254 -11.849  -3.590  1.00  0.00     0.009 A 
ENDBRANCH  24  25
ENDBRANCH  20  24
ENDBRANCH  14  17
ENDBRANCH  13  14
ENDBRANCH   7  13
BRANCH   8  31
HETATM   31  O   UNL     1      40.723 -15.580  -0.468  1.00  0.00    -0.360 OA
HETATM   32  H   UNL     1      41.374 -15.446  -1.191  1.00  0.00     0.217 HD
ENDBRANCH   8  31
BRANCH   1  33
HETATM   33  C   UNL     1      43.015 -19.053   6.266  1.00  0.00     0.055 C 
BRANCH  33  34
HETATM   34  C   UNL     1      44.286 -18.524   6.935  1.00  0.00     0.116 C 
BRANCH  34  35
HETATM   35  C   UNL     1      44.084 -17.182   7.592  1.00  0.00     0.259 C 
HETATM   36  O   UNL     1      43.486 -17.026   8.651  1.00  0.00    -0.265 OA
BRANCH  35  37
HETATM   37  O   UNL     1      44.665 -16.201   6.855  1.00  0.00    -0.322 OA
BRANCH  37  38
HETATM   38  C   UNL     1      44.062 -14.900   6.931  1.00  0.00     0.174 C 
HETATM   39  C   UNL     1      45.138 -13.833   6.979  1.00  0.00     0.034 C 
ENDBRANCH  37  38
ENDBRANCH  35  37
ENDBRANCH  34  35
ENDBRANCH  33  34
ENDBRANCH   1  33
TORSDOF 11
ENDMDL
