MODEL 1
REMARK VINA RESULT:      -8.9      0.000      0.000
REMARK  7 active torsions:
REMARK  status: ('A' for Active; 'I' for Inactive)
REMARK       I    between atoms: N_2  and  C_3 
REMARK    1  A    between atoms: C_3  and  C_4 
REMARK    2  A    between atoms: C_4  and  O_5 
REMARK    3  A    between atoms: O_5  and  C_6 
REMARK    4  A    between atoms: C_9  and  N_10 
REMARK    5  A    between atoms: N_10  and  C_11 
REMARK    6  A    between atoms: C_14  and  C_15 
REMARK    7  A    between atoms: C_18  and  O_19 
ROOT
HETATM    1  C   UNL     1      42.273 -15.628   1.927  1.00  0.00     0.161 A 
HETATM    2  N   UNL     1      42.931 -16.405   1.044  1.00  0.00    -0.131 NA
HETATM    3  N   UNL     1      43.335 -17.670   1.367  1.00  0.00    -0.147 NA
HETATM    4  C   UNL     1      43.051 -18.187   2.581  1.00  0.00     0.100 A 
HETATM    5  C   UNL     1      42.309 -17.463   3.532  1.00  0.00     0.009 A 
HETATM    6  C   UNL     1      41.902 -16.147   3.193  1.00  0.00     0.024 A 
HETATM    7  C   UNL     1      41.933 -17.989   4.796  1.00  0.00     0.015 A 
HETATM    8  C   UNL     1      41.190 -17.244   5.712  1.00  0.00     0.001 A 
HETATM    9  C   UNL     1      40.789 -15.960   5.384  1.00  0.00     0.001 A 
HETATM   10  C   UNL     1      41.132 -15.423   4.143  1.00  0.00     0.016 A 
ENDROOT
BRANCH   1  11
HETATM   11  N   UNL     1      41.870 -14.311   1.563  1.00  0.00    -0.339 N 
HETATM   12  H   UNL     1      42.701 -13.757   1.381  1.00  0.00     0.167 HD
BRANCH  11  13
HETATM   13  C   UNL     1      40.875 -13.904   0.641  1.00  0.00     0.033 A 
HETATM   14  C   UNL     1      39.566 -14.355   0.855  1.00  0.00     0.032 A 
HETATM   15  C   UNL     1      38.519 -13.955   0.018  1.00  0.00     0.039 A 
HETATM   16  C   UNL     1      38.754 -13.083  -1.044  1.00  0.00     0.069 A 
HETATM   17  C   UNL     1      40.051 -12.624  -1.265  1.00  0.00     0.039 A 
HETATM   18  C   UNL     1      41.099 -13.028  -0.424  1.00  0.00     0.032 A 
BRANCH  16  19
HETATM   19  O   UNL     1      37.648 -12.755  -1.777  1.00  0.00    -0.342 OA
BRANCH  19  20
HETATM   20  C   UNL     1      37.760 -12.874  -3.195  1.00  0.00     0.278 C 
BRANCH  20  21
HETATM   21  C   UNL     1      37.687 -14.335  -3.637  1.00  0.00     0.241 C 
HETATM   22  N   UNL     1      38.898 -14.889  -3.991  1.00  0.00    -0.364 N 
HETATM   23  C   UNL     1      39.028 -16.281  -4.329  1.00  0.00     0.149 C 
HETATM   24  H   UNL     1      39.726 -14.341  -3.778  1.00  0.00     0.161 HD
HETATM   25  O   UNL     1      36.624 -14.951  -3.679  1.00  0.00    -0.271 OA
ENDBRANCH  20  21
ENDBRANCH  19  20
ENDBRANCH  16  19
ENDBRANCH  11  13
ENDBRANCH   1  11
BRANCH   4  26
HETATM   26  C   UNL     1      43.588 -19.542   2.782  1.00  0.00    -0.005 A 
HETATM   27  C   UNL     1      43.380 -20.563   1.835  1.00  0.00     0.016 A 
HETATM   28  C   UNL     1      43.878 -21.853   2.043  1.00  0.00     0.037 A 
HETATM   29  C   UNL     1      44.581 -22.134   3.210  1.00  0.00     0.065 A 
HETATM   30  C   UNL     1      44.790 -21.150   4.167  1.00  0.00     0.037 A 
HETATM   31  C   UNL     1      44.291 -19.863   3.956  1.00  0.00     0.016 A 
BRANCH  29  32
HETATM   32  O   UNL     1      45.080 -23.377   3.457  1.00  0.00    -0.361 OA
HETATM   33  H   UNL     1      45.393 -23.411   4.376  1.00  0.00     0.217 HD
ENDBRANCH  29  32
ENDBRANCH   4  26
TORSDOF 7
ENDMDL
MODEL 2
REMARK VINA RESULT:      -8.3      4.773      7.501
REMARK  7 active torsions:
REMARK  status: ('A' for Active; 'I' for Inactive)
REMARK       I    between atoms: N_2  and  C_3 
REMARK    1  A    between atoms: C_3  and  C_4 
REMARK    2  A    between atoms: C_4  and  O_5 
REMARK    3  A    between atoms: O_5  and  C_6 
REMARK    4  A    between atoms: C_9  and  N_10 
REMARK    5  A    between atoms: N_10  and  C_11 
REMARK    6  A    between atoms: C_14  and  C_15 
REMARK    7  A    between atoms: C_18  and  O_19 
ROOT
HETATM    1  C   UNL     1      42.578 -14.922   3.904  1.00  0.00     0.161 A 
HETATM    2  N   UNL     1      43.269 -15.684   4.774  1.00  0.00    -0.131 NA
HETATM    3  N   UNL     1      43.592 -16.981   4.488  1.00  0.00    -0.147 NA
HETATM    4  C   UNL     1      43.250 -17.523   3.300  1.00  0.00     0.100 A 
HETATM    5  C   UNL     1      42.587 -16.769   2.313  1.00  0.00     0.009 A 
HETATM    6  C   UNL     1      42.247 -15.427   2.621  1.00  0.00     0.024 A 
HETATM    7  C   UNL     1      42.264 -17.276   1.027  1.00  0.00     0.015 A 
HETATM    8  C   UNL     1      41.612 -16.498   0.071  1.00  0.00     0.001 A 
HETATM    9  C   UNL     1      41.281 -15.186   0.366  1.00  0.00     0.001 A 
HETATM   10  C   UNL     1      41.599 -14.657   1.618  1.00  0.00     0.016 A 
ENDROOT
BRANCH   1  11
HETATM   11  N   UNL     1      42.251 -13.575   4.233  1.00  0.00    -0.339 N 
HETATM   12  H   UNL     1      42.052 -13.071   3.374  1.00  0.00     0.167 HD
BRANCH  11  13
HETATM   13  C   UNL     1      41.372 -13.086   5.229  1.00  0.00     0.033 A 
HETATM   14  C   UNL     1      41.832 -12.048   6.051  1.00  0.00     0.032 A 
HETATM   15  C   UNL     1      41.005 -11.478   7.024  1.00  0.00     0.039 A 
HETATM   16  C   UNL     1      39.694 -11.922   7.189  1.00  0.00     0.069 A 
HETATM   17  C   UNL     1      39.224 -12.951   6.376  1.00  0.00     0.039 A 
HETATM   18  C   UNL     1      40.056 -13.522   5.402  1.00  0.00     0.032 A 
BRANCH  16  19
HETATM   19  O   UNL     1      38.983 -11.274   8.161  1.00  0.00    -0.342 OA
BRANCH  19  20
HETATM   20  C   UNL     1      39.628 -10.173   8.800  1.00  0.00     0.278 C 
BRANCH  20  21
HETATM   21  C   UNL     1      39.565 -10.299  10.322  1.00  0.00     0.241 C 
HETATM   22  N   UNL     1      40.130 -11.450  10.826  1.00  0.00    -0.364 N 
HETATM   23  C   UNL     1      40.252 -11.682  12.241  1.00  0.00     0.149 C 
HETATM   24  H   UNL     1      40.665 -12.016  10.173  1.00  0.00     0.161 HD
HETATM   25  O   UNL     1      39.038  -9.441  11.026  1.00  0.00    -0.271 OA
ENDBRANCH  20  21
ENDBRANCH  19  20
ENDBRANCH  16  19
ENDBRANCH  11  13
ENDBRANCH   1  11
BRANCH   4  26
HETATM   26  C   UNL     1      43.636 -18.936   3.165  1.00  0.00    -0.005 A 
HETATM   27  C   UNL     1      44.390 -19.589   4.159  1.00  0.00     0.016 A 
HETATM   28  C   UNL     1      44.769 -20.927   4.014  1.00  0.00     0.037 A 
HETATM   29  C   UNL     1      44.405 -21.620   2.865  1.00  0.00     0.065 A 
HETATM   30  C   UNL     1      43.674 -20.997   1.862  1.00  0.00     0.037 A 
HETATM   31  C   UNL     1      43.296 -19.661   2.010  1.00  0.00     0.016 A 
BRANCH  29  32
HETATM   32  O   UNL     1      44.756 -22.923   2.679  1.00  0.00    -0.361 OA
HETATM   33  H   UNL     1      45.693 -22.961   2.425  1.00  0.00     0.217 HD
ENDBRANCH  29  32
ENDBRANCH   4  26
TORSDOF 7
ENDMDL
MODEL 3
REMARK VINA RESULT:      -8.2      1.974      2.430
REMARK  7 active torsions:
REMARK  status: ('A' for Active; 'I' for Inactive)
REMARK       I    between atoms: N_2  and  C_3 
REMARK    1  A    between atoms: C_3  and  C_4 
REMARK    2  A    between atoms: C_4  and  O_5 
REMARK    3  A    between atoms: O_5  and  C_6 
REMARK    4  A    between atoms: C_9  and  N_10 
REMARK    5  A    between atoms: N_10  and  C_11 
REMARK    6  A    between atoms: C_14  and  C_15 
REMARK    7  A    between atoms: C_18  and  O_19 
ROOT
HETATM    1  C   UNL     1      42.921 -15.380   2.520  1.00  0.00     0.161 A 
HETATM    2  N   UNL     1      43.702 -16.091   1.683  1.00  0.00    -0.131 NA
HETATM    3  N   UNL     1      43.965 -17.414   1.901  1.00  0.00    -0.147 NA
HETATM    4  C   UNL     1      43.416 -18.054   2.955  1.00  0.00     0.100 A 
HETATM    5  C   UNL     1      42.536 -17.396   3.835  1.00  0.00     0.009 A 
HETATM    6  C   UNL     1      42.275 -16.021   3.607  1.00  0.00     0.024 A 
HETATM    7  C   UNL     1      41.885 -18.044   4.918  1.00  0.00     0.015 A 
HETATM    8  C   UNL     1      41.013 -17.362   5.767  1.00  0.00     0.001 A 
HETATM    9  C   UNL     1      40.754 -16.020   5.547  1.00  0.00     0.001 A 
HETATM   10  C   UNL     1      41.368 -15.361   4.481  1.00  0.00     0.016 A 
ENDROOT
BRANCH   1  11
HETATM   11  N   UNL     1      42.669 -14.001   2.268  1.00  0.00    -0.339 N 
HETATM   12  H   UNL     1      43.531 -13.483   2.413  1.00  0.00     0.167 HD
BRANCH  11  13
HETATM   13  C   UNL     1      41.986 -13.400   1.184  1.00  0.00     0.033 A 
HETATM   14  C   UNL     1      41.871 -12.004   1.179  1.00  0.00     0.032 A 
HETATM   15  C   UNL     1      41.255 -11.333   0.118  1.00  0.00     0.039 A 
HETATM   16  C   UNL     1      40.752 -12.042  -0.972  1.00  0.00     0.069 A 
HETATM   17  C   UNL     1      40.864 -13.431  -0.983  1.00  0.00     0.039 A 
HETATM   18  C   UNL     1      41.481 -14.101   0.085  1.00  0.00     0.032 A 
BRANCH  16  19
HETATM   19  O   UNL     1      40.190 -11.272  -1.952  1.00  0.00    -0.342 OA
BRANCH  19  20
HETATM   20  C   UNL     1      39.862 -11.931  -3.175  1.00  0.00     0.278 C 
BRANCH  20  21
HETATM   21  C   UNL     1      40.529 -11.250  -4.370  1.00  0.00     0.241 C 
HETATM   22  N   UNL     1      39.661 -10.857  -5.365  1.00  0.00    -0.364 N 
HETATM   23  C   UNL     1      40.105 -10.107  -6.510  1.00  0.00     0.149 C 
HETATM   24  H   UNL     1      38.670 -10.908  -5.148  1.00  0.00     0.161 HD
HETATM   25  O   UNL     1      41.745 -11.083  -4.429  1.00  0.00    -0.271 OA
ENDBRANCH  20  21
ENDBRANCH  19  20
ENDBRANCH  16  19
ENDBRANCH  11  13
ENDBRANCH   1  11
BRANCH   4  26
HETATM   26  C   UNL     1      43.829 -19.461   3.069  1.00  0.00    -0.005 A 
HETATM   27  C   UNL     1      43.558 -20.392   2.048  1.00  0.00     0.016 A 
HETATM   28  C   UNL     1      43.938 -21.731   2.172  1.00  0.00     0.037 A 
HETATM   29  C   UNL     1      44.586 -22.153   3.329  1.00  0.00     0.065 A 
HETATM   30  C   UNL     1      44.854 -21.260   4.358  1.00  0.00     0.037 A 
HETATM   31  C   UNL     1      44.473 -19.923   4.230  1.00  0.00     0.016 A 
BRANCH  29  32
HETATM   32  O   UNL     1      44.970 -23.449   3.496  1.00  0.00    -0.361 OA
HETATM   33  H   UNL     1      45.891 -23.465   3.803  1.00  0.00     0.217 HD
ENDBRANCH  29  32
ENDBRANCH   4  26
TORSDOF 7
ENDMDL
MODEL 4
REMARK VINA RESULT:      -8.2      2.476      3.294
REMARK  7 active torsions:
REMARK  status: ('A' for Active; 'I' for Inactive)
REMARK       I    between atoms: N_2  and  C_3 
REMARK    1  A    between atoms: C_3  and  C_4 
REMARK    2  A    between atoms: C_4  and  O_5 
REMARK    3  A    between atoms: O_5  and  C_6 
REMARK    4  A    between atoms: C_9  and  N_10 
REMARK    5  A    between atoms: N_10  and  C_11 
REMARK    6  A    between atoms: C_14  and  C_15 
REMARK    7  A    between atoms: C_18  and  O_19 
ROOT
HETATM    1  C   UNL     1      43.004 -15.245   2.793  1.00  0.00     0.161 A 
HETATM    2  N   UNL     1      43.781 -15.947   1.945  1.00  0.00    -0.131 NA
HETATM    3  N   UNL     1      44.013 -17.282   2.127  1.00  0.00    -0.147 NA
HETATM    4  C   UNL     1      43.435 -17.941   3.154  1.00  0.00     0.100 A 
HETATM    5  C   UNL     1      42.556 -17.291   4.041  1.00  0.00     0.009 A 
HETATM    6  C   UNL     1      42.328 -15.904   3.851  1.00  0.00     0.024 A 
HETATM    7  C   UNL     1      41.876 -17.955   5.095  1.00  0.00     0.015 A 
HETATM    8  C   UNL     1      41.007 -17.280   5.952  1.00  0.00     0.001 A 
HETATM    9  C   UNL     1      40.780 -15.927   5.769  1.00  0.00     0.001 A 
HETATM   10  C   UNL     1      41.424 -15.251   4.732  1.00  0.00     0.016 A 
ENDROOT
BRANCH   1  11
HETATM   11  N   UNL     1      42.786 -13.853   2.580  1.00  0.00    -0.339 N 
HETATM   12  H   UNL     1      43.615 -13.459   2.147  1.00  0.00     0.167 HD
BRANCH  11  13
HETATM   13  C   UNL     1      41.661 -13.201   2.022  1.00  0.00     0.033 A 
HETATM   14  C   UNL     1      41.178 -13.670   0.793  1.00  0.00     0.032 A 
HETATM   15  C   UNL     1      40.041 -13.111   0.202  1.00  0.00     0.039 A 
HETATM   16  C   UNL     1      39.350 -12.077   0.833  1.00  0.00     0.069 A 
HETATM   17  C   UNL     1      39.817 -11.603   2.057  1.00  0.00     0.039 A 
HETATM   18  C   UNL     1      40.959 -12.166   2.646  1.00  0.00     0.032 A 
BRANCH  16  19
HETATM   19  O   UNL     1      38.246 -11.627   0.164  1.00  0.00    -0.342 OA
BRANCH  19  20
HETATM   20  C   UNL     1      36.994 -12.204   0.533  1.00  0.00     0.278 C 
BRANCH  20  21
HETATM   21  C   UNL     1      35.949 -11.125   0.823  1.00  0.00     0.241 C 
HETATM   22  N   UNL     1      36.207 -10.363   1.941  1.00  0.00    -0.364 N 
HETATM   23  C   UNL     1      35.386  -9.237   2.299  1.00  0.00     0.149 C 
HETATM   24  H   UNL     1      37.122 -10.477   2.366  1.00  0.00     0.161 HD
HETATM   25  O   UNL     1      34.958 -10.970   0.112  1.00  0.00    -0.271 OA
ENDBRANCH  20  21
ENDBRANCH  19  20
ENDBRANCH  16  19
ENDBRANCH  11  13
ENDBRANCH   1  11
BRANCH   4  26
HETATM   26  C   UNL     1      43.816 -19.359   3.231  1.00  0.00    -0.005 A 
HETATM   27  C   UNL     1      44.475 -19.883   4.360  1.00  0.00     0.016 A 
HETATM   28  C   UNL     1      44.850 -21.228   4.417  1.00  0.00     0.037 A 
HETATM   29  C   UNL     1      44.578 -22.060   3.336  1.00  0.00     0.065 A 
HETATM   30  C   UNL     1      43.943 -21.568   2.203  1.00  0.00     0.037 A 
HETATM   31  C   UNL     1      43.568 -20.223   2.150  1.00  0.00     0.016 A 
BRANCH  29  32
HETATM   32  O   UNL     1      44.930 -23.376   3.345  1.00  0.00    -0.361 OA
HETATM   33  H   UNL     1      44.323 -23.857   3.930  1.00  0.00     0.217 HD
ENDBRANCH  29  32
ENDBRANCH   4  26
TORSDOF 7
ENDMDL
MODEL 5
REMARK VINA RESULT:      -8.1      5.479      8.191
REMARK  7 active torsions:
REMARK  status: ('A' for Active; 'I' for Inactive)
REMARK       I    between atoms: N_2  and  C_3 
REMARK    1  A    between atoms: C_3  and  C_4 
REMARK    2  A    between atoms: C_4  and  O_5 
REMARK    3  A    between atoms: O_5  and  C_6 
REMARK    4  A    between atoms: C_9  and  N_10 
REMARK    5  A    between atoms: N_10  and  C_11 
REMARK    6  A    between atoms: C_14  and  C_15 
REMARK    7  A    between atoms: C_18  and  O_19 
ROOT
HETATM    1  C   UNL     1      41.560 -14.234   4.895  1.00  0.00     0.161 A 
HETATM    2  N   UNL     1      42.582 -14.598   5.694  1.00  0.00    -0.131 NA
HETATM    3  N   UNL     1      43.132 -15.847   5.627  1.00  0.00    -0.147 NA
HETATM    4  C   UNL     1      42.680 -16.744   4.725  1.00  0.00     0.100 A 
HETATM    5  C   UNL     1      41.662 -16.415   3.810  1.00  0.00     0.009 A 
HETATM    6  C   UNL     1      41.090 -15.120   3.892  1.00  0.00     0.024 A 
HETATM    7  C   UNL     1      41.199 -17.303   2.804  1.00  0.00     0.015 A 
HETATM    8  C   UNL     1      40.192 -16.941   1.910  1.00  0.00     0.001 A 
HETATM    9  C   UNL     1      39.632 -15.677   1.985  1.00  0.00     0.001 A 
HETATM   10  C   UNL     1      40.078 -14.779   2.955  1.00  0.00     0.016 A 
ENDROOT
BRANCH   1  11
HETATM   11  N   UNL     1      41.004 -12.926   4.992  1.00  0.00    -0.339 N 
HETATM   12  H   UNL     1      40.152 -12.895   4.440  1.00  0.00     0.167 HD
BRANCH  11  13
HETATM   13  C   UNL     1      40.798 -12.126   6.141  1.00  0.00     0.033 A 
HETATM   14  C   UNL     1      39.633 -12.346   6.888  1.00  0.00     0.032 A 
HETATM   15  C   UNL     1      39.383 -11.631   8.064  1.00  0.00     0.039 A 
HETATM   16  C   UNL     1      40.299 -10.688   8.528  1.00  0.00     0.069 A 
HETATM   17  C   UNL     1      41.463 -10.463   7.797  1.00  0.00     0.039 A 
HETATM   18  C   UNL     1      41.710 -11.181   6.618  1.00  0.00     0.032 A 
BRANCH  16  19
HETATM   19  O   UNL     1      39.949 -10.069   9.696  1.00  0.00    -0.342 OA
BRANCH  19  20
HETATM   20  C   UNL     1      40.098 -10.830  10.894  1.00  0.00     0.278 C 
BRANCH  20  21
HETATM   21  C   UNL     1      41.503 -10.675  11.479  1.00  0.00     0.241 C 
HETATM   22  N   UNL     1      42.363 -11.711  11.188  1.00  0.00    -0.364 N 
HETATM   23  C   UNL     1      43.750 -11.677  11.568  1.00  0.00     0.149 C 
HETATM   24  H   UNL     1      42.044 -12.384  10.498  1.00  0.00     0.161 HD
HETATM   25  O   UNL     1      41.821  -9.703  12.161  1.00  0.00    -0.271 OA
ENDBRANCH  20  21
ENDBRANCH  19  20
ENDBRANCH  16  19
ENDBRANCH  11  13
ENDBRANCH   1  11
BRANCH   4  26
HETATM   26  C   UNL     1      43.351 -18.050   4.809  1.00  0.00    -0.005 A 
HETATM   27  C   UNL     1      43.983 -18.625   3.689  1.00  0.00     0.016 A 
HETATM   28  C   UNL     1      44.602 -19.875   3.773  1.00  0.00     0.037 A 
HETATM   29  C   UNL     1      44.584 -20.568   4.979  1.00  0.00     0.065 A 
HETATM   30  C   UNL     1      43.955 -20.032   6.096  1.00  0.00     0.037 A 
HETATM   31  C   UNL     1      43.338 -18.782   6.009  1.00  0.00     0.016 A 
BRANCH  29  32
HETATM   32  O   UNL     1      45.169 -21.791   5.106  1.00  0.00    -0.361 OA
HETATM   33  H   UNL     1      46.013 -21.785   4.625  1.00  0.00     0.217 HD
ENDBRANCH  29  32
ENDBRANCH   4  26
TORSDOF 7
ENDMDL
MODEL 6
REMARK VINA RESULT:      -8.0      2.448      3.771
REMARK  7 active torsions:
REMARK  status: ('A' for Active; 'I' for Inactive)
REMARK       I    between atoms: N_2  and  C_3 
REMARK    1  A    between atoms: C_3  and  C_4 
REMARK    2  A    between atoms: C_4  and  O_5 
REMARK    3  A    between atoms: O_5  and  C_6 
REMARK    4  A    between atoms: C_9  and  N_10 
REMARK    5  A    between atoms: N_10  and  C_11 
REMARK    6  A    between atoms: C_14  and  C_15 
REMARK    7  A    between atoms: C_18  and  O_19 
ROOT
HETATM    1  C   UNL     1      42.642 -14.694   2.547  1.00  0.00     0.161 A 
HETATM    2  N   UNL     1      42.699 -14.173   3.789  1.00  0.00    -0.131 NA
HETATM    3  N   UNL     1      43.049 -14.935   4.868  1.00  0.00    -0.147 NA
HETATM    4  C   UNL     1      43.382 -16.233   4.708  1.00  0.00     0.100 A 
HETATM    5  C   UNL     1      43.412 -16.831   3.434  1.00  0.00     0.009 A 
HETATM    6  C   UNL     1      43.039 -16.037   2.320  1.00  0.00     0.024 A 
HETATM    7  C   UNL     1      43.817 -18.173   3.209  1.00  0.00     0.015 A 
HETATM    8  C   UNL     1      43.841 -18.731   1.931  1.00  0.00     0.001 A 
HETATM    9  C   UNL     1      43.479 -17.958   0.840  1.00  0.00     0.001 A 
HETATM   10  C   UNL     1      43.091 -16.631   1.030  1.00  0.00     0.016 A 
ENDROOT
BRANCH   1  11
HETATM   11  N   UNL     1      42.269 -13.876   1.442  1.00  0.00    -0.339 N 
HETATM   12  H   UNL     1      43.037 -13.859   0.778  1.00  0.00     0.167 HD
BRANCH  11  13
HETATM   13  C   UNL     1      41.063 -13.871   0.702  1.00  0.00     0.033 A 
HETATM   14  C   UNL     1      41.145 -14.095  -0.679  1.00  0.00     0.032 A 
HETATM   15  C   UNL     1      39.995 -14.155  -1.472  1.00  0.00     0.039 A 
HETATM   16  C   UNL     1      38.732 -14.008  -0.900  1.00  0.00     0.069 A 
HETATM   17  C   UNL     1      38.635 -13.789   0.473  1.00  0.00     0.039 A 
HETATM   18  C   UNL     1      39.792 -13.728   1.265  1.00  0.00     0.032 A 
BRANCH  16  19
HETATM   19  O   UNL     1      37.687 -14.103  -1.776  1.00  0.00    -0.342 OA
BRANCH  19  20
HETATM   20  C   UNL     1      37.989 -14.588  -3.083  1.00  0.00     0.278 C 
BRANCH  20  21
HETATM   21  C   UNL     1      36.971 -14.091  -4.109  1.00  0.00     0.241 C 
HETATM   22  N   UNL     1      36.948 -12.724  -4.280  1.00  0.00    -0.364 N 
HETATM   23  C   UNL     1      36.126 -12.095  -5.280  1.00  0.00     0.149 C 
HETATM   24  H   UNL     1      37.699 -12.200  -3.841  1.00  0.00     0.161 HD
HETATM   25  O   UNL     1      36.229 -14.860  -4.717  1.00  0.00    -0.271 OA
ENDBRANCH  20  21
ENDBRANCH  19  20
ENDBRANCH  16  19
ENDBRANCH  11  13
ENDBRANCH   1  11
BRANCH   4  26
HETATM   26  C   UNL     1      43.695 -16.920   5.970  1.00  0.00    -0.005 A 
HETATM   27  C   UNL     1      44.773 -17.821   6.069  1.00  0.00     0.016 A 
HETATM   28  C   UNL     1      45.052 -18.483   7.268  1.00  0.00     0.037 A 
HETATM   29  C   UNL     1      44.246 -18.255   8.378  1.00  0.00     0.065 A 
HETATM   30  C   UNL     1      43.168 -17.383   8.306  1.00  0.00     0.037 A 
HETATM   31  C   UNL     1      42.892 -16.722   7.107  1.00  0.00     0.016 A 
BRANCH  29  32
HETATM   32  O   UNL     1      44.478 -18.882   9.566  1.00  0.00    -0.361 OA
HETATM   33  H   UNL     1      43.730 -18.711  10.160  1.00  0.00     0.217 HD
ENDBRANCH  29  32
ENDBRANCH   4  26
TORSDOF 7
ENDMDL
MODEL 7
REMARK VINA RESULT:      -7.9      5.689      8.608
REMARK  7 active torsions:
REMARK  status: ('A' for Active; 'I' for Inactive)
REMARK       I    between atoms: N_2  and  C_3 
REMARK    1  A    between atoms: C_3  and  C_4 
REMARK    2  A    between atoms: C_4  and  O_5 
REMARK    3  A    between atoms: O_5  and  C_6 
REMARK    4  A    between atoms: C_9  and  N_10 
REMARK    5  A    between atoms: N_10  and  C_11 
REMARK    6  A    between atoms: C_14  and  C_15 
REMARK    7  A    between atoms: C_18  and  O_19 
ROOT
HETATM    1  C   UNL     1      43.289 -15.376   4.965  1.00  0.00     0.161 A 
HETATM    2  N   UNL     1      43.818 -16.220   5.873  1.00  0.00    -0.131 NA
HETATM    3  N   UNL     1      44.070 -17.529   5.571  1.00  0.00    -0.147 NA
HETATM    4  C   UNL     1      43.820 -18.003   4.332  1.00  0.00     0.100 A 
HETATM    5  C   UNL     1      43.330 -17.166   3.311  1.00  0.00     0.009 A 
HETATM    6  C   UNL     1      43.063 -15.812   3.635  1.00  0.00     0.024 A 
HETATM    7  C   UNL     1      43.113 -17.605   1.979  1.00  0.00     0.015 A 
HETATM    8  C   UNL     1      42.633 -16.746   0.990  1.00  0.00     0.001 A 
HETATM    9  C   UNL     1      42.373 -15.422   1.301  1.00  0.00     0.001 A 
HETATM   10  C   UNL     1      42.591 -14.960   2.600  1.00  0.00     0.016 A 
ENDROOT
BRANCH   1  11
HETATM   11  N   UNL     1      43.033 -14.018   5.312  1.00  0.00    -0.339 N 
HETATM   12  H   UNL     1      42.051 -13.821   5.144  1.00  0.00     0.167 HD
BRANCH  11  13
HETATM   13  C   UNL     1      43.421 -13.303   6.470  1.00  0.00     0.033 A 
HETATM   14  C   UNL     1      42.591 -12.259   6.900  1.00  0.00     0.032 A 
HETATM   15  C   UNL     1      42.880 -11.539   8.063  1.00  0.00     0.039 A 
HETATM   16  C   UNL     1      43.998 -11.855   8.833  1.00  0.00     0.069 A 
HETATM   17  C   UNL     1      44.830 -12.893   8.419  1.00  0.00     0.039 A 
HETATM   18  C   UNL     1      44.538 -13.613   7.251  1.00  0.00     0.032 A 
BRANCH  16  19
HETATM   19  O   UNL     1      44.162 -11.090   9.955  1.00  0.00    -0.342 OA
BRANCH  19  20
HETATM   20  C   UNL     1      43.026 -10.347  10.394  1.00  0.00     0.278 C 
BRANCH  20  21
HETATM   21  C   UNL     1      42.432 -10.943  11.671  1.00  0.00     0.241 C 
HETATM   22  N   UNL     1      41.089 -11.240  11.595  1.00  0.00    -0.364 N 
HETATM   23  C   UNL     1      40.394 -11.903  12.667  1.00  0.00     0.149 C 
HETATM   24  H   UNL     1      40.665 -11.187  10.674  1.00  0.00     0.161 HD
HETATM   25  O   UNL     1      43.109 -11.127  12.681  1.00  0.00    -0.271 OA
ENDBRANCH  20  21
ENDBRANCH  19  20
ENDBRANCH  16  19
ENDBRANCH  11  13
ENDBRANCH   1  11
BRANCH   4  26
HETATM   26  C   UNL     1      44.109 -19.437   4.183  1.00  0.00    -0.005 A 
HETATM   27  C   UNL     1      44.438 -20.240   5.292  1.00  0.00     0.016 A 
HETATM   28  C   UNL     1      44.729 -21.598   5.139  1.00  0.00     0.037 A 
HETATM   29  C   UNL     1      44.704 -22.164   3.868  1.00  0.00     0.065 A 
HETATM   30  C   UNL     1      44.397 -21.393   2.755  1.00  0.00     0.037 A 
HETATM   31  C   UNL     1      44.106 -20.036   2.911  1.00  0.00     0.016 A 
BRANCH  29  32
HETATM   32  O   UNL     1      44.986 -23.482   3.671  1.00  0.00    -0.361 OA
HETATM   33  H   UNL     1      44.429 -23.815   2.949  1.00  0.00     0.217 HD
ENDBRANCH  29  32
ENDBRANCH   4  26
TORSDOF 7
ENDMDL
MODEL 8
REMARK VINA RESULT:      -7.8      4.201      5.361
REMARK  7 active torsions:
REMARK  status: ('A' for Active; 'I' for Inactive)
REMARK       I    between atoms: N_2  and  C_3 
REMARK    1  A    between atoms: C_3  and  C_4 
REMARK    2  A    between atoms: C_4  and  O_5 
REMARK    3  A    between atoms: O_5  and  C_6 
REMARK    4  A    between atoms: C_9  and  N_10 
REMARK    5  A    between atoms: N_10  and  C_11 
REMARK    6  A    between atoms: C_14  and  C_15 
REMARK    7  A    between atoms: C_18  and  O_19 
ROOT
HETATM    1  C   UNL     1      43.260 -15.355   4.908  1.00  0.00     0.161 A 
HETATM    2  N   UNL     1      43.782 -16.189   5.828  1.00  0.00    -0.131 NA
HETATM    3  N   UNL     1      44.040 -17.500   5.539  1.00  0.00    -0.147 NA
HETATM    4  C   UNL     1      43.805 -17.985   4.301  1.00  0.00     0.100 A 
HETATM    5  C   UNL     1      43.323 -17.158   3.269  1.00  0.00     0.009 A 
HETATM    6  C   UNL     1      43.049 -15.802   3.579  1.00  0.00     0.024 A 
HETATM    7  C   UNL     1      43.121 -17.607   1.938  1.00  0.00     0.015 A 
HETATM    8  C   UNL     1      42.649 -16.758   0.937  1.00  0.00     0.001 A 
HETATM    9  C   UNL     1      42.382 -15.432   1.235  1.00  0.00     0.001 A 
HETATM   10  C   UNL     1      42.586 -14.960   2.532  1.00  0.00     0.016 A 
ENDROOT
BRANCH   1  11
HETATM   11  N   UNL     1      42.997 -13.995   5.241  1.00  0.00    -0.339 N 
HETATM   12  H   UNL     1      43.660 -13.407   4.746  1.00  0.00     0.167 HD
BRANCH  11  13
HETATM   13  C   UNL     1      41.760 -13.307   5.278  1.00  0.00     0.033 A 
HETATM   14  C   UNL     1      41.676 -12.081   4.604  1.00  0.00     0.032 A 
HETATM   15  C   UNL     1      40.476 -11.366   4.553  1.00  0.00     0.039 A 
HETATM   16  C   UNL     1      39.326 -11.866   5.161  1.00  0.00     0.069 A 
HETATM   17  C   UNL     1      39.395 -13.086   5.831  1.00  0.00     0.039 A 
HETATM   18  C   UNL     1      40.601 -13.800   5.883  1.00  0.00     0.032 A 
BRANCH  16  19
HETATM   19  O   UNL     1      38.213 -11.084   5.026  1.00  0.00    -0.342 OA
BRANCH  19  20
HETATM   20  C   UNL     1      38.226 -10.132   3.963  1.00  0.00     0.278 C 
BRANCH  20  21
HETATM   21  C   UNL     1      36.877  -9.424   3.835  1.00  0.00     0.241 C 
HETATM   22  N   UNL     1      36.212  -9.664   2.652  1.00  0.00    -0.364 N 
HETATM   23  C   UNL     1      34.885  -9.164   2.410  1.00  0.00     0.149 C 
HETATM   24  H   UNL     1      36.593 -10.396   2.060  1.00  0.00     0.161 HD
HETATM   25  O   UNL     1      36.438  -8.692   4.720  1.00  0.00    -0.271 OA
ENDBRANCH  20  21
ENDBRANCH  19  20
ENDBRANCH  16  19
ENDBRANCH  11  13
ENDBRANCH   1  11
BRANCH   4  26
HETATM   26  C   UNL     1      44.099 -19.420   4.167  1.00  0.00    -0.005 A 
HETATM   27  C   UNL     1      44.425 -20.211   5.285  1.00  0.00     0.016 A 
HETATM   28  C   UNL     1      44.721 -21.570   5.145  1.00  0.00     0.037 A 
HETATM   29  C   UNL     1      44.704 -22.147   3.880  1.00  0.00     0.065 A 
HETATM   30  C   UNL     1      44.401 -21.387   2.757  1.00  0.00     0.037 A 
HETATM   31  C   UNL     1      44.104 -20.030   2.900  1.00  0.00     0.016 A 
BRANCH  29  32
HETATM   32  O   UNL     1      44.992 -23.466   3.695  1.00  0.00    -0.361 OA
HETATM   33  H   UNL     1      44.267 -23.997   4.063  1.00  0.00     0.217 HD
ENDBRANCH  29  32
ENDBRANCH   4  26
TORSDOF 7
ENDMDL
MODEL 9
REMARK VINA RESULT:      -7.7      4.315      6.254
REMARK  7 active torsions:
REMARK  status: ('A' for Active; 'I' for Inactive)
REMARK       I    between atoms: N_2  and  C_3 
REMARK    1  A    between atoms: C_3  and  C_4 
REMARK    2  A    between atoms: C_4  and  O_5 
REMARK    3  A    between atoms: O_5  and  C_6 
REMARK    4  A    between atoms: C_9  and  N_10 
REMARK    5  A    between atoms: N_10  and  C_11 
REMARK    6  A    between atoms: C_14  and  C_15 
REMARK    7  A    between atoms: C_18  and  O_19 
ROOT
HETATM    1  C   UNL     1      42.647 -14.991   4.164  1.00  0.00     0.161 A 
HETATM    2  N   UNL     1      43.534 -15.461   5.062  1.00  0.00    -0.131 NA
HETATM    3  N   UNL     1      43.913 -16.774   5.072  1.00  0.00    -0.147 NA
HETATM    4  C   UNL     1      43.427 -17.631   4.150  1.00  0.00     0.100 A 
HETATM    5  C   UNL     1      42.549 -17.200   3.138  1.00  0.00     0.009 A 
HETATM    6  C   UNL     1      42.152 -15.838   3.140  1.00  0.00     0.024 A 
HETATM    7  C   UNL     1      42.062 -18.050   2.110  1.00  0.00     0.015 A 
HETATM    8  C   UNL     1      41.198 -17.586   1.119  1.00  0.00     0.001 A 
HETATM    9  C   UNL     1      40.810 -16.257   1.116  1.00  0.00     0.001 A 
HETATM   10  C   UNL     1      41.285 -15.395   2.106  1.00  0.00     0.016 A 
ENDROOT
BRANCH   1  11
HETATM   11  N   UNL     1      42.266 -13.618   4.183  1.00  0.00    -0.339 N 
HETATM   12  H   UNL     1      42.067 -13.325   3.231  1.00  0.00     0.167 HD
BRANCH  11  13
HETATM   13  C   UNL     1      41.351 -12.956   5.035  1.00  0.00     0.033 A 
HETATM   14  C   UNL     1      41.875 -12.132   6.040  1.00  0.00     0.032 A 
HETATM   15  C   UNL     1      41.035 -11.406   6.890  1.00  0.00     0.039 A 
HETATM   16  C   UNL     1      39.650 -11.473   6.745  1.00  0.00     0.069 A 
HETATM   17  C   UNL     1      39.116 -12.285   5.746  1.00  0.00     0.039 A 
HETATM   18  C   UNL     1      39.961 -13.014   4.897  1.00  0.00     0.032 A 
BRANCH  16  19
HETATM   19  O   UNL     1      38.939 -10.704   7.624  1.00  0.00    -0.342 OA
BRANCH  19  20
HETATM   20  C   UNL     1      39.249  -9.311   7.652  1.00  0.00     0.278 C 
BRANCH  20  21
HETATM   21  C   UNL     1      38.721  -8.599   6.407  1.00  0.00     0.241 C 
HETATM   22  N   UNL     1      39.698  -8.070   5.591  1.00  0.00    -0.364 N 
HETATM   23  C   UNL     1      39.384  -7.460   4.327  1.00  0.00     0.149 C 
HETATM   24  H   UNL     1      40.655  -8.333   5.802  1.00  0.00     0.161 HD
HETATM   25  O   UNL     1      37.519  -8.503   6.171  1.00  0.00    -0.271 OA
ENDBRANCH  20  21
ENDBRANCH  19  20
ENDBRANCH  16  19
ENDBRANCH  11  13
ENDBRANCH   1  11
BRANCH   4  26
HETATM   26  C   UNL     1      43.904 -19.012   4.322  1.00  0.00    -0.005 A 
HETATM   27  C   UNL     1      44.302 -19.795   3.221  1.00  0.00     0.016 A 
HETATM   28  C   UNL     1      44.736 -21.112   3.392  1.00  0.00     0.037 A 
HETATM   29  C   UNL     1      44.765 -21.662   4.669  1.00  0.00     0.065 A 
HETATM   30  C   UNL     1      44.365 -20.919   5.771  1.00  0.00     0.037 A 
HETATM   31  C   UNL     1      43.932 -19.602   5.598  1.00  0.00     0.016 A 
BRANCH  29  32
HETATM   32  O   UNL     1      45.177 -22.943   4.882  1.00  0.00    -0.361 OA
HETATM   33  H   UNL     1      45.582 -22.999   5.763  1.00  0.00     0.217 HD
ENDBRANCH  29  32
ENDBRANCH   4  26
TORSDOF 7
ENDMDL
MODEL 10
REMARK VINA RESULT:      -7.6      2.158      9.613
REMARK  7 active torsions:
REMARK  status: ('A' for Active; 'I' for Inactive)
REMARK       I    between atoms: N_2  and  C_3 
REMARK    1  A    between atoms: C_3  and  C_4 
REMARK    2  A    between atoms: C_4  and  O_5 
REMARK    3  A    between atoms: O_5  and  C_6 
REMARK    4  A    between atoms: C_9  and  N_10 
REMARK    5  A    between atoms: N_10  and  C_11 
REMARK    6  A    between atoms: C_14  and  C_15 
REMARK    7  A    between atoms: C_18  and  O_19 
ROOT
HETATM    1  C   UNL     1      40.141 -13.825   0.075  1.00  0.00     0.161 A 
HETATM    2  N   UNL     1      38.828 -14.113   0.177  1.00  0.00    -0.131 NA
HETATM    3  N   UNL     1      37.978 -13.958  -0.882  1.00  0.00    -0.147 NA
HETATM    4  C   UNL     1      38.446 -13.539  -2.077  1.00  0.00     0.100 A 
HETATM    5  C   UNL     1      39.815 -13.283  -2.280  1.00  0.00     0.009 A 
HETATM    6  C   UNL     1      40.690 -13.438  -1.174  1.00  0.00     0.024 A 
HETATM    7  C   UNL     1      40.362 -12.903  -3.533  1.00  0.00     0.015 A 
HETATM    8  C   UNL     1      41.726 -12.664  -3.700  1.00  0.00     0.001 A 
HETATM    9  C   UNL     1      42.584 -12.815  -2.623  1.00  0.00     0.001 A 
HETATM   10  C   UNL     1      42.075 -13.203  -1.382  1.00  0.00     0.016 A 
ENDROOT
BRANCH   1  11
HETATM   11  N   UNL     1      41.001 -13.992   1.198  1.00  0.00    -0.339 N 
HETATM   12  H   UNL     1      40.668 -13.398   1.951  1.00  0.00     0.167 HD
BRANCH  11  13
HETATM   13  C   UNL     1      41.489 -15.186   1.780  1.00  0.00     0.033 A 
HETATM   14  C   UNL     1      41.358 -15.336   3.167  1.00  0.00     0.032 A 
HETATM   15  C   UNL     1      41.770 -16.508   3.809  1.00  0.00     0.039 A 
HETATM   16  C   UNL     1      42.310 -17.565   3.078  1.00  0.00     0.069 A 
HETATM   17  C   UNL     1      42.443 -17.430   1.697  1.00  0.00     0.039 A 
HETATM   18  C   UNL     1      42.030 -16.252   1.057  1.00  0.00     0.032 A 
BRANCH  16  19
HETATM   19  O   UNL     1      42.659 -18.660   3.817  1.00  0.00    -0.342 OA
BRANCH  19  20
HETATM   20  C   UNL     1      44.051 -18.845   4.072  1.00  0.00     0.278 C 
BRANCH  20  21
HETATM   21  C   UNL     1      44.513 -20.238   3.642  1.00  0.00     0.241 C 
HETATM   22  N   UNL     1      43.953 -20.692   2.468  1.00  0.00    -0.364 N 
HETATM   23  C   UNL     1      44.356 -21.934   1.864  1.00  0.00     0.149 C 
HETATM   24  H   UNL     1      43.424 -20.015   1.927  1.00  0.00     0.161 HD
HETATM   25  O   UNL     1      45.313 -20.893   4.308  1.00  0.00    -0.271 OA
ENDBRANCH  20  21
ENDBRANCH  19  20
ENDBRANCH  16  19
ENDBRANCH  11  13
ENDBRANCH   1  11
BRANCH   4  26
HETATM   26  C   UNL     1      37.398 -13.388  -3.098  1.00  0.00    -0.005 A 
HETATM   27  C   UNL     1      36.756 -12.154  -3.315  1.00  0.00     0.016 A 
HETATM   28  C   UNL     1      35.748 -12.024  -4.275  1.00  0.00     0.037 A 
HETATM   29  C   UNL     1      35.366 -13.134  -5.019  1.00  0.00     0.065 A 
HETATM   30  C   UNL     1      35.972 -14.367  -4.817  1.00  0.00     0.037 A 
HETATM   31  C   UNL     1      36.979 -14.494  -3.857  1.00  0.00     0.016 A 
BRANCH  29  32
HETATM   32  O   UNL     1      34.385 -13.056  -5.962  1.00  0.00    -0.361 OA
HETATM   33  H   UNL     1      34.376 -12.157  -6.328  1.00  0.00     0.217 HD
ENDBRANCH  29  32
ENDBRANCH   4  26
TORSDOF 7
ENDMDL
