MODEL 1
REMARK VINA RESULT:      -8.2      0.000      0.000
REMARK  9 active torsions:
REMARK  status: ('A' for Active; 'I' for Inactive)
REMARK       I    between atoms: N_2  and  C_3 
REMARK    1  A    between atoms: C_3  and  C_4 
REMARK    2  A    between atoms: C_4  and  S_5 
REMARK    3  A    between atoms: S_5  and  C_6 
REMARK    4  A    between atoms: N_7  and  C_8 
REMARK    5  A    between atoms: C_8  and  C_9 
REMARK    6  A    between atoms: C_11  and  C_12 
REMARK    7  A    between atoms: C_12  and  O_13 
REMARK    8  A    between atoms: O_13  and  C_14 
REMARK    9  A    between atoms: C_15  and  C_16 
ROOT
HETATM    1  C   UNL     1      43.690 -15.341   6.845  1.00  0.00     0.192 A 
HETATM    2  N   UNL     1      43.356 -16.183   5.820  1.00  0.00    -0.306 N 
HETATM    3  C   UNL     1      43.536 -17.455   6.326  1.00  0.00     0.155 A 
HETATM    4  N   UNL     1      43.892 -17.360   7.594  1.00  0.00    -0.132 NA
HETATM    5  N   UNL     1      43.996 -16.032   7.914  1.00  0.00    -0.123 NA
ENDROOT
BRANCH   3   6
HETATM    6  C   UNL     1      43.370 -18.726   5.565  1.00  0.00     0.256 C 
BRANCH   6   7
HETATM    7  O   UNL     1      44.471 -18.794   4.654  1.00  0.00    -0.343 OA
BRANCH   7   8
HETATM    8  C   UNL     1      44.428 -19.941   3.901  1.00  0.00     0.080 A 
HETATM    9  C   UNL     1      43.814 -19.951   2.633  1.00  0.00     0.007 A 
HETATM   10  C   UNL     1      43.755 -21.193   1.964  1.00  0.00     0.015 A 
HETATM   11  C   UNL     1      44.278 -22.361   2.528  1.00  0.00     0.001 A 
HETATM   12  C   UNL     1      44.863 -22.322   3.789  1.00  0.00     0.003 A 
HETATM   13  C   UNL     1      44.927 -21.116   4.481  1.00  0.00     0.037 A 
BRANCH   9  14
HETATM   14  C   UNL     1      43.232 -18.752   1.985  1.00  0.00    -0.023 A 
HETATM   15  C   UNL     1      41.839 -18.625   1.814  1.00  0.00     0.012 A 
HETATM   16  C   UNL     1      41.271 -17.479   1.248  1.00  0.00     0.001 A 
HETATM   17  C   UNL     1      42.088 -16.434   0.828  1.00  0.00     0.000 A 
HETATM   18  C   UNL     1      43.469 -16.538   0.974  1.00  0.00     0.001 A 
HETATM   19  C   UNL     1      44.032 -17.681   1.551  1.00  0.00     0.012 A 
ENDBRANCH   9  14
ENDBRANCH   7   8
ENDBRANCH   6   7
ENDBRANCH   3   6
BRANCH   2  20
HETATM   20  C   UNL     1      42.790 -15.824   4.531  1.00  0.00     0.159 C 
BRANCH  20  21
HETATM   21  C   UNL     1      41.291 -15.775   4.445  1.00  0.00    -0.017 C 
HETATM   22  C   UNL     1      40.524 -14.842   3.866  1.00  0.00     0.008 C 
ENDBRANCH  20  21
ENDBRANCH   2  20
BRANCH   1  23
HETATM   23  S   UNL     1      43.703 -13.617   6.771  1.00  0.00    -0.081 SA
BRANCH  23  24
HETATM   24  C   UNL     1      45.110 -13.245   7.847  1.00  0.00     0.185 C 
BRANCH  24  25
HETATM   25  C   UNL     1      44.867 -12.278   8.996  1.00  0.00     0.226 C 
HETATM   26  N   UNL     1      43.980 -12.636   9.979  1.00  0.00    -0.365 N 
HETATM   27  C   UNL     1      43.560 -11.702  10.992  1.00  0.00     0.149 C 
HETATM   28  H   UNL     1      43.368 -13.431   9.807  1.00  0.00     0.161 HD
HETATM   29  O   UNL     1      45.428 -11.178   8.993  1.00  0.00    -0.273 OA
ENDBRANCH  24  25
ENDBRANCH  23  24
ENDBRANCH   1  23
TORSDOF 9
ENDMDL
MODEL 2
REMARK VINA RESULT:      -8.2      1.539      3.666
REMARK  9 active torsions:
REMARK  status: ('A' for Active; 'I' for Inactive)
REMARK       I    between atoms: N_2  and  C_3 
REMARK    1  A    between atoms: C_3  and  C_4 
REMARK    2  A    between atoms: C_4  and  S_5 
REMARK    3  A    between atoms: S_5  and  C_6 
REMARK    4  A    between atoms: N_7  and  C_8 
REMARK    5  A    between atoms: C_8  and  C_9 
REMARK    6  A    between atoms: C_11  and  C_12 
REMARK    7  A    between atoms: C_12  and  O_13 
REMARK    8  A    between atoms: O_13  and  C_14 
REMARK    9  A    between atoms: C_15  and  C_16 
ROOT
HETATM    1  C   UNL     1      43.820 -14.911   6.902  1.00  0.00     0.192 A 
HETATM    2  N   UNL     1      42.790 -14.720   6.021  1.00  0.00    -0.306 N 
HETATM    3  C   UNL     1      42.028 -15.869   6.103  1.00  0.00     0.155 A 
HETATM    4  N   UNL     1      42.549 -16.657   7.026  1.00  0.00    -0.132 NA
HETATM    5  N   UNL     1      43.677 -16.058   7.520  1.00  0.00    -0.123 NA
ENDROOT
BRANCH   3   6
HETATM    6  C   UNL     1      40.827 -16.177   5.277  1.00  0.00     0.256 C 
BRANCH   6   7
HETATM    7  O   UNL     1      41.142 -17.358   4.535  1.00  0.00    -0.343 OA
BRANCH   7   8
HETATM    8  C   UNL     1      41.314 -17.082   3.202  1.00  0.00     0.080 A 
HETATM    9  C   UNL     1      42.328 -17.715   2.456  1.00  0.00     0.007 A 
HETATM   10  C   UNL     1      42.474 -17.314   1.110  1.00  0.00     0.015 A 
HETATM   11  C   UNL     1      41.655 -16.335   0.539  1.00  0.00     0.001 A 
HETATM   12  C   UNL     1      40.674 -15.716   1.305  1.00  0.00     0.003 A 
HETATM   13  C   UNL     1      40.511 -16.079   2.639  1.00  0.00     0.037 A 
BRANCH   9  14
HETATM   14  C   UNL     1      43.235 -18.752   3.004  1.00  0.00    -0.023 A 
HETATM   15  C   UNL     1      43.510 -19.929   2.280  1.00  0.00     0.012 A 
HETATM   16  C   UNL     1      44.399 -20.895   2.762  1.00  0.00     0.001 A 
HETATM   17  C   UNL     1      45.028 -20.710   3.989  1.00  0.00     0.000 A 
HETATM   18  C   UNL     1      44.765 -19.561   4.731  1.00  0.00     0.001 A 
HETATM   19  C   UNL     1      43.883 -18.592   4.241  1.00  0.00     0.012 A 
ENDBRANCH   9  14
ENDBRANCH   7   8
ENDBRANCH   6   7
ENDBRANCH   3   6
BRANCH   2  20
HETATM   20  C   UNL     1      42.479 -13.513   5.275  1.00  0.00     0.159 C 
BRANCH  20  21
HETATM   21  C   UNL     1      42.853 -13.507   3.820  1.00  0.00    -0.017 C 
HETATM   22  C   UNL     1      43.735 -14.292   3.188  1.00  0.00     0.008 C 
ENDBRANCH  20  21
ENDBRANCH   2  20
BRANCH   1  23
HETATM   23  S   UNL     1      45.122 -13.815   7.187  1.00  0.00    -0.081 SA
BRANCH  23  24
HETATM   24  C   UNL     1      44.270 -12.517   8.117  1.00  0.00     0.185 C 
BRANCH  24  25
HETATM   25  C   UNL     1      44.481 -12.493   9.623  1.00  0.00     0.226 C 
HETATM   26  N   UNL     1      43.432 -12.124  10.426  1.00  0.00    -0.365 N 
HETATM   27  C   UNL     1      43.607 -11.898  11.838  1.00  0.00     0.149 C 
HETATM   28  H   UNL     1      42.624 -11.686   9.990  1.00  0.00     0.161 HD
HETATM   29  O   UNL     1      45.595 -12.752  10.084  1.00  0.00    -0.273 OA
ENDBRANCH  24  25
ENDBRANCH  23  24
ENDBRANCH   1  23
TORSDOF 9
ENDMDL
MODEL 3
REMARK VINA RESULT:      -8.1      2.290      4.076
REMARK  9 active torsions:
REMARK  status: ('A' for Active; 'I' for Inactive)
REMARK       I    between atoms: N_2  and  C_3 
REMARK    1  A    between atoms: C_3  and  C_4 
REMARK    2  A    between atoms: C_4  and  S_5 
REMARK    3  A    between atoms: S_5  and  C_6 
REMARK    4  A    between atoms: N_7  and  C_8 
REMARK    5  A    between atoms: C_8  and  C_9 
REMARK    6  A    between atoms: C_11  and  C_12 
REMARK    7  A    between atoms: C_12  and  O_13 
REMARK    8  A    between atoms: O_13  and  C_14 
REMARK    9  A    between atoms: C_15  and  C_16 
ROOT
HETATM    1  C   UNL     1      40.944 -15.733   4.863  1.00  0.00     0.192 A 
HETATM    2  N   UNL     1      41.299 -16.090   3.591  1.00  0.00    -0.306 N 
HETATM    3  C   UNL     1      41.721 -17.401   3.688  1.00  0.00     0.155 A 
HETATM    4  N   UNL     1      41.561 -17.806   4.935  1.00  0.00    -0.132 NA
HETATM    5  N   UNL     1      41.081 -16.755   5.672  1.00  0.00    -0.123 NA
ENDROOT
BRANCH   3   6
HETATM    6  C   UNL     1      42.280 -18.220   2.576  1.00  0.00     0.256 C 
BRANCH   6   7
HETATM    7  O   UNL     1      43.651 -18.459   2.903  1.00  0.00    -0.343 OA
BRANCH   7   8
HETATM    8  C   UNL     1      43.929 -19.802   2.947  1.00  0.00     0.080 A 
HETATM    9  C   UNL     1      44.319 -20.422   4.151  1.00  0.00     0.007 A 
HETATM   10  C   UNL     1      44.653 -21.793   4.084  1.00  0.00     0.015 A 
HETATM   11  C   UNL     1      44.603 -22.506   2.882  1.00  0.00     0.001 A 
HETATM   12  C   UNL     1      44.232 -21.862   1.707  1.00  0.00     0.003 A 
HETATM   13  C   UNL     1      43.907 -20.509   1.736  1.00  0.00     0.037 A 
BRANCH   9  14
HETATM   14  C   UNL     1      44.401 -19.721   5.455  1.00  0.00    -0.023 A 
HETATM   15  C   UNL     1      45.120 -18.516   5.584  1.00  0.00     0.012 A 
HETATM   16  C   UNL     1      45.167 -17.817   6.795  1.00  0.00     0.001 A 
HETATM   17  C   UNL     1      44.504 -18.316   7.911  1.00  0.00     0.000 A 
HETATM   18  C   UNL     1      43.796 -19.510   7.814  1.00  0.00     0.001 A 
HETATM   19  C   UNL     1      43.741 -20.201   6.599  1.00  0.00     0.012 A 
ENDBRANCH   9  14
ENDBRANCH   7   8
ENDBRANCH   6   7
ENDBRANCH   3   6
BRANCH   2  20
HETATM   20  C   UNL     1      41.126 -15.312   2.376  1.00  0.00     0.159 C 
BRANCH  20  21
HETATM   21  C   UNL     1      39.839 -15.511   1.628  1.00  0.00    -0.017 C 
HETATM   22  C   UNL     1      38.704 -14.807   1.730  1.00  0.00     0.008 C 
ENDBRANCH  20  21
ENDBRANCH   2  20
BRANCH   1  23
HETATM   23  S   UNL     1      40.384 -14.178   5.357  1.00  0.00    -0.081 SA
BRANCH  23  24
HETATM   24  C   UNL     1      41.801 -13.149   4.900  1.00  0.00     0.185 C 
BRANCH  24  25
HETATM   25  C   UNL     1      43.170 -13.599   5.387  1.00  0.00     0.226 C 
HETATM   26  N   UNL     1      43.343 -13.840   6.726  1.00  0.00    -0.365 N 
HETATM   27  C   UNL     1      44.648 -14.086   7.284  1.00  0.00     0.149 C 
HETATM   28  H   UNL     1      42.624 -13.517   7.369  1.00  0.00     0.161 HD
HETATM   29  O   UNL     1      44.101 -13.688   4.582  1.00  0.00    -0.273 OA
ENDBRANCH  24  25
ENDBRANCH  23  24
ENDBRANCH   1  23
TORSDOF 9
ENDMDL
MODEL 4
REMARK VINA RESULT:      -7.9      3.545      6.295
REMARK  9 active torsions:
REMARK  status: ('A' for Active; 'I' for Inactive)
REMARK       I    between atoms: N_2  and  C_3 
REMARK    1  A    between atoms: C_3  and  C_4 
REMARK    2  A    between atoms: C_4  and  S_5 
REMARK    3  A    between atoms: S_5  and  C_6 
REMARK    4  A    between atoms: N_7  and  C_8 
REMARK    5  A    between atoms: C_8  and  C_9 
REMARK    6  A    between atoms: C_11  and  C_12 
REMARK    7  A    between atoms: C_12  and  O_13 
REMARK    8  A    between atoms: O_13  and  C_14 
REMARK    9  A    between atoms: C_15  and  C_16 
ROOT
HETATM    1  C   UNL     1      42.011 -13.440   2.594  1.00  0.00     0.192 A 
HETATM    2  N   UNL     1      41.103 -14.162   3.318  1.00  0.00    -0.306 N 
HETATM    3  C   UNL     1      41.744 -14.462   4.504  1.00  0.00     0.155 A 
HETATM    4  N   UNL     1      42.935 -13.893   4.497  1.00  0.00    -0.132 NA
HETATM    5  N   UNL     1      43.104 -13.259   3.294  1.00  0.00    -0.123 NA
ENDROOT
BRANCH   3   6
HETATM    6  C   UNL     1      41.191 -15.303   5.604  1.00  0.00     0.256 C 
BRANCH   6   7
HETATM    7  O   UNL     1      41.440 -16.662   5.233  1.00  0.00    -0.343 OA
BRANCH   7   8
HETATM    8  C   UNL     1      42.523 -17.173   5.903  1.00  0.00     0.080 A 
HETATM    9  C   UNL     1      43.565 -17.820   5.209  1.00  0.00     0.007 A 
HETATM   10  C   UNL     1      44.602 -18.376   5.989  1.00  0.00     0.015 A 
HETATM   11  C   UNL     1      44.600 -18.294   7.385  1.00  0.00     0.001 A 
HETATM   12  C   UNL     1      43.549 -17.665   8.043  1.00  0.00     0.003 A 
HETATM   13  C   UNL     1      42.505 -17.116   7.304  1.00  0.00     0.037 A 
BRANCH   9  14
HETATM   14  C   UNL     1      43.620 -17.949   3.733  1.00  0.00    -0.023 A 
HETATM   15  C   UNL     1      43.358 -19.183   3.104  1.00  0.00     0.012 A 
HETATM   16  C   UNL     1      43.360 -19.310   1.711  1.00  0.00     0.001 A 
HETATM   17  C   UNL     1      43.636 -18.205   0.913  1.00  0.00     0.000 A 
HETATM   18  C   UNL     1      43.910 -16.977   1.509  1.00  0.00     0.001 A 
HETATM   19  C   UNL     1      43.897 -16.850   2.902  1.00  0.00     0.012 A 
ENDBRANCH   9  14
ENDBRANCH   7   8
ENDBRANCH   6   7
ENDBRANCH   3   6
BRANCH   2  20
HETATM   20  C   UNL     1      39.714 -14.425   2.981  1.00  0.00     0.159 C 
BRANCH  20  21
HETATM   21  C   UNL     1      39.442 -15.667   2.180  1.00  0.00    -0.017 C 
HETATM   22  C   UNL     1      40.215 -16.753   2.045  1.00  0.00     0.008 C 
ENDBRANCH  20  21
ENDBRANCH   2  20
BRANCH   1  23
HETATM   23  S   UNL     1      41.776 -12.832   0.997  1.00  0.00    -0.081 SA
BRANCH  23  24
HETATM   24  C   UNL     1      42.048 -14.334   0.023  1.00  0.00     0.185 C 
BRANCH  24  25
HETATM   25  C   UNL     1      40.992 -14.688  -1.013  1.00  0.00     0.226 C 
HETATM   26  N   UNL     1      41.307 -15.603  -1.985  1.00  0.00    -0.365 N 
HETATM   27  C   UNL     1      40.431 -15.848  -3.102  1.00  0.00     0.149 C 
HETATM   28  H   UNL     1      42.285 -15.857  -2.106  1.00  0.00     0.161 HD
HETATM   29  O   UNL     1      39.901 -14.111  -0.990  1.00  0.00    -0.273 OA
ENDBRANCH  24  25
ENDBRANCH  23  24
ENDBRANCH   1  23
TORSDOF 9
ENDMDL
MODEL 5
REMARK VINA RESULT:      -7.8      2.643      4.695
REMARK  9 active torsions:
REMARK  status: ('A' for Active; 'I' for Inactive)
REMARK       I    between atoms: N_2  and  C_3 
REMARK    1  A    between atoms: C_3  and  C_4 
REMARK    2  A    between atoms: C_4  and  S_5 
REMARK    3  A    between atoms: S_5  and  C_6 
REMARK    4  A    between atoms: N_7  and  C_8 
REMARK    5  A    between atoms: C_8  and  C_9 
REMARK    6  A    between atoms: C_11  and  C_12 
REMARK    7  A    between atoms: C_12  and  O_13 
REMARK    8  A    between atoms: O_13  and  C_14 
REMARK    9  A    between atoms: C_15  and  C_16 
ROOT
HETATM    1  C   UNL     1      41.309 -15.352   2.399  1.00  0.00     0.192 A 
HETATM    2  N   UNL     1      41.473 -16.651   2.795  1.00  0.00    -0.306 N 
HETATM    3  C   UNL     1      42.311 -17.212   1.852  1.00  0.00     0.155 A 
HETATM    4  N   UNL     1      42.667 -16.276   0.991  1.00  0.00    -0.132 NA
HETATM    5  N   UNL     1      42.030 -15.112   1.332  1.00  0.00    -0.123 NA
ENDROOT
BRANCH   3   6
HETATM    6  C   UNL     1      42.733 -18.641   1.803  1.00  0.00     0.256 C 
BRANCH   6   7
HETATM    7  O   UNL     1      43.659 -18.823   2.878  1.00  0.00    -0.343 OA
BRANCH   7   8
HETATM    8  C   UNL     1      44.005 -20.143   3.023  1.00  0.00     0.080 A 
HETATM    9  C   UNL     1      44.416 -20.651   4.272  1.00  0.00     0.007 A 
HETATM   10  C   UNL     1      44.820 -22.003   4.309  1.00  0.00     0.015 A 
HETATM   11  C   UNL     1      44.817 -22.805   3.163  1.00  0.00     0.001 A 
HETATM   12  C   UNL     1      44.424 -22.271   1.941  1.00  0.00     0.003 A 
HETATM   13  C   UNL     1      44.030 -20.938   1.868  1.00  0.00     0.037 A 
BRANCH   9  14
HETATM   14  C   UNL     1      44.451 -19.851   5.520  1.00  0.00    -0.023 A 
HETATM   15  C   UNL     1      45.188 -18.652   5.591  1.00  0.00     0.012 A 
HETATM   16  C   UNL     1      45.193 -17.862   6.745  1.00  0.00     0.001 A 
HETATM   17  C   UNL     1      44.466 -18.260   7.862  1.00  0.00     0.000 A 
HETATM   18  C   UNL     1      43.738 -19.446   7.823  1.00  0.00     0.001 A 
HETATM   19  C   UNL     1      43.726 -20.228   6.663  1.00  0.00     0.012 A 
ENDBRANCH   9  14
ENDBRANCH   7   8
ENDBRANCH   6   7
ENDBRANCH   3   6
BRANCH   2  20
HETATM   20  C   UNL     1      40.995 -17.267   4.021  1.00  0.00     0.159 C 
BRANCH  20  21
HETATM   21  C   UNL     1      41.821 -17.036   5.255  1.00  0.00    -0.017 C 
HETATM   22  C   UNL     1      41.412 -16.617   6.459  1.00  0.00     0.008 C 
ENDBRANCH  20  21
ENDBRANCH   2  20
BRANCH   1  23
HETATM   23  S   UNL     1      40.315 -14.176   3.178  1.00  0.00    -0.081 SA
BRANCH  23  24
HETATM   24  C   UNL     1      41.535 -12.886   3.532  1.00  0.00     0.185 C 
BRANCH  24  25
HETATM   25  C   UNL     1      42.817 -13.317   4.227  1.00  0.00     0.226 C 
HETATM   26  N   UNL     1      42.781 -13.565   5.575  1.00  0.00    -0.365 N 
HETATM   27  C   UNL     1      43.985 -13.793   6.332  1.00  0.00     0.149 C 
HETATM   28  H   UNL     1      41.963 -13.258   6.099  1.00  0.00     0.161 HD
HETATM   29  O   UNL     1      43.865 -13.384   3.579  1.00  0.00    -0.273 OA
ENDBRANCH  24  25
ENDBRANCH  23  24
ENDBRANCH   1  23
TORSDOF 9
ENDMDL
MODEL 6
REMARK VINA RESULT:      -7.7      3.886      6.477
REMARK  9 active torsions:
REMARK  status: ('A' for Active; 'I' for Inactive)
REMARK       I    between atoms: N_2  and  C_3 
REMARK    1  A    between atoms: C_3  and  C_4 
REMARK    2  A    between atoms: C_4  and  S_5 
REMARK    3  A    between atoms: S_5  and  C_6 
REMARK    4  A    between atoms: N_7  and  C_8 
REMARK    5  A    between atoms: C_8  and  C_9 
REMARK    6  A    between atoms: C_11  and  C_12 
REMARK    7  A    between atoms: C_12  and  O_13 
REMARK    8  A    between atoms: O_13  and  C_14 
REMARK    9  A    between atoms: C_15  and  C_16 
ROOT
HETATM    1  C   UNL     1      41.336 -15.114   1.732  1.00  0.00     0.192 A 
HETATM    2  N   UNL     1      42.183 -15.839   2.524  1.00  0.00    -0.306 N 
HETATM    3  C   UNL     1      42.796 -16.735   1.671  1.00  0.00     0.155 A 
HETATM    4  N   UNL     1      42.377 -16.503   0.441  1.00  0.00    -0.132 NA
HETATM    5  N   UNL     1      41.455 -15.490   0.483  1.00  0.00    -0.123 NA
ENDROOT
BRANCH   3   6
HETATM    6  C   UNL     1      43.759 -17.799   2.073  1.00  0.00     0.256 C 
BRANCH   6   7
HETATM    7  O   UNL     1      43.051 -18.665   2.965  1.00  0.00    -0.343 OA
BRANCH   7   8
HETATM    8  C   UNL     1      43.576 -19.933   2.954  1.00  0.00     0.080 A 
HETATM    9  C   UNL     1      44.212 -20.464   4.094  1.00  0.00     0.007 A 
HETATM   10  C   UNL     1      44.783 -21.748   3.966  1.00  0.00     0.015 A 
HETATM   11  C   UNL     1      44.726 -22.465   2.766  1.00  0.00     0.001 A 
HETATM   12  C   UNL     1      44.107 -21.907   1.653  1.00  0.00     0.003 A 
HETATM   13  C   UNL     1      43.544 -20.638   1.742  1.00  0.00     0.037 A 
BRANCH   9  14
HETATM   14  C   UNL     1      44.314 -19.752   5.391  1.00  0.00    -0.023 A 
HETATM   15  C   UNL     1      43.667 -20.246   6.541  1.00  0.00     0.012 A 
HETATM   16  C   UNL     1      43.793 -19.613   7.782  1.00  0.00     0.001 A 
HETATM   17  C   UNL     1      44.563 -18.461   7.898  1.00  0.00     0.000 A 
HETATM   18  C   UNL     1      45.204 -17.945   6.776  1.00  0.00     0.001 A 
HETATM   19  C   UNL     1      45.085 -18.587   5.539  1.00  0.00     0.012 A 
ENDBRANCH   9  14
ENDBRANCH   7   8
ENDBRANCH   6   7
ENDBRANCH   3   6
BRANCH   2  20
HETATM   20  C   UNL     1      42.487 -15.615   3.927  1.00  0.00     0.159 C 
BRANCH  20  21
HETATM   21  C   UNL     1      41.537 -16.215   4.924  1.00  0.00    -0.017 C 
HETATM   22  C   UNL     1      41.822 -16.785   6.103  1.00  0.00     0.008 C 
ENDBRANCH  20  21
ENDBRANCH   2  20
BRANCH   1  23
HETATM   23  S   UNL     1      40.266 -13.872   2.269  1.00  0.00    -0.081 SA
BRANCH  23  24
HETATM   24  C   UNL     1      38.667 -14.575   1.793  1.00  0.00     0.185 C 
BRANCH  24  25
HETATM   25  C   UNL     1      38.029 -14.045   0.518  1.00  0.00     0.226 C 
HETATM   26  N   UNL     1      38.590 -14.384  -0.687  1.00  0.00    -0.365 N 
HETATM   27  C   UNL     1      38.158 -13.773  -1.917  1.00  0.00     0.149 C 
HETATM   28  H   UNL     1      39.519 -14.800  -0.684  1.00  0.00     0.161 HD
HETATM   29  O   UNL     1      37.060 -13.284   0.595  1.00  0.00    -0.273 OA
ENDBRANCH  24  25
ENDBRANCH  23  24
ENDBRANCH   1  23
TORSDOF 9
ENDMDL
MODEL 7
REMARK VINA RESULT:      -7.6      3.319      5.017
REMARK  9 active torsions:
REMARK  status: ('A' for Active; 'I' for Inactive)
REMARK       I    between atoms: N_2  and  C_3 
REMARK    1  A    between atoms: C_3  and  C_4 
REMARK    2  A    between atoms: C_4  and  S_5 
REMARK    3  A    between atoms: S_5  and  C_6 
REMARK    4  A    between atoms: N_7  and  C_8 
REMARK    5  A    between atoms: C_8  and  C_9 
REMARK    6  A    between atoms: C_11  and  C_12 
REMARK    7  A    between atoms: C_12  and  O_13 
REMARK    8  A    between atoms: O_13  and  C_14 
REMARK    9  A    between atoms: C_15  and  C_16 
ROOT
HETATM    1  C   UNL     1      41.464 -14.995   1.561  1.00  0.00     0.192 A 
HETATM    2  N   UNL     1      42.550 -15.578   2.153  1.00  0.00    -0.306 N 
HETATM    3  C   UNL     1      42.706 -16.788   1.506  1.00  0.00     0.155 A 
HETATM    4  N   UNL     1      41.802 -16.876   0.547  1.00  0.00    -0.132 NA
HETATM    5  N   UNL     1      41.018 -15.753   0.589  1.00  0.00    -0.123 NA
ENDROOT
BRANCH   3   6
HETATM    6  C   UNL     1      43.718 -17.831   1.841  1.00  0.00     0.256 C 
BRANCH   6   7
HETATM    7  O   UNL     1      43.171 -18.584   2.928  1.00  0.00    -0.343 OA
BRANCH   7   8
HETATM    8  C   UNL     1      43.648 -19.871   2.934  1.00  0.00     0.080 A 
HETATM    9  C   UNL     1      44.251 -20.414   4.086  1.00  0.00     0.007 A 
HETATM   10  C   UNL     1      44.775 -21.721   3.976  1.00  0.00     0.015 A 
HETATM   11  C   UNL     1      44.703 -22.446   2.782  1.00  0.00     0.001 A 
HETATM   12  C   UNL     1      44.118 -21.876   1.657  1.00  0.00     0.003 A 
HETATM   13  C   UNL     1      43.602 -20.586   1.729  1.00  0.00     0.037 A 
BRANCH   9  14
HETATM   14  C   UNL     1      44.367 -19.694   5.377  1.00  0.00    -0.023 A 
HETATM   15  C   UNL     1      45.172 -18.544   5.495  1.00  0.00     0.012 A 
HETATM   16  C   UNL     1      45.255 -17.827   6.693  1.00  0.00     0.001 A 
HETATM   17  C   UNL     1      44.540 -18.252   7.808  1.00  0.00     0.000 A 
HETATM   18  C   UNL     1      43.746 -19.392   7.723  1.00  0.00     0.001 A 
HETATM   19  C   UNL     1      43.657 -20.101   6.520  1.00  0.00     0.012 A 
ENDBRANCH   9  14
ENDBRANCH   7   8
ENDBRANCH   6   7
ENDBRANCH   3   6
BRANCH   2  20
HETATM   20  C   UNL     1      43.439 -14.992   3.141  1.00  0.00     0.159 C 
BRANCH  20  21
HETATM   21  C   UNL     1      43.243 -15.429   4.565  1.00  0.00    -0.017 C 
HETATM   22  C   UNL     1      42.248 -16.166   5.076  1.00  0.00     0.008 C 
ENDBRANCH  20  21
ENDBRANCH   2  20
BRANCH   1  23
HETATM   23  S   UNL     1      40.768 -13.478   1.999  1.00  0.00    -0.081 SA
BRANCH  23  24
HETATM   24  C   UNL     1      39.840 -13.949   3.480  1.00  0.00     0.185 C 
BRANCH  24  25
HETATM   25  C   UNL     1      40.117 -13.160   4.751  1.00  0.00     0.226 C 
HETATM   26  N   UNL     1      39.289 -13.342   5.829  1.00  0.00    -0.365 N 
HETATM   27  C   UNL     1      39.373 -12.500   6.994  1.00  0.00     0.149 C 
HETATM   28  H   UNL     1      38.409 -13.832   5.682  1.00  0.00     0.161 HD
HETATM   29  O   UNL     1      41.040 -12.341   4.768  1.00  0.00    -0.273 OA
ENDBRANCH  24  25
ENDBRANCH  23  24
ENDBRANCH   1  23
TORSDOF 9
ENDMDL
MODEL 8
REMARK VINA RESULT:      -7.6      3.951      7.273
REMARK  9 active torsions:
REMARK  status: ('A' for Active; 'I' for Inactive)
REMARK       I    between atoms: N_2  and  C_3 
REMARK    1  A    between atoms: C_3  and  C_4 
REMARK    2  A    between atoms: C_4  and  S_5 
REMARK    3  A    between atoms: S_5  and  C_6 
REMARK    4  A    between atoms: N_7  and  C_8 
REMARK    5  A    between atoms: C_8  and  C_9 
REMARK    6  A    between atoms: C_11  and  C_12 
REMARK    7  A    between atoms: C_12  and  O_13 
REMARK    8  A    between atoms: O_13  and  C_14 
REMARK    9  A    between atoms: C_15  and  C_16 
ROOT
HETATM    1  C   UNL     1      41.285 -15.123   0.892  1.00  0.00     0.192 A 
HETATM    2  N   UNL     1      41.186 -15.095   2.257  1.00  0.00    -0.306 N 
HETATM    3  C   UNL     1      41.242 -16.417   2.649  1.00  0.00     0.155 A 
HETATM    4  N   UNL     1      41.428 -17.169   1.580  1.00  0.00    -0.132 NA
HETATM    5  N   UNL     1      41.447 -16.355   0.478  1.00  0.00    -0.123 NA
ENDROOT
BRANCH   3   6
HETATM    6  C   UNL     1      41.100 -16.917   4.046  1.00  0.00     0.256 C 
BRANCH   6   7
HETATM    7  O   UNL     1      41.901 -18.099   4.133  1.00  0.00    -0.343 OA
BRANCH   7   8
HETATM    8  C   UNL     1      42.994 -17.906   4.941  1.00  0.00     0.080 A 
HETATM    9  C   UNL     1      44.097 -18.781   4.888  1.00  0.00     0.007 A 
HETATM   10  C   UNL     1      45.143 -18.544   5.807  1.00  0.00     0.015 A 
HETATM   11  C   UNL     1      45.091 -17.494   6.728  1.00  0.00     0.001 A 
HETATM   12  C   UNL     1      43.981 -16.658   6.768  1.00  0.00     0.003 A 
HETATM   13  C   UNL     1      42.928 -16.870   5.884  1.00  0.00     0.037 A 
BRANCH   9  14
HETATM   14  C   UNL     1      44.208 -19.918   3.943  1.00  0.00    -0.023 A 
HETATM   15  C   UNL     1      44.624 -21.189   4.385  1.00  0.00     0.012 A 
HETATM   16  C   UNL     1      44.688 -22.283   3.515  1.00  0.00     0.001 A 
HETATM   17  C   UNL     1      44.347 -22.126   2.176  1.00  0.00     0.000 A 
HETATM   18  C   UNL     1      43.944 -20.878   1.710  1.00  0.00     0.001 A 
HETATM   19  C   UNL     1      43.870 -19.789   2.585  1.00  0.00     0.012 A 
ENDBRANCH   9  14
ENDBRANCH   7   8
ENDBRANCH   6   7
ENDBRANCH   3   6
BRANCH   2  20
HETATM   20  C   UNL     1      41.177 -13.924   3.117  1.00  0.00     0.159 C 
BRANCH  20  21
HETATM   21  C   UNL     1      42.506 -13.472   3.650  1.00  0.00    -0.017 C 
HETATM   22  C   UNL     1      43.708 -14.036   3.468  1.00  0.00     0.008 C 
ENDBRANCH  20  21
ENDBRANCH   2  20
BRANCH   1  23
HETATM   23  S   UNL     1      41.223 -13.752  -0.153  1.00  0.00    -0.081 SA
BRANCH  23  24
HETATM   24  C   UNL     1      41.341 -14.557  -1.770  1.00  0.00     0.185 C 
BRANCH  24  25
HETATM   25  C   UNL     1      40.036 -14.832  -2.503  1.00  0.00     0.226 C 
HETATM   26  N   UNL     1      39.910 -16.007  -3.199  1.00  0.00    -0.365 N 
HETATM   27  C   UNL     1      38.786 -16.253  -4.065  1.00  0.00     0.149 C 
HETATM   28  H   UNL     1      40.751 -16.555  -3.373  1.00  0.00     0.161 HD
HETATM   29  O   UNL     1      39.147 -13.977  -2.500  1.00  0.00    -0.273 OA
ENDBRANCH  24  25
ENDBRANCH  23  24
ENDBRANCH   1  23
TORSDOF 9
ENDMDL
MODEL 9
REMARK VINA RESULT:      -7.5      4.029      6.313
REMARK  9 active torsions:
REMARK  status: ('A' for Active; 'I' for Inactive)
REMARK       I    between atoms: N_2  and  C_3 
REMARK    1  A    between atoms: C_3  and  C_4 
REMARK    2  A    between atoms: C_4  and  S_5 
REMARK    3  A    between atoms: S_5  and  C_6 
REMARK    4  A    between atoms: N_7  and  C_8 
REMARK    5  A    between atoms: C_8  and  C_9 
REMARK    6  A    between atoms: C_11  and  C_12 
REMARK    7  A    between atoms: C_12  and  O_13 
REMARK    8  A    between atoms: O_13  and  C_14 
REMARK    9  A    between atoms: C_15  and  C_16 
ROOT
HETATM    1  C   UNL     1      40.633 -14.736   0.611  1.00  0.00     0.192 A 
HETATM    2  N   UNL     1      40.766 -15.609   1.655  1.00  0.00    -0.306 N 
HETATM    3  C   UNL     1      41.359 -16.732   1.113  1.00  0.00     0.155 A 
HETATM    4  N   UNL     1      41.615 -16.501  -0.162  1.00  0.00    -0.132 NA
HETATM    5  N   UNL     1      41.152 -15.251  -0.476  1.00  0.00    -0.123 NA
ENDROOT
BRANCH   3   6
HETATM    6  C   UNL     1      41.648 -18.001   1.839  1.00  0.00     0.256 C 
BRANCH   6   7
HETATM    7  O   UNL     1      42.968 -17.866   2.372  1.00  0.00    -0.343 OA
BRANCH   7   8
HETATM    8  C   UNL     1      43.469 -19.076   2.782  1.00  0.00     0.080 A 
HETATM    9  C   UNL     1      43.804 -19.301   4.133  1.00  0.00     0.007 A 
HETATM   10  C   UNL     1      44.378 -20.552   4.447  1.00  0.00     0.015 A 
HETATM   11  C   UNL     1      44.607 -21.525   3.469  1.00  0.00     0.001 A 
HETATM   12  C   UNL     1      44.283 -21.267   2.142  1.00  0.00     0.003 A 
HETATM   13  C   UNL     1      43.725 -20.040   1.796  1.00  0.00     0.037 A 
BRANCH   9  14
HETATM   14  C   UNL     1      43.595 -18.308   5.214  1.00  0.00    -0.023 A 
HETATM   15  C   UNL     1      44.686 -17.635   5.798  1.00  0.00     0.012 A 
HETATM   16  C   UNL     1      44.502 -16.662   6.786  1.00  0.00     0.001 A 
HETATM   17  C   UNL     1      43.218 -16.346   7.220  1.00  0.00     0.000 A 
HETATM   18  C   UNL     1      42.124 -17.005   6.668  1.00  0.00     0.001 A 
HETATM   19  C   UNL     1      42.310 -17.970   5.672  1.00  0.00     0.012 A 
ENDBRANCH   9  14
ENDBRANCH   7   8
ENDBRANCH   6   7
ENDBRANCH   3   6
BRANCH   2  20
HETATM   20  C   UNL     1      40.486 -15.357   3.058  1.00  0.00     0.159 C 
BRANCH  20  21
HETATM   21  C   UNL     1      41.596 -14.744   3.865  1.00  0.00    -0.017 C 
HETATM   22  C   UNL     1      42.904 -14.702   3.578  1.00  0.00     0.008 C 
ENDBRANCH  20  21
ENDBRANCH   2  20
BRANCH   1  23
HETATM   23  S   UNL     1      39.905 -13.173   0.688  1.00  0.00    -0.081 SA
BRANCH  23  24
HETATM   24  C   UNL     1      41.367 -12.133   0.935  1.00  0.00     0.185 C 
BRANCH  24  25
HETATM   25  C   UNL     1      42.187 -11.788  -0.299  1.00  0.00     0.226 C 
HETATM   26  N   UNL     1      41.803 -12.306  -1.509  1.00  0.00    -0.365 N 
HETATM   27  C   UNL     1      42.630 -12.177  -2.681  1.00  0.00     0.149 C 
HETATM   28  H   UNL     1      41.117 -13.058  -1.513  1.00  0.00     0.161 HD
HETATM   29  O   UNL     1      43.203 -11.098  -0.178  1.00  0.00    -0.273 OA
ENDBRANCH  24  25
ENDBRANCH  23  24
ENDBRANCH   1  23
TORSDOF 9
ENDMDL
MODEL 10
REMARK VINA RESULT:      -7.2      3.433      6.436
REMARK  9 active torsions:
REMARK  status: ('A' for Active; 'I' for Inactive)
REMARK       I    between atoms: N_2  and  C_3 
REMARK    1  A    between atoms: C_3  and  C_4 
REMARK    2  A    between atoms: C_4  and  S_5 
REMARK    3  A    between atoms: S_5  and  C_6 
REMARK    4  A    between atoms: N_7  and  C_8 
REMARK    5  A    between atoms: C_8  and  C_9 
REMARK    6  A    between atoms: C_11  and  C_12 
REMARK    7  A    between atoms: C_12  and  O_13 
REMARK    8  A    between atoms: O_13  and  C_14 
REMARK    9  A    between atoms: C_15  and  C_16 
ROOT
HETATM    1  C   UNL     1      40.498 -14.243   2.526  1.00  0.00     0.192 A 
HETATM    2  N   UNL     1      40.505 -15.594   2.736  1.00  0.00    -0.306 N 
HETATM    3  C   UNL     1      40.896 -15.752   4.051  1.00  0.00     0.155 A 
HETATM    4  N   UNL     1      41.046 -14.557   4.595  1.00  0.00    -0.132 NA
HETATM    5  N   UNL     1      40.803 -13.612   3.633  1.00  0.00    -0.123 NA
ENDROOT
BRANCH   3   6
HETATM    6  C   UNL     1      41.127 -17.053   4.741  1.00  0.00     0.256 C 
BRANCH   6   7
HETATM    7  O   UNL     1      42.259 -17.650   4.102  1.00  0.00    -0.343 OA
BRANCH   7   8
HETATM    8  C   UNL     1      43.337 -17.713   4.950  1.00  0.00     0.080 A 
HETATM    9  C   UNL     1      44.272 -18.763   4.856  1.00  0.00     0.007 A 
HETATM   10  C   UNL     1      45.307 -18.783   5.816  1.00  0.00     0.015 A 
HETATM   11  C   UNL     1      45.404 -17.810   6.816  1.00  0.00     0.001 A 
HETATM   12  C   UNL     1      44.456 -16.796   6.894  1.00  0.00     0.003 A 
HETATM   13  C   UNL     1      43.416 -16.754   5.970  1.00  0.00     0.037 A 
BRANCH   9  14
HETATM   14  C   UNL     1      44.219 -19.829   3.827  1.00  0.00    -0.023 A 
HETATM   15  C   UNL     1      44.611 -21.148   4.130  1.00  0.00     0.012 A 
HETATM   16  C   UNL     1      44.522 -22.174   3.184  1.00  0.00     0.001 A 
HETATM   17  C   UNL     1      44.048 -21.901   1.905  1.00  0.00     0.000 A 
HETATM   18  C   UNL     1      43.665 -20.604   1.575  1.00  0.00     0.001 A 
HETATM   19  C   UNL     1      43.744 -19.582   2.527  1.00  0.00     0.012 A 
ENDBRANCH   9  14
ENDBRANCH   7   8
ENDBRANCH   6   7
ENDBRANCH   3   6
BRANCH   2  20
HETATM   20  C   UNL     1      40.054 -16.632   1.826  1.00  0.00     0.159 C 
BRANCH  20  21
HETATM   21  C   UNL     1      41.107 -17.283   0.974  1.00  0.00    -0.017 C 
HETATM   22  C   UNL     1      42.326 -16.821   0.666  1.00  0.00     0.008 C 
ENDBRANCH  20  21
ENDBRANCH   2  20
BRANCH   1  23
HETATM   23  S   UNL     1      40.132 -13.455   1.035  1.00  0.00    -0.081 SA
BRANCH  23  24
HETATM   24  C   UNL     1      41.793 -13.245   0.349  1.00  0.00     0.185 C 
BRANCH  24  25
HETATM   25  C   UNL     1      41.914 -13.178  -1.166  1.00  0.00     0.226 C 
HETATM   26  N   UNL     1      41.162 -14.040  -1.923  1.00  0.00    -0.365 N 
HETATM   27  C   UNL     1      41.359 -14.164  -3.344  1.00  0.00     0.149 C 
HETATM   28  H   UNL     1      40.712 -14.824  -1.453  1.00  0.00     0.161 HD
HETATM   29  O   UNL     1      42.716 -12.393  -1.677  1.00  0.00    -0.273 OA
ENDBRANCH  24  25
ENDBRANCH  23  24
ENDBRANCH   1  23
TORSDOF 9
ENDMDL
