MODEL 1
REMARK VINA RESULT:      -9.8      0.000      0.000
REMARK  7 active torsions:
REMARK  status: ('A' for Active; 'I' for Inactive)
REMARK    1  A    between atoms: N_3  and  C_4 
REMARK    2  A    between atoms: C_12  and  C_13 
REMARK       I    between atoms: C_13  and  N_14 
REMARK    3  A    between atoms: N_14  and  C_15 
REMARK    4  A    between atoms: C_15  and  C_16 
REMARK    5  A    between atoms: C_17  and  C_18 
REMARK    6  A    between atoms: C_18  and  O_19 
REMARK    7  A    between atoms: O_19  and  C_20 
ROOT
HETATM    1  C   UNL     1      44.522 -12.831   8.009  1.00  0.00     0.255 C 
HETATM    2  N   UNL     1      43.653 -13.351   7.082  1.00  0.00    -0.346 N 
HETATM    3  O   UNL     1      45.698 -13.168   8.082  1.00  0.00    -0.268 OA
HETATM    4  H   UNL     1      42.665 -13.278   7.255  1.00  0.00     0.163 HD
ENDROOT
BRANCH   2   5
HETATM    5  C   UNL     1      44.090 -14.304   6.094  1.00  0.00     0.217 C 
BRANCH   5   6
HETATM    6  C   UNL     1      44.081 -15.666   6.633  1.00  0.00    -0.085 C 
HETATM    7  C   UNL     1      44.045 -16.809   7.005  1.00  0.00    -0.078 C 
BRANCH   7   8
HETATM    8  C   UNL     1      43.977 -18.230   7.375  1.00  0.00     0.269 C 
BRANCH   8   9
HETATM    9  O   UNL     1      43.067 -18.881   6.485  1.00  0.00    -0.337 OA
BRANCH   9  10
HETATM   10  C   UNL     1      43.700 -19.389   5.388  1.00  0.00     0.103 A 
HETATM   11  C   UNL     1      43.444 -18.868   4.134  1.00  0.00     0.109 A 
HETATM   12  C   UNL     1      43.984 -19.439   2.993  1.00  0.00    -0.019 A 
HETATM   13  O   UNL     1      42.648 -17.782   3.882  1.00  0.00    -0.337 OA
HETATM   14  C   UNL     1      43.481 -18.735   1.792  1.00  0.00     0.079 C 
HETATM   15  C   UNL     1      44.806 -20.551   3.071  1.00  0.00     0.010 A 
HETATM   16  C   UNL     1      42.760 -17.538   2.452  1.00  0.00     0.065 C 
HETATM   17  C   UNL     1      41.341 -17.374   1.902  1.00  0.00     0.046 C 
HETATM   18  C   UNL     1      43.548 -16.237   2.259  1.00  0.00     0.046 C 
HETATM   19  C   UNL     1      45.074 -21.091   4.332  1.00  0.00     0.003 A 
HETATM   20  C   UNL     1      44.513 -20.522   5.487  1.00  0.00     0.040 A 
ENDBRANCH   9  10
ENDBRANCH   8   9
ENDBRANCH   7   8
ENDBRANCH   5   6
ENDBRANCH   2   5
BRANCH   1  21
HETATM   21  C   UNL     1      43.973 -11.829   8.909  1.00  0.00     0.075 C 
HETATM   22  C   UNL     1      44.307 -11.484  10.219  1.00  0.00     0.050 C 
HETATM   23  C   UNL     1      45.463 -11.880  11.066  1.00  0.00     0.071 C 
HETATM   24  N   UNL     1      43.258 -10.672  10.665  1.00  0.00    -0.238 N 
HETATM   25  N   UNL     1      42.545 -10.194   9.614  1.00  0.00    -0.179 NA
HETATM   26  C   UNL     1      42.883 -10.989   8.603  1.00  0.00     0.158 C 
BRANCH  24  27
HETATM   27  C   UNL     1      42.828 -10.359  11.992  1.00  0.00     0.058 A 
HETATM   28  C   UNL     1      41.655 -10.952  12.486  1.00  0.00     0.031 A 
HETATM   29  C   UNL     1      41.232 -10.702  13.794  1.00  0.00     0.002 A 
HETATM   30  C   UNL     1      41.982  -9.873  14.625  1.00  0.00     0.000 A 
HETATM   31  C   UNL     1      43.161  -9.301  14.152  1.00  0.00     0.002 A 
HETATM   32  C   UNL     1      43.588  -9.546  12.843  1.00  0.00     0.031 A 
ENDBRANCH  24  27
ENDBRANCH   1  21
TORSDOF 7
ENDMDL
MODEL 2
REMARK VINA RESULT:      -9.6      0.952      2.805
REMARK  7 active torsions:
REMARK  status: ('A' for Active; 'I' for Inactive)
REMARK    1  A    between atoms: N_3  and  C_4 
REMARK    2  A    between atoms: C_12  and  C_13 
REMARK       I    between atoms: C_13  and  N_14 
REMARK    3  A    between atoms: N_14  and  C_15 
REMARK    4  A    between atoms: C_15  and  C_16 
REMARK    5  A    between atoms: C_17  and  C_18 
REMARK    6  A    between atoms: C_18  and  O_19 
REMARK    7  A    between atoms: O_19  and  C_20 
ROOT
HETATM    1  C   UNL     1      44.623 -12.783   7.950  1.00  0.00     0.255 C 
HETATM    2  N   UNL     1      43.736 -13.484   7.169  1.00  0.00    -0.346 N 
HETATM    3  O   UNL     1      45.837 -12.928   7.873  1.00  0.00    -0.268 OA
HETATM    4  H   UNL     1      42.780 -13.556   7.474  1.00  0.00     0.163 HD
ENDROOT
BRANCH   2   5
HETATM    5  C   UNL     1      44.191 -14.412   6.166  1.00  0.00     0.217 C 
BRANCH   5   6
HETATM    6  C   UNL     1      43.091 -14.825   5.291  1.00  0.00    -0.085 C 
HETATM    7  C   UNL     1      42.226 -15.235   4.564  1.00  0.00    -0.078 C 
BRANCH   7   8
HETATM    8  C   UNL     1      41.211 -15.816   3.673  1.00  0.00     0.269 C 
BRANCH   8   9
HETATM    9  O   UNL     1      41.054 -17.196   4.012  1.00  0.00    -0.337 OA
BRANCH   9  10
HETATM   10  C   UNL     1      42.059 -17.965   3.502  1.00  0.00     0.103 A 
HETATM   11  C   UNL     1      43.021 -18.498   4.340  1.00  0.00     0.109 A 
HETATM   12  C   UNL     1      44.114 -19.184   3.838  1.00  0.00    -0.019 A 
HETATM   13  O   UNL     1      43.013 -18.399   5.707  1.00  0.00    -0.337 OA
HETATM   14  C   UNL     1      45.019 -19.569   4.943  1.00  0.00     0.079 C 
HETATM   15  C   UNL     1      44.278 -19.366   2.474  1.00  0.00     0.010 A 
HETATM   16  C   UNL     1      44.145 -19.193   6.161  1.00  0.00     0.065 C 
HETATM   17  C   UNL     1      44.929 -18.340   7.163  1.00  0.00     0.046 C 
HETATM   18  C   UNL     1      43.593 -20.441   6.858  1.00  0.00     0.046 C 
HETATM   19  C   UNL     1      43.315 -18.833   1.613  1.00  0.00     0.003 A 
HETATM   20  C   UNL     1      42.216 -18.123   2.122  1.00  0.00     0.040 A 
ENDBRANCH   9  10
ENDBRANCH   8   9
ENDBRANCH   7   8
ENDBRANCH   5   6
ENDBRANCH   2   5
BRANCH   1  21
HETATM   21  C   UNL     1      44.039 -11.829   8.880  1.00  0.00     0.075 C 
HETATM   22  C   UNL     1      44.357 -11.520  10.204  1.00  0.00     0.050 C 
HETATM   23  C   UNL     1      45.520 -11.910  11.043  1.00  0.00     0.071 C 
HETATM   24  N   UNL     1      43.283 -10.755  10.671  1.00  0.00    -0.238 N 
HETATM   25  N   UNL     1      42.560 -10.262   9.632  1.00  0.00    -0.179 NA
HETATM   26  C   UNL     1      42.926 -11.012   8.596  1.00  0.00     0.158 C 
BRANCH  24  27
HETATM   27  C   UNL     1      42.836 -10.501  12.004  1.00  0.00     0.058 A 
HETATM   28  C   UNL     1      43.581  -9.633  12.820  1.00  0.00     0.031 A 
HETATM   29  C   UNL     1      43.146  -9.330  14.113  1.00  0.00     0.002 A 
HETATM   30  C   UNL     1      41.959  -9.874  14.597  1.00  0.00     0.000 A 
HETATM   31  C   UNL     1      41.200 -10.715  13.786  1.00  0.00     0.002 A 
HETATM   32  C   UNL     1      41.631 -11.023  12.492  1.00  0.00     0.031 A 
ENDBRANCH  24  27
ENDBRANCH   1  21
TORSDOF 7
ENDMDL
MODEL 3
REMARK VINA RESULT:      -9.4      5.618      8.227
REMARK  7 active torsions:
REMARK  status: ('A' for Active; 'I' for Inactive)
REMARK    1  A    between atoms: N_3  and  C_4 
REMARK    2  A    between atoms: C_12  and  C_13 
REMARK       I    between atoms: C_13  and  N_14 
REMARK    3  A    between atoms: N_14  and  C_15 
REMARK    4  A    between atoms: C_15  and  C_16 
REMARK    5  A    between atoms: C_17  and  C_18 
REMARK    6  A    between atoms: C_18  and  O_19 
REMARK    7  A    between atoms: O_19  and  C_20 
ROOT
HETATM    1  C   UNL     1      40.886 -14.511   4.668  1.00  0.00     0.255 C 
HETATM    2  N   UNL     1      41.181 -15.826   4.932  1.00  0.00    -0.346 N 
HETATM    3  O   UNL     1      40.397 -13.757   5.502  1.00  0.00    -0.268 OA
HETATM    4  H   UNL     1      41.286 -16.460   4.158  1.00  0.00     0.163 HD
ENDROOT
BRANCH   2   5
HETATM    5  C   UNL     1      40.974 -16.394   6.240  1.00  0.00     0.217 C 
BRANCH   5   6
HETATM    6  C   UNL     1      42.015 -17.372   6.562  1.00  0.00    -0.085 C 
HETATM    7  C   UNL     1      42.845 -18.218   6.764  1.00  0.00    -0.078 C 
BRANCH   7   8
HETATM    8  C   UNL     1      43.832 -19.294   6.934  1.00  0.00     0.269 C 
BRANCH   8   9
HETATM    9  O   UNL     1      44.864 -19.113   5.962  1.00  0.00    -0.337 OA
BRANCH   9  10
HETATM   10  C   UNL     1      44.727 -19.965   4.905  1.00  0.00     0.103 A 
HETATM   11  C   UNL     1      44.128 -19.533   3.737  1.00  0.00     0.109 A 
HETATM   12  C   UNL     1      43.872 -20.406   2.693  1.00  0.00    -0.019 A 
HETATM   13  O   UNL     1      43.721 -18.248   3.492  1.00  0.00    -0.337 OA
HETATM   14  C   UNL     1      43.155 -19.700   1.609  1.00  0.00     0.079 C 
HETATM   15  C   UNL     1      44.214 -21.746   2.782  1.00  0.00     0.010 A 
HETATM   16  C   UNL     1      43.256 -18.242   2.113  1.00  0.00     0.065 C 
HETATM   17  C   UNL     1      41.889 -17.553   2.094  1.00  0.00     0.046 C 
HETATM   18  C   UNL     1      44.259 -17.433   1.283  1.00  0.00     0.046 C 
HETATM   19  C   UNL     1      44.820 -22.200   3.957  1.00  0.00     0.003 A 
HETATM   20  C   UNL     1      45.064 -21.317   5.022  1.00  0.00     0.040 A 
ENDBRANCH   9  10
ENDBRANCH   8   9
ENDBRANCH   7   8
ENDBRANCH   5   6
ENDBRANCH   2   5
BRANCH   1  21
HETATM   21  C   UNL     1      41.203 -14.041   3.328  1.00  0.00     0.075 C 
HETATM   22  C   UNL     1      40.473 -14.086   2.139  1.00  0.00     0.050 C 
HETATM   23  C   UNL     1      39.053 -14.442   1.880  1.00  0.00     0.071 C 
HETATM   24  N   UNL     1      41.389 -13.761   1.133  1.00  0.00    -0.238 N 
HETATM   25  N   UNL     1      42.482 -13.151   1.661  1.00  0.00    -0.179 NA
HETATM   26  C   UNL     1      42.426 -13.448   2.956  1.00  0.00     0.158 C 
BRANCH  24  27
HETATM   27  C   UNL     1      41.360 -14.031  -0.270  1.00  0.00     0.058 A 
HETATM   28  C   UNL     1      41.707 -13.011  -1.170  1.00  0.00     0.031 A 
HETATM   29  C   UNL     1      41.732 -13.257  -2.545  1.00  0.00     0.002 A 
HETATM   30  C   UNL     1      41.427 -14.525  -3.033  1.00  0.00     0.000 A 
HETATM   31  C   UNL     1      41.106 -15.551  -2.147  1.00  0.00     0.002 A 
HETATM   32  C   UNL     1      41.079 -15.310  -0.770  1.00  0.00     0.031 A 
ENDBRANCH  24  27
ENDBRANCH   1  21
TORSDOF 7
ENDMDL
MODEL 4
REMARK VINA RESULT:      -9.3      2.802     10.061
REMARK  7 active torsions:
REMARK  status: ('A' for Active; 'I' for Inactive)
REMARK    1  A    between atoms: N_3  and  C_4 
REMARK    2  A    between atoms: C_12  and  C_13 
REMARK       I    between atoms: C_13  and  N_14 
REMARK    3  A    between atoms: N_14  and  C_15 
REMARK    4  A    between atoms: C_15  and  C_16 
REMARK    5  A    between atoms: C_17  and  C_18 
REMARK    6  A    between atoms: C_18  and  O_19 
REMARK    7  A    between atoms: O_19  and  C_20 
ROOT
HETATM    1  C   UNL     1      40.224 -14.544   5.182  1.00  0.00     0.255 C 
HETATM    2  N   UNL     1      40.004 -13.780   6.302  1.00  0.00    -0.346 N 
HETATM    3  O   UNL     1      39.701 -14.306   4.099  1.00  0.00    -0.268 OA
HETATM    4  H   UNL     1      40.201 -14.180   7.203  1.00  0.00     0.163 HD
ENDROOT
BRANCH   2   5
HETATM    5  C   UNL     1      39.170 -12.606   6.258  1.00  0.00     0.217 C 
BRANCH   5   6
HETATM    6  C   UNL     1      39.451 -11.715   7.386  1.00  0.00    -0.085 C 
HETATM    7  C   UNL     1      39.673 -10.923   8.261  1.00  0.00    -0.078 C 
BRANCH   7   8
HETATM    8  C   UNL     1      39.927  -9.885   9.273  1.00  0.00     0.269 C 
BRANCH   8   9
HETATM    9  O   UNL     1      41.330  -9.618   9.298  1.00  0.00    -0.337 OA
BRANCH   9  10
HETATM   10  C   UNL     1      41.946 -10.218  10.357  1.00  0.00     0.103 A 
HETATM   11  C   UNL     1      43.072 -10.996  10.158  1.00  0.00     0.109 A 
HETATM   12  C   UNL     1      43.648 -11.707  11.198  1.00  0.00    -0.019 A 
HETATM   13  O   UNL     1      43.711 -11.159   8.958  1.00  0.00    -0.337 OA
HETATM   14  C   UNL     1      44.780 -12.514  10.689  1.00  0.00     0.079 C 
HETATM   15  C   UNL     1      43.118 -11.659  12.477  1.00  0.00     0.010 A 
HETATM   16  C   UNL     1      44.889 -11.962   9.249  1.00  0.00     0.065 C 
HETATM   17  C   UNL     1      44.935 -13.098   8.223  1.00  0.00     0.046 C 
HETATM   18  C   UNL     1      46.121 -11.064   9.089  1.00  0.00     0.046 C 
HETATM   19  C   UNL     1      41.980 -10.878  12.694  1.00  0.00     0.003 A 
HETATM   20  C   UNL     1      41.387 -10.169  11.637  1.00  0.00     0.040 A 
ENDBRANCH   9  10
ENDBRANCH   8   9
ENDBRANCH   7   8
ENDBRANCH   5   6
ENDBRANCH   2   5
BRANCH   1  21
HETATM   21  C   UNL     1      41.138 -15.665   5.343  1.00  0.00     0.075 C 
HETATM   22  C   UNL     1      42.271 -16.040   4.620  1.00  0.00     0.050 C 
HETATM   23  C   UNL     1      43.044 -15.317   3.575  1.00  0.00     0.071 C 
HETATM   24  N   UNL     1      42.561 -17.343   5.040  1.00  0.00    -0.238 N 
HETATM   25  N   UNL     1      41.941 -17.614   6.217  1.00  0.00    -0.179 NA
HETATM   26  C   UNL     1      41.000 -16.679   6.312  1.00  0.00     0.158 C 
BRANCH  24  27
HETATM   27  C   UNL     1      43.313 -18.377   4.401  1.00  0.00     0.058 A 
HETATM   28  C   UNL     1      44.309 -19.047   5.130  1.00  0.00     0.031 A 
HETATM   29  C   UNL     1      45.029 -20.093   4.548  1.00  0.00     0.002 A 
HETATM   30  C   UNL     1      44.754 -20.490   3.242  1.00  0.00     0.000 A 
HETATM   31  C   UNL     1      43.750 -19.849   2.519  1.00  0.00     0.002 A 
HETATM   32  C   UNL     1      43.026 -18.801   3.096  1.00  0.00     0.031 A 
ENDBRANCH  24  27
ENDBRANCH   1  21
TORSDOF 7
ENDMDL
MODEL 5
REMARK VINA RESULT:      -9.1      1.460      2.215
REMARK  7 active torsions:
REMARK  status: ('A' for Active; 'I' for Inactive)
REMARK    1  A    between atoms: N_3  and  C_4 
REMARK    2  A    between atoms: C_12  and  C_13 
REMARK       I    between atoms: C_13  and  N_14 
REMARK    3  A    between atoms: N_14  and  C_15 
REMARK    4  A    between atoms: C_15  and  C_16 
REMARK    5  A    between atoms: C_17  and  C_18 
REMARK    6  A    between atoms: C_18  and  O_19 
REMARK    7  A    between atoms: O_19  and  C_20 
ROOT
HETATM    1  C   UNL     1      44.652 -12.094   9.064  1.00  0.00     0.255 C 
HETATM    2  N   UNL     1      44.277 -13.233   8.395  1.00  0.00    -0.346 N 
HETATM    3  O   UNL     1      45.597 -11.396   8.715  1.00  0.00    -0.268 OA
HETATM    4  H   UNL     1      43.715 -13.912   8.879  1.00  0.00     0.163 HD
ENDROOT
BRANCH   2   5
HETATM    5  C   UNL     1      44.954 -13.656   7.195  1.00  0.00     0.217 C 
BRANCH   5   6
HETATM    6  C   UNL     1      44.675 -15.062   6.899  1.00  0.00    -0.085 C 
HETATM    7  C   UNL     1      44.397 -16.218   6.719  1.00  0.00    -0.078 C 
BRANCH   7   8
HETATM    8  C   UNL     1      43.999 -17.626   6.570  1.00  0.00     0.269 C 
BRANCH   8   9
HETATM    9  O   UNL     1      42.831 -17.677   5.748  1.00  0.00    -0.337 OA
BRANCH   9  10
HETATM   10  C   UNL     1      43.114 -18.108   4.484  1.00  0.00     0.103 A 
HETATM   11  C   UNL     1      42.506 -17.513   3.394  1.00  0.00     0.109 A 
HETATM   12  C   UNL     1      42.686 -18.005   2.112  1.00  0.00    -0.019 A 
HETATM   13  O   UNL     1      41.677 -16.424   3.455  1.00  0.00    -0.337 OA
HETATM   14  C   UNL     1      41.858 -17.236   1.156  1.00  0.00     0.079 C 
HETATM   15  C   UNL     1      43.489 -19.110   1.877  1.00  0.00     0.010 A 
HETATM   16  C   UNL     1      41.368 -16.091   2.073  1.00  0.00     0.065 C 
HETATM   17  C   UNL     1      39.851 -15.912   1.972  1.00  0.00     0.046 C 
HETATM   18  C   UNL     1      42.073 -14.771   1.740  1.00  0.00     0.046 C 
HETATM   19  C   UNL     1      44.110 -19.723   2.968  1.00  0.00     0.003 A 
HETATM   20  C   UNL     1      43.914 -19.233   4.270  1.00  0.00     0.040 A 
ENDBRANCH   9  10
ENDBRANCH   8   9
ENDBRANCH   7   8
ENDBRANCH   5   6
ENDBRANCH   2   5
BRANCH   1  21
HETATM   21  C   UNL     1      43.847 -11.740  10.223  1.00  0.00     0.075 C 
HETATM   22  C   UNL     1      42.789 -10.842  10.371  1.00  0.00     0.050 C 
HETATM   23  C   UNL     1      41.994 -10.098   9.358  1.00  0.00     0.071 C 
HETATM   24  N   UNL     1      42.611 -10.705  11.752  1.00  0.00    -0.238 N 
HETATM   25  N   UNL     1      43.204 -11.732  12.413  1.00  0.00    -0.179 NA
HETATM   26  C   UNL     1      44.043 -12.252  11.521  1.00  0.00     0.158 C 
BRANCH  24  27
HETATM   27  C   UNL     1      41.994  -9.662  12.508  1.00  0.00     0.058 A 
HETATM   28  C   UNL     1      42.802  -8.681  13.106  1.00  0.00     0.031 A 
HETATM   29  C   UNL     1      42.226  -7.623  13.813  1.00  0.00     0.002 A 
HETATM   30  C   UNL     1      40.841  -7.524  13.917  1.00  0.00     0.000 A 
HETATM   31  C   UNL     1      40.030  -8.477  13.306  1.00  0.00     0.002 A 
HETATM   32  C   UNL     1      40.601  -9.539  12.597  1.00  0.00     0.031 A 
ENDBRANCH  24  27
ENDBRANCH   1  21
TORSDOF 7
ENDMDL
MODEL 6
REMARK VINA RESULT:      -9.1      4.752      8.628
REMARK  7 active torsions:
REMARK  status: ('A' for Active; 'I' for Inactive)
REMARK    1  A    between atoms: N_3  and  C_4 
REMARK    2  A    between atoms: C_12  and  C_13 
REMARK       I    between atoms: C_13  and  N_14 
REMARK    3  A    between atoms: N_14  and  C_15 
REMARK    4  A    between atoms: C_15  and  C_16 
REMARK    5  A    between atoms: C_17  and  C_18 
REMARK    6  A    between atoms: C_18  and  O_19 
REMARK    7  A    between atoms: O_19  and  C_20 
ROOT
HETATM    1  C   UNL     1      41.392 -13.402   3.756  1.00  0.00     0.255 C 
HETATM    2  N   UNL     1      42.698 -13.513   4.166  1.00  0.00    -0.346 N 
HETATM    3  O   UNL     1      40.447 -13.400   4.536  1.00  0.00    -0.268 OA
HETATM    4  H   UNL     1      43.388 -13.810   3.498  1.00  0.00     0.163 HD
ENDROOT
BRANCH   2   5
HETATM    5  C   UNL     1      43.043 -13.589   5.563  1.00  0.00     0.217 C 
BRANCH   5   6
HETATM    6  C   UNL     1      43.196 -14.980   5.994  1.00  0.00    -0.085 C 
HETATM    7  C   UNL     1      43.401 -16.109   6.353  1.00  0.00    -0.078 C 
BRANCH   7   8
HETATM    8  C   UNL     1      43.740 -17.468   6.802  1.00  0.00     0.269 C 
BRANCH   8   9
HETATM    9  O   UNL     1      42.902 -18.392   6.105  1.00  0.00    -0.337 OA
BRANCH   9  10
HETATM   10  C   UNL     1      43.558 -18.999   5.074  1.00  0.00     0.103 A 
HETATM   11  C   UNL     1      43.268 -18.655   3.767  1.00  0.00     0.109 A 
HETATM   12  C   UNL     1      43.834 -19.335   2.701  1.00  0.00    -0.019 A 
HETATM   13  O   UNL     1      42.412 -17.655   3.390  1.00  0.00    -0.337 OA
HETATM   14  C   UNL     1      43.288 -18.818   1.426  1.00  0.00     0.079 C 
HETATM   15  C   UNL     1      44.717 -20.383   2.909  1.00  0.00     0.010 A 
HETATM   16  C   UNL     1      42.505 -17.588   1.939  1.00  0.00     0.065 C 
HETATM   17  C   UNL     1      41.076 -17.572   1.389  1.00  0.00     0.046 C 
HETATM   18  C   UNL     1      43.219 -16.281   1.575  1.00  0.00     0.046 C 
HETATM   19  C   UNL     1      45.019 -20.744   4.225  1.00  0.00     0.003 A 
HETATM   20  C   UNL     1      44.433 -20.064   5.305  1.00  0.00     0.040 A 
ENDBRANCH   9  10
ENDBRANCH   8   9
ENDBRANCH   7   8
ENDBRANCH   5   6
ENDBRANCH   2   5
BRANCH   1  21
HETATM   21  C   UNL     1      41.181 -13.266   2.323  1.00  0.00     0.075 C 
HETATM   22  C   UNL     1      40.216 -13.814   1.478  1.00  0.00     0.050 C 
HETATM   23  C   UNL     1      38.962 -14.553   1.781  1.00  0.00     0.071 C 
HETATM   24  N   UNL     1      40.685 -13.578   0.181  1.00  0.00    -0.238 N 
HETATM   25  N   UNL     1      41.632 -12.605   0.186  1.00  0.00    -0.179 NA
HETATM   26  C   UNL     1      42.015 -12.530   1.458  1.00  0.00     0.158 C 
BRANCH  24  27
HETATM   27  C   UNL     1      40.372 -14.230  -1.051  1.00  0.00     0.058 A 
HETATM   28  C   UNL     1      41.186 -15.287  -1.490  1.00  0.00     0.031 A 
HETATM   29  C   UNL     1      40.880 -15.975  -2.667  1.00  0.00     0.002 A 
HETATM   30  C   UNL     1      39.753 -15.627  -3.407  1.00  0.00     0.000 A 
HETATM   31  C   UNL     1      38.924 -14.597  -2.966  1.00  0.00     0.002 A 
HETATM   32  C   UNL     1      39.226 -13.905  -1.789  1.00  0.00     0.031 A 
ENDBRANCH  24  27
ENDBRANCH   1  21
TORSDOF 7
ENDMDL
MODEL 7
REMARK VINA RESULT:      -9.0      1.392      1.860
REMARK  7 active torsions:
REMARK  status: ('A' for Active; 'I' for Inactive)
REMARK    1  A    between atoms: N_3  and  C_4 
REMARK    2  A    between atoms: C_12  and  C_13 
REMARK       I    between atoms: C_13  and  N_14 
REMARK    3  A    between atoms: N_14  and  C_15 
REMARK    4  A    between atoms: C_15  and  C_16 
REMARK    5  A    between atoms: C_17  and  C_18 
REMARK    6  A    between atoms: C_18  and  O_19 
REMARK    7  A    between atoms: O_19  and  C_20 
ROOT
HETATM    1  C   UNL     1      41.755 -11.437   6.939  1.00  0.00     0.255 C 
HETATM    2  N   UNL     1      42.600 -12.518   6.875  1.00  0.00    -0.346 N 
HETATM    3  O   UNL     1      41.009 -11.119   6.020  1.00  0.00    -0.268 OA
HETATM    4  H   UNL     1      43.383 -12.554   7.505  1.00  0.00     0.163 HD
ENDROOT
BRANCH   2   5
HETATM    5  C   UNL     1      42.626 -13.384   5.724  1.00  0.00     0.217 C 
BRANCH   5   6
HETATM    6  C   UNL     1      43.044 -14.739   6.090  1.00  0.00    -0.085 C 
HETATM    7  C   UNL     1      43.363 -15.835   6.466  1.00  0.00    -0.078 C 
BRANCH   7   8
HETATM    8  C   UNL     1      43.721 -17.154   7.009  1.00  0.00     0.269 C 
BRANCH   8   9
HETATM    9  O   UNL     1      42.852 -18.128   6.428  1.00  0.00    -0.337 OA
BRANCH   9  10
HETATM   10  C   UNL     1      43.507 -18.937   5.545  1.00  0.00     0.103 A 
HETATM   11  C   UNL     1      43.364 -18.740   4.184  1.00  0.00     0.109 A 
HETATM   12  C   UNL     1      43.924 -19.615   3.268  1.00  0.00    -0.019 A 
HETATM   13  O   UNL     1      42.668 -17.710   3.608  1.00  0.00    -0.337 OA
HETATM   14  C   UNL     1      43.547 -19.216   1.894  1.00  0.00     0.079 C 
HETATM   15  C   UNL     1      44.654 -20.717   3.686  1.00  0.00     0.010 A 
HETATM   16  C   UNL     1      42.882 -17.849   2.175  1.00  0.00     0.065 C 
HETATM   17  C   UNL     1      41.514 -17.749   1.496  1.00  0.00     0.046 C 
HETATM   18  C   UNL     1      43.776 -16.690   1.721  1.00  0.00     0.046 C 
HETATM   19  C   UNL     1      44.807 -20.930   5.058  1.00  0.00     0.003 A 
HETATM   20  C   UNL     1      44.225 -20.052   5.987  1.00  0.00     0.040 A 
ENDBRANCH   9  10
ENDBRANCH   8   9
ENDBRANCH   7   8
ENDBRANCH   5   6
ENDBRANCH   2   5
BRANCH   1  21
HETATM   21  C   UNL     1      41.777 -10.682   8.182  1.00  0.00     0.075 C 
HETATM   22  C   UNL     1      42.638 -10.736   9.278  1.00  0.00     0.050 C 
HETATM   23  C   UNL     1      43.938 -11.434   9.463  1.00  0.00     0.071 C 
HETATM   24  N   UNL     1      42.000 -10.000  10.284  1.00  0.00    -0.238 N 
HETATM   25  N   UNL     1      41.040  -9.201   9.754  1.00  0.00    -0.179 NA
HETATM   26  C   UNL     1      40.822  -9.711   8.545  1.00  0.00     0.158 C 
BRANCH  24  27
HETATM   27  C   UNL     1      42.167 -10.032  11.703  1.00  0.00     0.058 A 
HETATM   28  C   UNL     1      43.265  -9.370  12.277  1.00  0.00     0.031 A 
HETATM   29  C   UNL     1      43.431  -9.345  13.663  1.00  0.00     0.002 A 
HETATM   30  C   UNL     1      42.497  -9.964  14.491  1.00  0.00     0.000 A 
HETATM   31  C   UNL     1      41.391 -10.601  13.932  1.00  0.00     0.002 A 
HETATM   32  C   UNL     1      41.220 -10.631  12.545  1.00  0.00     0.031 A 
ENDBRANCH  24  27
ENDBRANCH   1  21
TORSDOF 7
ENDMDL
MODEL 8
REMARK VINA RESULT:      -8.9      2.886     10.437
REMARK  7 active torsions:
REMARK  status: ('A' for Active; 'I' for Inactive)
REMARK    1  A    between atoms: N_3  and  C_4 
REMARK    2  A    between atoms: C_12  and  C_13 
REMARK       I    between atoms: C_13  and  N_14 
REMARK    3  A    between atoms: N_14  and  C_15 
REMARK    4  A    between atoms: C_15  and  C_16 
REMARK    5  A    between atoms: C_17  and  C_18 
REMARK    6  A    between atoms: C_18  and  O_19 
REMARK    7  A    between atoms: O_19  and  C_20 
ROOT
HETATM    1  C   UNL     1      43.003 -14.875   3.399  1.00  0.00     0.255 C 
HETATM    2  N   UNL     1      42.411 -14.829   4.638  1.00  0.00    -0.346 N 
HETATM    3  O   UNL     1      43.320 -13.869   2.774  1.00  0.00    -0.268 OA
HETATM    4  H   UNL     1      41.907 -15.638   4.960  1.00  0.00     0.163 HD
ENDROOT
BRANCH   2   5
HETATM    5  C   UNL     1      42.165 -13.576   5.306  1.00  0.00     0.217 C 
BRANCH   5   6
HETATM    6  C   UNL     1      43.196 -13.301   6.308  1.00  0.00    -0.085 C 
HETATM    7  C   UNL     1      44.071 -13.149   7.119  1.00  0.00    -0.078 C 
BRANCH   7   8
HETATM    8  C   UNL     1      45.172 -13.046   8.088  1.00  0.00     0.269 C 
BRANCH   8   9
HETATM    9  O   UNL     1      45.154 -11.732   8.650  1.00  0.00    -0.337 OA
BRANCH   9  10
HETATM   10  C   UNL     1      44.236 -11.617   9.652  1.00  0.00     0.103 A 
HETATM   11  C   UNL     1      43.062 -10.917   9.444  1.00  0.00     0.109 A 
HETATM   12  C   UNL     1      42.167 -10.687  10.476  1.00  0.00    -0.019 A 
HETATM   13  O   UNL     1      42.671 -10.378   8.246  1.00  0.00    -0.337 OA
HETATM   14  C   UNL     1      41.048  -9.848   9.995  1.00  0.00     0.079 C 
HETATM   15  C   UNL     1      42.417 -11.158  11.755  1.00  0.00     0.010 A 
HETATM   16  C   UNL     1      41.339  -9.839   8.477  1.00  0.00     0.065 C 
HETATM   17  C   UNL     1      41.318  -8.415   7.917  1.00  0.00     0.046 C 
HETATM   18  C   UNL     1      40.340 -10.716   7.712  1.00  0.00     0.046 C 
HETATM   19  C   UNL     1      43.599 -11.867  11.983  1.00  0.00     0.003 A 
HETATM   20  C   UNL     1      44.513 -12.085  10.940  1.00  0.00     0.040 A 
ENDBRANCH   9  10
ENDBRANCH   8   9
ENDBRANCH   7   8
ENDBRANCH   5   6
ENDBRANCH   2   5
BRANCH   1  21
HETATM   21  C   UNL     1      43.257 -16.202   2.861  1.00  0.00     0.075 C 
HETATM   22  C   UNL     1      42.817 -17.462   3.270  1.00  0.00     0.050 C 
HETATM   23  C   UNL     1      41.783 -17.858   4.263  1.00  0.00     0.071 C 
HETATM   24  N   UNL     1      43.611 -18.375   2.568  1.00  0.00    -0.238 N 
HETATM   25  N   UNL     1      44.201 -17.774   1.503  1.00  0.00    -0.179 NA
HETATM   26  C   UNL     1      44.101 -16.474   1.766  1.00  0.00     0.158 C 
BRANCH  24  27
HETATM   27  C   UNL     1      43.919 -19.743   2.847  1.00  0.00     0.058 A 
HETATM   28  C   UNL     1      43.669 -20.713   1.863  1.00  0.00     0.031 A 
HETATM   29  C   UNL     1      44.000 -22.052   2.089  1.00  0.00     0.002 A 
HETATM   30  C   UNL     1      44.598 -22.432   3.288  1.00  0.00     0.000 A 
HETATM   31  C   UNL     1      44.873 -21.472   4.260  1.00  0.00     0.002 A 
HETATM   32  C   UNL     1      44.543 -20.131   4.040  1.00  0.00     0.031 A 
ENDBRANCH  24  27
ENDBRANCH   1  21
TORSDOF 7
ENDMDL
MODEL 9
REMARK VINA RESULT:      -8.9      2.796     10.913
REMARK  7 active torsions:
REMARK  status: ('A' for Active; 'I' for Inactive)
REMARK    1  A    between atoms: N_3  and  C_4 
REMARK    2  A    between atoms: C_12  and  C_13 
REMARK       I    between atoms: C_13  and  N_14 
REMARK    3  A    between atoms: N_14  and  C_15 
REMARK    4  A    between atoms: C_15  and  C_16 
REMARK    5  A    between atoms: C_17  and  C_18 
REMARK    6  A    between atoms: C_18  and  O_19 
REMARK    7  A    between atoms: O_19  and  C_20 
ROOT
HETATM    1  C   UNL     1      42.393 -14.714   3.936  1.00  0.00     0.255 C 
HETATM    2  N   UNL     1      41.213 -14.543   4.619  1.00  0.00    -0.346 N 
HETATM    3  O   UNL     1      42.884 -13.844   3.225  1.00  0.00    -0.268 OA
HETATM    4  H   UNL     1      40.714 -15.360   4.926  1.00  0.00     0.163 HD
ENDROOT
BRANCH   2   5
HETATM    5  C   UNL     1      40.495 -13.295   4.576  1.00  0.00     0.217 C 
BRANCH   5   6
HETATM    6  C   UNL     1      40.951 -12.387   5.630  1.00  0.00    -0.085 C 
HETATM    7  C   UNL     1      41.347 -11.590   6.438  1.00  0.00    -0.078 C 
BRANCH   7   8
HETATM    8  C   UNL     1      41.848 -10.557   7.358  1.00  0.00     0.269 C 
BRANCH   8   9
HETATM    9  O   UNL     1      41.570 -10.975   8.696  1.00  0.00    -0.337 OA
BRANCH   9  10
HETATM   10  C   UNL     1      42.696 -11.006   9.466  1.00  0.00     0.103 A 
HETATM   11  C   UNL     1      42.681 -10.470  10.741  1.00  0.00     0.109 A 
HETATM   12  C   UNL     1      43.837 -10.385  11.499  1.00  0.00    -0.019 A 
HETATM   13  O   UNL     1      41.572  -9.968  11.369  1.00  0.00    -0.337 OA
HETATM   14  C   UNL     1      43.550  -9.698  12.779  1.00  0.00     0.079 C 
HETATM   15  C   UNL     1      45.050 -10.840  11.007  1.00  0.00     0.010 A 
HETATM   16  C   UNL     1      42.008  -9.622  12.713  1.00  0.00     0.065 C 
HETATM   17  C   UNL     1      41.511  -8.204  13.005  1.00  0.00     0.046 C 
HETATM   18  C   UNL     1      41.359 -10.613  13.686  1.00  0.00     0.046 C 
HETATM   19  C   UNL     1      45.082 -11.383   9.720  1.00  0.00     0.003 A 
HETATM   20  C   UNL     1      43.913 -11.455   8.945  1.00  0.00     0.040 A 
ENDBRANCH   9  10
ENDBRANCH   8   9
ENDBRANCH   7   8
ENDBRANCH   5   6
ENDBRANCH   2   5
BRANCH   1  21
HETATM   21  C   UNL     1      43.054 -15.997   4.114  1.00  0.00     0.075 C 
HETATM   22  C   UNL     1      43.632 -16.872   3.192  1.00  0.00     0.050 C 
HETATM   23  C   UNL     1      43.949 -16.698   1.750  1.00  0.00     0.071 C 
HETATM   24  N   UNL     1      43.839 -18.064   3.896  1.00  0.00    -0.238 N 
HETATM   25  N   UNL     1      43.798 -17.841   5.234  1.00  0.00    -0.179 NA
HETATM   26  C   UNL     1      43.198 -16.659   5.349  1.00  0.00     0.158 C 
BRANCH  24  27
HETATM   27  C   UNL     1      44.004 -19.402   3.423  1.00  0.00     0.058 A 
HETATM   28  C   UNL     1      44.695 -20.328   4.221  1.00  0.00     0.031 A 
HETATM   29  C   UNL     1      44.834 -21.655   3.808  1.00  0.00     0.002 A 
HETATM   30  C   UNL     1      44.273 -22.075   2.604  1.00  0.00     0.000 A 
HETATM   31  C   UNL     1      43.564 -21.170   1.817  1.00  0.00     0.002 A 
HETATM   32  C   UNL     1      43.422 -19.840   2.225  1.00  0.00     0.031 A 
ENDBRANCH  24  27
ENDBRANCH   1  21
TORSDOF 7
ENDMDL
MODEL 10
REMARK VINA RESULT:      -8.7      2.638      4.065
REMARK  7 active torsions:
REMARK  status: ('A' for Active; 'I' for Inactive)
REMARK    1  A    between atoms: N_3  and  C_4 
REMARK    2  A    between atoms: C_12  and  C_13 
REMARK       I    between atoms: C_13  and  N_14 
REMARK    3  A    between atoms: N_14  and  C_15 
REMARK    4  A    between atoms: C_15  and  C_16 
REMARK    5  A    between atoms: C_17  and  C_18 
REMARK    6  A    between atoms: C_18  and  O_19 
REMARK    7  A    between atoms: O_19  and  C_20 
ROOT
HETATM    1  C   UNL     1      39.527 -11.874   6.936  1.00  0.00     0.255 C 
HETATM    2  N   UNL     1      40.056 -13.140   6.899  1.00  0.00    -0.346 N 
HETATM    3  O   UNL     1      38.832 -11.415   6.036  1.00  0.00    -0.268 OA
HETATM    4  H   UNL     1      40.842 -13.350   7.490  1.00  0.00     0.163 HD
ENDROOT
BRANCH   2   5
HETATM    5  C   UNL     1      39.784 -14.036   5.804  1.00  0.00     0.217 C 
BRANCH   5   6
HETATM    6  C   UNL     1      40.831 -13.959   4.785  1.00  0.00    -0.085 C 
HETATM    7  C   UNL     1      41.634 -13.883   3.893  1.00  0.00    -0.078 C 
BRANCH   7   8
HETATM    8  C   UNL     1      42.547 -13.771   2.745  1.00  0.00     0.269 C 
BRANCH   8   9
HETATM    9  O   UNL     1      43.674 -14.617   2.984  1.00  0.00    -0.337 OA
BRANCH   9  10
HETATM   10  C   UNL     1      43.374 -15.934   2.791  1.00  0.00     0.103 A 
HETATM   11  C   UNL     1      43.490 -16.833   3.835  1.00  0.00     0.109 A 
HETATM   12  C   UNL     1      43.304 -18.191   3.639  1.00  0.00    -0.019 A 
HETATM   13  O   UNL     1      43.805 -16.501   5.126  1.00  0.00    -0.337 OA
HETATM   14  C   UNL     1      43.569 -18.923   4.898  1.00  0.00     0.079 C 
HETATM   15  C   UNL     1      42.988 -18.696   2.388  1.00  0.00     0.010 A 
HETATM   16  C   UNL     1      43.707 -17.740   5.883  1.00  0.00     0.065 C 
HETATM   17  C   UNL     1      44.979 -17.865   6.725  1.00  0.00     0.046 C 
HETATM   18  C   UNL     1      42.483 -17.633   6.800  1.00  0.00     0.046 C 
HETATM   19  C   UNL     1      42.868 -17.801   1.322  1.00  0.00     0.003 A 
HETATM   20  C   UNL     1      43.073 -16.425   1.518  1.00  0.00     0.040 A 
ENDBRANCH   9  10
ENDBRANCH   8   9
ENDBRANCH   7   8
ENDBRANCH   5   6
ENDBRANCH   2   5
BRANCH   1  21
HETATM   21  C   UNL     1      39.823 -11.091   8.126  1.00  0.00     0.075 C 
HETATM   22  C   UNL     1      41.033 -10.648   8.660  1.00  0.00     0.050 C 
HETATM   23  C   UNL     1      42.407 -10.648   8.092  1.00  0.00     0.071 C 
HETATM   24  N   UNL     1      40.727 -10.208   9.953  1.00  0.00    -0.238 N 
HETATM   25  N   UNL     1      39.392  -9.991  10.079  1.00  0.00    -0.179 NA
HETATM   26  C   UNL     1      38.858 -10.645   9.051  1.00  0.00     0.158 C 
BRANCH  24  27
HETATM   27  C   UNL     1      41.565 -10.039  11.097  1.00  0.00     0.058 A 
HETATM   28  C   UNL     1      42.099 -11.175  11.727  1.00  0.00     0.031 A 
HETATM   29  C   UNL     1      42.958 -11.041  12.820  1.00  0.00     0.002 A 
HETATM   30  C   UNL     1      43.306  -9.775  13.285  1.00  0.00     0.000 A 
HETATM   31  C   UNL     1      42.803  -8.641  12.650  1.00  0.00     0.002 A 
HETATM   32  C   UNL     1      41.941  -8.770  11.556  1.00  0.00     0.031 A 
ENDBRANCH  24  27
ENDBRANCH   1  21
TORSDOF 7
ENDMDL
