MODEL 1
REMARK VINA RESULT:      -7.7      0.000      0.000
REMARK  8 active torsions:
REMARK  status: ('A' for Active; 'I' for Inactive)
REMARK    1  A    between atoms: C_2  and  N_3 
REMARK    2  A    between atoms: C_2  and  C_17 
REMARK    3  A    between atoms: N_3  and  C_6 
REMARK    4  A    between atoms: C_6  and  C_7 
REMARK    5  A    between atoms: C_7  and  O_8 
REMARK    6  A    between atoms: C_7  and  C_9 
REMARK    7  A    between atoms: C_11  and  O_12 
REMARK    8  A    between atoms: C_17  and  C_18 
ROOT
HETATM    1  N   UNL     1      41.852 -15.956   2.571  1.00  0.00    -0.068 N 
HETATM    2  H   UNL     1      42.689 -16.046   3.184  1.00  0.00     0.277 HD
HETATM    3  H   UNL     1      41.885 -14.969   2.259  1.00  0.00     0.277 HD
ENDROOT
BRANCH   1   4
HETATM    4  C   UNL     1      42.019 -16.940   1.446  1.00  0.00     0.188 C 
HETATM    5  C   UNL     1      41.507 -16.321   0.151  1.00  0.00     0.040 C 
BRANCH   4   6
HETATM    6  C   UNL     1      43.506 -17.336   1.307  1.00  0.00     0.099 C 
BRANCH   6   7
HETATM    7  C   UNL     1      43.846 -18.512   2.175  1.00  0.00     0.078 A 
HETATM    8  S   UNL     1      44.110 -18.314   3.853  1.00  0.00    -0.073 SA
HETATM    9  C   UNL     1      44.361 -20.009   4.015  1.00  0.00     0.035 A 
HETATM   10  C   UNL     1      44.223 -20.612   2.761  1.00  0.00     0.074 A 
HETATM   11  C   UNL     1      44.657 -20.753   5.168  1.00  0.00     0.021 A 
HETATM   12  N   UNL     1      43.927 -19.745   1.713  1.00  0.00    -0.245 NA
HETATM   13  C   UNL     1      44.387 -22.008   2.659  1.00  0.00     0.033 A 
HETATM   14  C   UNL     1      44.683 -22.758   3.803  1.00  0.00     0.002 A 
HETATM   15  C   UNL     1      44.815 -22.135   5.040  1.00  0.00     0.002 A 
ENDBRANCH   6   7
ENDBRANCH   4   6
ENDBRANCH   1   4
BRANCH   1  16
HETATM   16  C   UNL     1      40.638 -16.089   3.448  1.00  0.00     0.269 C 
BRANCH  16  17
HETATM   17  C   UNL     1      40.790 -15.098   4.621  1.00  0.00     0.177 C 
BRANCH  17  18
HETATM   18  O   UNL     1      39.503 -14.969   5.249  1.00  0.00    -0.389 OA
HETATM   19  H   UNL     1      38.875 -15.490   4.707  1.00  0.00     0.210 HD
ENDBRANCH  17  18
BRANCH  17  20
HETATM   20  C   UNL     1      41.844 -15.542   5.603  1.00  0.00    -0.025 A 
HETATM   21  C   UNL     1      43.009 -14.780   5.822  1.00  0.00     0.046 A 
HETATM   22  C   UNL     1      43.962 -15.188   6.758  1.00  0.00     0.068 A 
HETATM   23  C   UNL     1      43.741 -16.351   7.495  1.00  0.00     0.037 A 
HETATM   24  C   UNL     1      42.593 -17.113   7.293  1.00  0.00     0.003 A 
HETATM   25  C   UNL     1      41.648 -16.712   6.351  1.00  0.00     0.010 A 
BRANCH  22  26
HETATM   26  O   UNL     1      45.126 -14.537   7.053  1.00  0.00    -0.356 OA
HETATM   27  C   UNL     1      45.030 -13.335   7.807  1.00  0.00     0.210 C 
ENDBRANCH  22  26
ENDBRANCH  17  20
ENDBRANCH  16  17
ENDBRANCH   1  16
TORSDOF 8
ENDMDL
MODEL 2
REMARK VINA RESULT:      -7.7      2.490      4.712
REMARK  8 active torsions:
REMARK  status: ('A' for Active; 'I' for Inactive)
REMARK    1  A    between atoms: C_2  and  N_3 
REMARK    2  A    between atoms: C_2  and  C_17 
REMARK    3  A    between atoms: N_3  and  C_6 
REMARK    4  A    between atoms: C_6  and  C_7 
REMARK    5  A    between atoms: C_7  and  O_8 
REMARK    6  A    between atoms: C_7  and  C_9 
REMARK    7  A    between atoms: C_11  and  O_12 
REMARK    8  A    between atoms: C_17  and  C_18 
ROOT
HETATM    1  N   UNL     1      39.902 -15.113   5.504  1.00  0.00    -0.068 N 
HETATM    2  H   UNL     1      39.096 -15.297   6.138  1.00  0.00     0.277 HD
HETATM    3  H   UNL     1      39.777 -15.806   4.745  1.00  0.00     0.277 HD
ENDROOT
BRANCH   1   4
HETATM    4  C   UNL     1      39.780 -13.689   5.037  1.00  0.00     0.188 C 
HETATM    5  C   UNL     1      40.814 -12.830   5.754  1.00  0.00     0.040 C 
BRANCH   4   6
HETATM    6  C   UNL     1      39.982 -13.616   3.507  1.00  0.00     0.099 C 
BRANCH   6   7
HETATM    7  C   UNL     1      40.919 -14.684   3.023  1.00  0.00     0.078 A 
HETATM    8  S   UNL     1      42.597 -14.384   2.896  1.00  0.00    -0.073 SA
HETATM    9  C   UNL     1      42.848 -16.003   2.369  1.00  0.00     0.035 A 
HETATM   10  C   UNL     1      41.618 -16.664   2.329  1.00  0.00     0.074 A 
HETATM   11  C   UNL     1      44.048 -16.643   2.019  1.00  0.00     0.021 A 
HETATM   12  N   UNL     1      40.517 -15.900   2.706  1.00  0.00    -0.245 NA
HETATM   13  C   UNL     1      41.588 -18.015   1.923  1.00  0.00     0.033 A 
HETATM   14  C   UNL     1      42.778 -18.660   1.572  1.00  0.00     0.002 A 
HETATM   15  C   UNL     1      43.991 -17.981   1.621  1.00  0.00     0.002 A 
ENDBRANCH   6   7
ENDBRANCH   4   6
ENDBRANCH   1   4
BRANCH   1  16
HETATM   16  C   UNL     1      41.151 -15.507   6.242  1.00  0.00     0.269 C 
BRANCH  16  17
HETATM   17  C   UNL     1      41.172 -17.046   6.351  1.00  0.00     0.177 C 
BRANCH  17  18
HETATM   18  O   UNL     1      40.253 -17.562   5.374  1.00  0.00    -0.389 OA
HETATM   19  H   UNL     1      40.789 -18.050   4.716  1.00  0.00     0.210 HD
ENDBRANCH  17  18
BRANCH  17  20
HETATM   20  C   UNL     1      42.558 -17.607   6.158  1.00  0.00    -0.025 A 
HETATM   21  C   UNL     1      42.793 -18.697   5.296  1.00  0.00     0.046 A 
HETATM   22  C   UNL     1      44.087 -19.188   5.104  1.00  0.00     0.068 A 
HETATM   23  C   UNL     1      45.155 -18.574   5.759  1.00  0.00     0.037 A 
HETATM   24  C   UNL     1      44.939 -17.493   6.611  1.00  0.00     0.003 A 
HETATM   25  C   UNL     1      43.646 -17.011   6.811  1.00  0.00     0.010 A 
BRANCH  22  26
HETATM   26  O   UNL     1      44.437 -20.235   4.300  1.00  0.00    -0.356 OA
HETATM   27  C   UNL     1      45.000 -21.381   4.926  1.00  0.00     0.210 C 
ENDBRANCH  22  26
ENDBRANCH  17  20
ENDBRANCH  16  17
ENDBRANCH   1  16
TORSDOF 8
ENDMDL
MODEL 3
REMARK VINA RESULT:      -7.7      2.637      5.652
REMARK  8 active torsions:
REMARK  status: ('A' for Active; 'I' for Inactive)
REMARK    1  A    between atoms: C_2  and  N_3 
REMARK    2  A    between atoms: C_2  and  C_17 
REMARK    3  A    between atoms: N_3  and  C_6 
REMARK    4  A    between atoms: C_6  and  C_7 
REMARK    5  A    between atoms: C_7  and  O_8 
REMARK    6  A    between atoms: C_7  and  C_9 
REMARK    7  A    between atoms: C_11  and  O_12 
REMARK    8  A    between atoms: C_17  and  C_18 
ROOT
HETATM    1  N   UNL     1      41.334 -15.414   1.962  1.00  0.00    -0.068 N 
HETATM    2  H   UNL     1      41.928 -15.161   1.144  1.00  0.00     0.277 HD
HETATM    3  H   UNL     1      41.989 -15.365   2.762  1.00  0.00     0.277 HD
ENDROOT
BRANCH   1   4
HETATM    4  C   UNL     1      40.227 -14.400   2.035  1.00  0.00     0.188 C 
HETATM    5  C   UNL     1      38.885 -15.100   1.856  1.00  0.00     0.040 C 
BRANCH   4   6
HETATM    6  C   UNL     1      40.276 -13.660   3.390  1.00  0.00     0.099 C 
BRANCH   6   7
HETATM    7  C   UNL     1      41.122 -14.395   4.388  1.00  0.00     0.078 A 
HETATM    8  S   UNL     1      42.673 -13.815   4.816  1.00  0.00    -0.073 SA
HETATM    9  C   UNL     1      42.855 -15.118   5.926  1.00  0.00     0.035 A 
HETATM   10  C   UNL     1      41.705 -15.910   5.891  1.00  0.00     0.074 A 
HETATM   11  C   UNL     1      43.937 -15.416   6.769  1.00  0.00     0.021 A 
HETATM   12  N   UNL     1      40.716 -15.487   5.006  1.00  0.00    -0.245 NA
HETATM   13  C   UNL     1      41.635 -17.042   6.730  1.00  0.00     0.033 A 
HETATM   14  C   UNL     1      42.709 -17.347   7.573  1.00  0.00     0.002 A 
HETATM   15  C   UNL     1      43.844 -16.543   7.591  1.00  0.00     0.002 A 
ENDBRANCH   6   7
ENDBRANCH   4   6
ENDBRANCH   1   4
BRANCH   1  16
HETATM   16  C   UNL     1      40.954 -16.861   1.808  1.00  0.00     0.269 C 
BRANCH  16  17
HETATM   17  C   UNL     1      42.141 -17.596   1.153  1.00  0.00     0.177 C 
BRANCH  17  18
HETATM   18  O   UNL     1      42.968 -16.605   0.519  1.00  0.00    -0.389 OA
HETATM   19  H   UNL     1      42.425 -16.197  -0.186  1.00  0.00     0.210 HD
ENDBRANCH  17  18
BRANCH  17  20
HETATM   20  C   UNL     1      42.922 -18.412   2.152  1.00  0.00    -0.025 A 
HETATM   21  C   UNL     1      43.299 -19.742   1.876  1.00  0.00     0.046 A 
HETATM   22  C   UNL     1      44.048 -20.476   2.799  1.00  0.00     0.068 A 
HETATM   23  C   UNL     1      44.441 -19.873   3.994  1.00  0.00     0.037 A 
HETATM   24  C   UNL     1      44.078 -18.558   4.279  1.00  0.00     0.003 A 
HETATM   25  C   UNL     1      43.322 -17.830   3.363  1.00  0.00     0.010 A 
BRANCH  22  26
HETATM   26  O   UNL     1      44.468 -21.766   2.646  1.00  0.00    -0.356 OA
HETATM   27  C   UNL     1      44.672 -22.533   3.826  1.00  0.00     0.210 C 
ENDBRANCH  22  26
ENDBRANCH  17  20
ENDBRANCH  16  17
ENDBRANCH   1  16
TORSDOF 8
ENDMDL
MODEL 4
REMARK VINA RESULT:      -7.6      2.951      6.092
REMARK  8 active torsions:
REMARK  status: ('A' for Active; 'I' for Inactive)
REMARK    1  A    between atoms: C_2  and  N_3 
REMARK    2  A    between atoms: C_2  and  C_17 
REMARK    3  A    between atoms: N_3  and  C_6 
REMARK    4  A    between atoms: C_6  and  C_7 
REMARK    5  A    between atoms: C_7  and  O_8 
REMARK    6  A    between atoms: C_7  and  C_9 
REMARK    7  A    between atoms: C_11  and  O_12 
REMARK    8  A    between atoms: C_17  and  C_18 
ROOT
HETATM    1  N   UNL     1      40.779 -16.680   3.289  1.00  0.00    -0.068 N 
HETATM    2  H   UNL     1      41.291 -17.513   2.930  1.00  0.00     0.277 HD
HETATM    3  H   UNL     1      39.839 -17.052   3.512  1.00  0.00     0.277 HD
ENDROOT
BRANCH   1   4
HETATM    4  C   UNL     1      41.526 -16.188   4.497  1.00  0.00     0.188 C 
HETATM    5  C   UNL     1      41.105 -16.998   5.718  1.00  0.00     0.040 C 
BRANCH   4   6
HETATM    6  C   UNL     1      43.048 -16.311   4.263  1.00  0.00     0.099 C 
BRANCH   6   7
HETATM    7  C   UNL     1      43.446 -17.724   3.953  1.00  0.00     0.078 A 
HETATM    8  S   UNL     1      44.310 -18.660   5.094  1.00  0.00    -0.073 SA
HETATM    9  C   UNL     1      44.285 -20.000   4.015  1.00  0.00     0.035 A 
HETATM   10  C   UNL     1      43.609 -19.633   2.848  1.00  0.00     0.074 A 
HETATM   11  C   UNL     1      44.822 -21.286   4.189  1.00  0.00     0.021 A 
HETATM   12  N   UNL     1      43.132 -18.325   2.822  1.00  0.00    -0.245 NA
HETATM   13  C   UNL     1      43.467 -20.586   1.818  1.00  0.00     0.033 A 
HETATM   14  C   UNL     1      44.000 -21.869   1.983  1.00  0.00     0.002 A 
HETATM   15  C   UNL     1      44.667 -22.212   3.154  1.00  0.00     0.002 A 
ENDBRANCH   6   7
ENDBRANCH   4   6
ENDBRANCH   1   4
BRANCH   1  16
HETATM   16  C   UNL     1      40.602 -15.732   2.136  1.00  0.00     0.269 C 
BRANCH  16  17
HETATM   17  C   UNL     1      41.374 -16.304   0.929  1.00  0.00     0.177 C 
BRANCH  17  18
HETATM   18  O   UNL     1      40.811 -17.591   0.624  1.00  0.00    -0.389 OA
HETATM   19  H   UNL     1      40.320 -17.489  -0.217  1.00  0.00     0.210 HD
ENDBRANCH  17  18
BRANCH  17  20
HETATM   20  C   UNL     1      41.324 -15.381  -0.263  1.00  0.00    -0.025 A 
HETATM   21  C   UNL     1      40.913 -15.843  -1.529  1.00  0.00     0.046 A 
HETATM   22  C   UNL     1      40.843 -14.970  -2.617  1.00  0.00     0.068 A 
HETATM   23  C   UNL     1      41.164 -13.625  -2.436  1.00  0.00     0.037 A 
HETATM   24  C   UNL     1      41.569 -13.153  -1.189  1.00  0.00     0.003 A 
HETATM   25  C   UNL     1      41.649 -14.027  -0.107  1.00  0.00     0.010 A 
BRANCH  22  26
HETATM   26  O   UNL     1      40.464 -15.300  -3.887  1.00  0.00    -0.356 OA
HETATM   27  C   UNL     1      39.180 -15.889  -4.055  1.00  0.00     0.210 C 
ENDBRANCH  22  26
ENDBRANCH  17  20
ENDBRANCH  16  17
ENDBRANCH   1  16
TORSDOF 8
ENDMDL
MODEL 5
REMARK VINA RESULT:      -7.6      1.090      1.776
REMARK  8 active torsions:
REMARK  status: ('A' for Active; 'I' for Inactive)
REMARK    1  A    between atoms: C_2  and  N_3 
REMARK    2  A    between atoms: C_2  and  C_17 
REMARK    3  A    between atoms: N_3  and  C_6 
REMARK    4  A    between atoms: C_6  and  C_7 
REMARK    5  A    between atoms: C_7  and  O_8 
REMARK    6  A    between atoms: C_7  and  C_9 
REMARK    7  A    between atoms: C_11  and  O_12 
REMARK    8  A    between atoms: C_17  and  C_18 
ROOT
HETATM    1  N   UNL     1      41.041 -16.203   2.397  1.00  0.00    -0.068 N 
HETATM    2  H   UNL     1      40.079 -16.013   2.046  1.00  0.00     0.277 HD
HETATM    3  H   UNL     1      40.880 -16.732   3.272  1.00  0.00     0.277 HD
ENDROOT
BRANCH   1   4
HETATM    4  C   UNL     1      41.747 -17.005   1.339  1.00  0.00     0.188 C 
HETATM    5  C   UNL     1      41.464 -16.397  -0.030  1.00  0.00     0.040 C 
BRANCH   4   6
HETATM    6  C   UNL     1      43.266 -17.028   1.619  1.00  0.00     0.099 C 
BRANCH   6   7
HETATM    7  C   UNL     1      43.675 -18.284   2.331  1.00  0.00     0.078 A 
HETATM    8  S   UNL     1      44.071 -18.257   3.994  1.00  0.00    -0.073 SA
HETATM    9  C   UNL     1      44.337 -19.957   3.960  1.00  0.00     0.035 A 
HETATM   10  C   UNL     1      44.100 -20.429   2.666  1.00  0.00     0.074 A 
HETATM   11  C   UNL     1      44.725 -20.812   5.004  1.00  0.00     0.021 A 
HETATM   12  N   UNL     1      43.721 -19.462   1.739  1.00  0.00    -0.245 NA
HETATM   13  C   UNL     1      44.258 -21.806   2.408  1.00  0.00     0.033 A 
HETATM   14  C   UNL     1      44.645 -22.666   3.441  1.00  0.00     0.002 A 
HETATM   15  C   UNL     1      44.874 -22.173   4.722  1.00  0.00     0.002 A 
ENDBRANCH   6   7
ENDBRANCH   4   6
ENDBRANCH   1   4
BRANCH   1  16
HETATM   16  C   UNL     1      41.641 -14.884   2.798  1.00  0.00     0.269 C 
BRANCH  16  17
HETATM   17  C   UNL     1      41.135 -14.544   4.215  1.00  0.00     0.177 C 
BRANCH  17  18
HETATM   18  O   UNL     1      39.880 -15.221   4.401  1.00  0.00    -0.389 OA
HETATM   19  H   UNL     1      40.047 -16.171   4.228  1.00  0.00     0.210 HD
ENDBRANCH  17  18
BRANCH  17  20
HETATM   20  C   UNL     1      42.133 -14.926   5.278  1.00  0.00    -0.025 A 
HETATM   21  C   UNL     1      41.935 -16.055   6.098  1.00  0.00     0.046 A 
HETATM   22  C   UNL     1      42.882 -16.413   7.059  1.00  0.00     0.068 A 
HETATM   23  C   UNL     1      44.045 -15.654   7.188  1.00  0.00     0.037 A 
HETATM   24  C   UNL     1      44.258 -14.537   6.383  1.00  0.00     0.003 A 
HETATM   25  C   UNL     1      43.306 -14.173   5.432  1.00  0.00     0.010 A 
BRANCH  22  26
HETATM   26  O   UNL     1      42.800 -17.479   7.909  1.00  0.00    -0.356 OA
HETATM   27  C   UNL     1      43.843 -18.443   7.853  1.00  0.00     0.210 C 
ENDBRANCH  22  26
ENDBRANCH  17  20
ENDBRANCH  16  17
ENDBRANCH   1  16
TORSDOF 8
ENDMDL
MODEL 6
REMARK VINA RESULT:      -7.5      3.476      6.927
REMARK  8 active torsions:
REMARK  status: ('A' for Active; 'I' for Inactive)
REMARK    1  A    between atoms: C_2  and  N_3 
REMARK    2  A    between atoms: C_2  and  C_17 
REMARK    3  A    between atoms: N_3  and  C_6 
REMARK    4  A    between atoms: C_6  and  C_7 
REMARK    5  A    between atoms: C_7  and  O_8 
REMARK    6  A    between atoms: C_7  and  C_9 
REMARK    7  A    between atoms: C_11  and  O_12 
REMARK    8  A    between atoms: C_17  and  C_18 
ROOT
HETATM    1  N   UNL     1      41.282 -15.444   1.937  1.00  0.00    -0.068 N 
HETATM    2  H   UNL     1      40.245 -15.394   2.024  1.00  0.00     0.277 HD
HETATM    3  H   UNL     1      41.432 -15.671   0.939  1.00  0.00     0.277 HD
ENDROOT
BRANCH   1   4
HETATM    4  C   UNL     1      41.823 -14.096   2.328  1.00  0.00     0.188 C 
HETATM    5  C   UNL     1      43.190 -14.268   2.979  1.00  0.00     0.040 C 
BRANCH   4   6
HETATM    6  C   UNL     1      41.925 -13.187   1.083  1.00  0.00     0.099 C 
BRANCH   6   7
HETATM    7  C   UNL     1      41.093 -13.709  -0.051  1.00  0.00     0.078 A 
HETATM    8  S   UNL     1      39.539 -13.070  -0.364  1.00  0.00    -0.073 SA
HETATM    9  C   UNL     1      39.379 -14.119  -1.719  1.00  0.00     0.035 A 
HETATM   10  C   UNL     1      40.538 -14.891  -1.837  1.00  0.00     0.074 A 
HETATM   11  C   UNL     1      38.305 -14.248  -2.615  1.00  0.00     0.021 A 
HETATM   12  N   UNL     1      41.516 -14.648  -0.876  1.00  0.00    -0.245 NA
HETATM   13  C   UNL     1      40.625 -15.826  -2.889  1.00  0.00     0.033 A 
HETATM   14  C   UNL     1      39.560 -15.962  -3.786  1.00  0.00     0.002 A 
HETATM   15  C   UNL     1      38.417 -15.182  -3.649  1.00  0.00     0.002 A 
ENDBRANCH   6   7
ENDBRANCH   4   6
ENDBRANCH   1   4
BRANCH   1  16
HETATM   16  C   UNL     1      41.740 -16.641   2.723  1.00  0.00     0.269 C 
BRANCH  16  17
HETATM   17  C   UNL     1      42.274 -17.688   1.724  1.00  0.00     0.177 C 
BRANCH  17  18
HETATM   18  O   UNL     1      43.001 -16.982   0.704  1.00  0.00    -0.389 OA
HETATM   19  H   UNL     1      43.827 -16.662   1.121  1.00  0.00     0.210 HD
ENDBRANCH  17  18
BRANCH  17  20
HETATM   20  C   UNL     1      43.133 -18.727   2.399  1.00  0.00    -0.025 A 
HETATM   21  C   UNL     1      43.608 -18.544   3.713  1.00  0.00     0.046 A 
HETATM   22  C   UNL     1      44.378 -19.528   4.336  1.00  0.00     0.068 A 
HETATM   23  C   UNL     1      44.659 -20.711   3.652  1.00  0.00     0.037 A 
HETATM   24  C   UNL     1      44.194 -20.908   2.353  1.00  0.00     0.003 A 
HETATM   25  C   UNL     1      43.435 -19.921   1.729  1.00  0.00     0.010 A 
BRANCH  22  26
HETATM   26  O   UNL     1      44.894 -19.463   5.599  1.00  0.00    -0.356 OA
HETATM   27  C   UNL     1      45.075 -18.172   6.167  1.00  0.00     0.210 C 
ENDBRANCH  22  26
ENDBRANCH  17  20
ENDBRANCH  16  17
ENDBRANCH   1  16
TORSDOF 8
ENDMDL
MODEL 7
REMARK VINA RESULT:      -7.5      2.118      4.414
REMARK  8 active torsions:
REMARK  status: ('A' for Active; 'I' for Inactive)
REMARK    1  A    between atoms: C_2  and  N_3 
REMARK    2  A    between atoms: C_2  and  C_17 
REMARK    3  A    between atoms: N_3  and  C_6 
REMARK    4  A    between atoms: C_6  and  C_7 
REMARK    5  A    between atoms: C_7  and  O_8 
REMARK    6  A    between atoms: C_7  and  C_9 
REMARK    7  A    between atoms: C_11  and  O_12 
REMARK    8  A    between atoms: C_17  and  C_18 
ROOT
HETATM    1  N   UNL     1      42.236 -15.949   6.858  1.00  0.00    -0.068 N 
HETATM    2  H   UNL     1      42.340 -16.551   7.701  1.00  0.00     0.277 HD
HETATM    3  H   UNL     1      42.001 -15.020   7.250  1.00  0.00     0.277 HD
ENDROOT
BRANCH   1   4
HETATM    4  C   UNL     1      43.553 -15.972   6.133  1.00  0.00     0.188 C 
HETATM    5  C   UNL     1      44.365 -14.740   6.516  1.00  0.00     0.040 C 
BRANCH   4   6
HETATM    6  C   UNL     1      44.327 -17.262   6.483  1.00  0.00     0.099 C 
BRANCH   6   7
HETATM    7  C   UNL     1      44.225 -18.281   5.386  1.00  0.00     0.078 A 
HETATM    8  S   UNL     1      43.610 -17.853   3.849  1.00  0.00    -0.073 SA
HETATM    9  C   UNL     1      43.885 -19.458   3.291  1.00  0.00     0.035 A 
HETATM   10  C   UNL     1      44.434 -20.214   4.331  1.00  0.00     0.074 A 
HETATM   11  C   UNL     1      43.635 -20.009   2.024  1.00  0.00     0.021 A 
HETATM   12  N   UNL     1      44.626 -19.530   5.528  1.00  0.00    -0.245 NA
HETATM   13  C   UNL     1      44.743 -21.569   4.093  1.00  0.00     0.033 A 
HETATM   14  C   UNL     1      44.497 -22.127   2.834  1.00  0.00     0.002 A 
HETATM   15  C   UNL     1      43.951 -21.354   1.815  1.00  0.00     0.002 A 
ENDBRANCH   6   7
ENDBRANCH   4   6
ENDBRANCH   1   4
BRANCH   1  16
HETATM   16  C   UNL     1      41.016 -16.422   6.117  1.00  0.00     0.269 C 
BRANCH  16  17
HETATM   17  C   UNL     1      40.277 -15.180   5.578  1.00  0.00     0.177 C 
BRANCH  17  18
HETATM   18  O   UNL     1      40.292 -14.183   6.614  1.00  0.00    -0.389 OA
HETATM   19  H   UNL     1      40.884 -13.467   6.303  1.00  0.00     0.210 HD
ENDBRANCH  17  18
BRANCH  17  20
HETATM   20  C   UNL     1      40.894 -14.664   4.303  1.00  0.00    -0.025 A 
HETATM   21  C   UNL     1      40.788 -15.380   3.095  1.00  0.00     0.046 A 
HETATM   22  C   UNL     1      41.339 -14.875   1.915  1.00  0.00     0.068 A 
HETATM   23  C   UNL     1      41.981 -13.637   1.937  1.00  0.00     0.037 A 
HETATM   24  C   UNL     1      42.091 -12.914   3.123  1.00  0.00     0.003 A 
HETATM   25  C   UNL     1      41.551 -13.425   4.302  1.00  0.00     0.010 A 
BRANCH  22  26
HETATM   26  O   UNL     1      41.303 -15.477   0.690  1.00  0.00    -0.356 OA
HETATM   27  C   UNL     1      41.470 -14.647  -0.452  1.00  0.00     0.210 C 
ENDBRANCH  22  26
ENDBRANCH  17  20
ENDBRANCH  16  17
ENDBRANCH   1  16
TORSDOF 8
ENDMDL
MODEL 8
REMARK VINA RESULT:      -7.3      2.079      4.731
REMARK  8 active torsions:
REMARK  status: ('A' for Active; 'I' for Inactive)
REMARK    1  A    between atoms: C_2  and  N_3 
REMARK    2  A    between atoms: C_2  and  C_17 
REMARK    3  A    between atoms: N_3  and  C_6 
REMARK    4  A    between atoms: C_6  and  C_7 
REMARK    5  A    between atoms: C_7  and  O_8 
REMARK    6  A    between atoms: C_7  and  C_9 
REMARK    7  A    between atoms: C_11  and  O_12 
REMARK    8  A    between atoms: C_17  and  C_18 
ROOT
HETATM    1  N   UNL     1      42.490 -14.904   6.531  1.00  0.00    -0.068 N 
HETATM    2  H   UNL     1      42.010 -15.802   6.752  1.00  0.00     0.277 HD
HETATM    3  H   UNL     1      42.265 -14.303   7.343  1.00  0.00     0.277 HD
ENDROOT
BRANCH   1   4
HETATM    4  C   UNL     1      43.957 -15.207   6.403  1.00  0.00     0.188 C 
HETATM    5  C   UNL     1      44.758 -14.176   7.190  1.00  0.00     0.040 C 
BRANCH   4   6
HETATM    6  C   UNL     1      44.250 -16.632   6.921  1.00  0.00     0.099 C 
BRANCH   6   7
HETATM    7  C   UNL     1      44.250 -17.635   5.805  1.00  0.00     0.078 A 
HETATM    8  S   UNL     1      44.736 -19.251   6.080  1.00  0.00    -0.073 SA
HETATM    9  C   UNL     1      44.401 -19.634   4.436  1.00  0.00     0.035 A 
HETATM   10  C   UNL     1      43.935 -18.487   3.788  1.00  0.00     0.074 A 
HETATM   11  C   UNL     1      44.538 -20.861   3.769  1.00  0.00     0.021 A 
HETATM   12  N   UNL     1      43.851 -17.346   4.581  1.00  0.00    -0.245 NA
HETATM   13  C   UNL     1      43.595 -18.572   2.422  1.00  0.00     0.033 A 
HETATM   14  C   UNL     1      43.728 -19.791   1.748  1.00  0.00     0.002 A 
HETATM   15  C   UNL     1      44.194 -20.919   2.415  1.00  0.00     0.002 A 
ENDBRANCH   6   7
ENDBRANCH   4   6
ENDBRANCH   1   4
BRANCH   1  16
HETATM   16  C   UNL     1      41.789 -14.302   5.345  1.00  0.00     0.269 C 
BRANCH  16  17
HETATM   17  C   UNL     1      40.771 -15.336   4.821  1.00  0.00     0.177 C 
BRANCH  17  18
HETATM   18  O   UNL     1      39.459 -14.883   5.197  1.00  0.00    -0.389 OA
HETATM   19  H   UNL     1      38.842 -15.614   4.993  1.00  0.00     0.210 HD
ENDBRANCH  17  18
BRANCH  17  20
HETATM   20  C   UNL     1      40.882 -15.533   3.330  1.00  0.00    -0.025 A 
HETATM   21  C   UNL     1      41.366 -14.510   2.490  1.00  0.00     0.046 A 
HETATM   22  C   UNL     1      41.491 -14.717   1.115  1.00  0.00     0.068 A 
HETATM   23  C   UNL     1      41.152 -15.959   0.577  1.00  0.00     0.037 A 
HETATM   24  C   UNL     1      40.676 -16.981   1.395  1.00  0.00     0.003 A 
HETATM   25  C   UNL     1      40.541 -16.770   2.766  1.00  0.00     0.010 A 
BRANCH  22  26
HETATM   26  O   UNL     1      41.942 -13.805   0.204  1.00  0.00    -0.356 OA
HETATM   27  C   UNL     1      40.994 -12.891  -0.333  1.00  0.00     0.210 C 
ENDBRANCH  22  26
ENDBRANCH  17  20
ENDBRANCH  16  17
ENDBRANCH   1  16
TORSDOF 8
ENDMDL
MODEL 9
REMARK VINA RESULT:      -7.3      2.219      5.306
REMARK  8 active torsions:
REMARK  status: ('A' for Active; 'I' for Inactive)
REMARK    1  A    between atoms: C_2  and  N_3 
REMARK    2  A    between atoms: C_2  and  C_17 
REMARK    3  A    between atoms: N_3  and  C_6 
REMARK    4  A    between atoms: C_6  and  C_7 
REMARK    5  A    between atoms: C_7  and  O_8 
REMARK    6  A    between atoms: C_7  and  C_9 
REMARK    7  A    between atoms: C_11  and  O_12 
REMARK    8  A    between atoms: C_17  and  C_18 
ROOT
HETATM    1  N   UNL     1      41.965 -16.431   0.607  1.00  0.00    -0.068 N 
HETATM    2  H   UNL     1      41.451 -16.562  -0.290  1.00  0.00     0.277 HD
HETATM    3  H   UNL     1      42.886 -16.067   0.307  1.00  0.00     0.277 HD
ENDROOT
BRANCH   1   4
HETATM    4  C   UNL     1      41.176 -15.451   1.430  1.00  0.00     0.188 C 
HETATM    5  C   UNL     1      40.222 -14.681   0.524  1.00  0.00     0.040 C 
BRANCH   4   6
HETATM    6  C   UNL     1      40.393 -16.196   2.533  1.00  0.00     0.099 C 
BRANCH   6   7
HETATM    7  C   UNL     1      41.165 -16.246   3.819  1.00  0.00     0.078 A 
HETATM    8  S   UNL     1      40.861 -17.468   4.976  1.00  0.00    -0.073 SA
HETATM    9  C   UNL     1      42.103 -16.829   5.980  1.00  0.00     0.035 A 
HETATM   10  C   UNL     1      42.669 -15.716   5.352  1.00  0.00     0.074 A 
HETATM   11  C   UNL     1      42.549 -17.281   7.232  1.00  0.00     0.021 A 
HETATM   12  N   UNL     1      42.124 -15.389   4.113  1.00  0.00    -0.245 NA
HETATM   13  C   UNL     1      43.717 -15.031   6.001  1.00  0.00     0.033 A 
HETATM   14  C   UNL     1      44.166 -15.474   7.250  1.00  0.00     0.002 A 
HETATM   15  C   UNL     1      43.588 -16.585   7.855  1.00  0.00     0.002 A 
ENDBRANCH   6   7
ENDBRANCH   4   6
ENDBRANCH   1   4
BRANCH   1  16
HETATM   16  C   UNL     1      42.212 -17.798   1.185  1.00  0.00     0.269 C 
BRANCH  16  17
HETATM   17  C   UNL     1      43.724 -17.930   1.458  1.00  0.00     0.177 C 
BRANCH  17  18
HETATM   18  O   UNL     1      44.178 -16.679   2.003  1.00  0.00    -0.389 OA
HETATM   19  H   UNL     1      45.155 -16.686   1.941  1.00  0.00     0.210 HD
ENDBRANCH  17  18
BRANCH  17  20
HETATM   20  C   UNL     1      44.032 -19.081   2.383  1.00  0.00    -0.025 A 
HETATM   21  C   UNL     1      44.176 -18.887   3.771  1.00  0.00     0.046 A 
HETATM   22  C   UNL     1      44.432 -19.966   4.619  1.00  0.00     0.068 A 
HETATM   23  C   UNL     1      44.524 -21.250   4.082  1.00  0.00     0.037 A 
HETATM   24  C   UNL     1      44.380 -21.459   2.712  1.00  0.00     0.003 A 
HETATM   25  C   UNL     1      44.136 -20.379   1.865  1.00  0.00     0.010 A 
BRANCH  22  26
HETATM   26  O   UNL     1      44.593 -19.902   5.974  1.00  0.00    -0.356 OA
HETATM   27  C   UNL     1      43.805 -20.780   6.769  1.00  0.00     0.210 C 
ENDBRANCH  22  26
ENDBRANCH  17  20
ENDBRANCH  16  17
ENDBRANCH   1  16
TORSDOF 8
ENDMDL
MODEL 10
REMARK VINA RESULT:      -7.3      3.035      5.878
REMARK  8 active torsions:
REMARK  status: ('A' for Active; 'I' for Inactive)
REMARK    1  A    between atoms: C_2  and  N_3 
REMARK    2  A    between atoms: C_2  and  C_17 
REMARK    3  A    between atoms: N_3  and  C_6 
REMARK    4  A    between atoms: C_6  and  C_7 
REMARK    5  A    between atoms: C_7  and  O_8 
REMARK    6  A    between atoms: C_7  and  C_9 
REMARK    7  A    between atoms: C_11  and  O_12 
REMARK    8  A    between atoms: C_17  and  C_18 
ROOT
HETATM    1  N   UNL     1      39.864 -15.656   2.870  1.00  0.00    -0.068 N 
HETATM    2  H   UNL     1      40.020 -16.684   2.815  1.00  0.00     0.277 HD
HETATM    3  H   UNL     1      38.897 -15.577   3.232  1.00  0.00     0.277 HD
ENDROOT
BRANCH   1   4
HETATM    4  C   UNL     1      40.897 -15.101   3.812  1.00  0.00     0.188 C 
HETATM    5  C   UNL     1      40.416 -13.764   4.362  1.00  0.00     0.040 C 
BRANCH   4   6
HETATM    6  C   UNL     1      41.155 -16.100   4.962  1.00  0.00     0.099 C 
BRANCH   6   7
HETATM    7  C   UNL     1      42.065 -17.213   4.532  1.00  0.00     0.078 A 
HETATM    8  S   UNL     1      43.191 -17.893   5.625  1.00  0.00    -0.073 SA
HETATM    9  C   UNL     1      43.701 -19.001   4.411  1.00  0.00     0.035 A 
HETATM   10  C   UNL     1      42.965 -18.770   3.246  1.00  0.00     0.074 A 
HETATM   11  C   UNL     1      44.680 -20.005   4.485  1.00  0.00     0.021 A 
HETATM   12  N   UNL     1      42.029 -17.743   3.325  1.00  0.00    -0.245 NA
HETATM   13  C   UNL     1      43.220 -19.573   2.114  1.00  0.00     0.033 A 
HETATM   14  C   UNL     1      44.193 -20.575   2.178  1.00  0.00     0.002 A 
HETATM   15  C   UNL     1      44.912 -20.786   3.350  1.00  0.00     0.002 A 
ENDBRANCH   6   7
ENDBRANCH   4   6
ENDBRANCH   1   4
BRANCH   1  16
HETATM   16  C   UNL     1      39.840 -15.129   1.462  1.00  0.00     0.269 C 
BRANCH  16  17
HETATM   17  C   UNL     1      41.043 -15.735   0.710  1.00  0.00     0.177 C 
BRANCH  17  18
HETATM   18  O   UNL     1      40.822 -17.152   0.608  1.00  0.00    -0.389 OA
HETATM   19  H   UNL     1      40.162 -17.281  -0.105  1.00  0.00     0.210 HD
ENDBRANCH  17  18
BRANCH  17  20
HETATM   20  C   UNL     1      41.235 -15.106  -0.647  1.00  0.00    -0.025 A 
HETATM   21  C   UNL     1      41.721 -13.790  -0.782  1.00  0.00     0.046 A 
HETATM   22  C   UNL     1      41.923 -13.231  -2.046  1.00  0.00     0.068 A 
HETATM   23  C   UNL     1      41.660 -13.997  -3.182  1.00  0.00     0.037 A 
HETATM   24  C   UNL     1      41.183 -15.301  -3.065  1.00  0.00     0.003 A 
HETATM   25  C   UNL     1      40.971 -15.854  -1.803  1.00  0.00     0.010 A 
BRANCH  22  26
HETATM   26  O   UNL     1      42.384 -11.971  -2.302  1.00  0.00    -0.356 OA
HETATM   27  C   UNL     1      43.093 -11.310  -1.261  1.00  0.00     0.210 C 
ENDBRANCH  22  26
ENDBRANCH  17  20
ENDBRANCH  16  17
ENDBRANCH   1  16
TORSDOF 8
ENDMDL
