MODEL 1
REMARK VINA RESULT:      -9.5      0.000      0.000
REMARK  9 active torsions:
REMARK  status: ('A' for Active; 'I' for Inactive)
REMARK    1  A    between atoms: C_2  and  C_3 
REMARK    2  A    between atoms: C_3  and  O_4 
REMARK    3  A    between atoms: O_4  and  C_5 
REMARK    4  A    between atoms: C_8  and  C_9 
REMARK       I    between atoms: C_9  and  N_10 
REMARK    5  A    between atoms: N_10  and  C_11 
REMARK    6  A    between atoms: C_11  and  N_12 
REMARK    7  A    between atoms: N_12  and  C_13 
REMARK    8  A    between atoms: C_15  and  C_16 
REMARK    9  A    between atoms: C_27  and  O_28 
ROOT
HETATM    1  C   UNL     1      43.972 -13.805   7.137  1.00  0.00     0.035 A 
HETATM    2  C   UNL     1      44.207 -15.067   6.579  1.00  0.00     0.048 A 
HETATM    3  C   UNL     1      43.531 -15.481   5.413  1.00  0.00     0.052 A 
HETATM    4  C   UNL     1      42.613 -14.598   4.822  1.00  0.00     0.080 A 
HETATM    5  C   UNL     1      42.372 -13.343   5.368  1.00  0.00     0.040 A 
HETATM    6  C   UNL     1      43.043 -12.953   6.525  1.00  0.00     0.032 A 
ENDROOT
BRANCH   1   7
HETATM    7  N   UNL     1      44.535 -13.348   8.345  1.00  0.00    -0.333 N 
HETATM    8  H   UNL     1      44.300 -13.901   9.166  1.00  0.00     0.168 HD
BRANCH   7   9
HETATM    9  C   UNL     1      45.520 -12.435   8.606  1.00  0.00     0.179 C 
HETATM   10  S   UNL     1      46.843 -12.450   7.577  1.00  0.00    -0.040 SA
BRANCH   9  11
HETATM   11  N   UNL     1      45.381 -11.669   9.738  1.00  0.00    -0.299 N 
HETATM   12  C   UNL     1      44.439 -11.928  10.720  1.00  0.00     0.257 C 
HETATM   13  O   UNL     1      44.433 -12.981  11.355  1.00  0.00    -0.267 OA
HETATM   14  H   UNL     1      45.624 -10.708   9.564  1.00  0.00     0.171 HD
BRANCH  12  15
HETATM   15  C   UNL     1      43.470 -10.850  11.086  1.00  0.00     0.032 A 
HETATM   16  C   UNL     1      43.692 -10.181  12.300  1.00  0.00     0.020 A 
HETATM   17  C   UNL     1      42.808  -9.200  12.761  1.00  0.00     0.038 A 
HETATM   18  C   UNL     1      41.685  -8.866  12.011  1.00  0.00     0.068 A 
HETATM   19  C   UNL     1      41.461  -9.521  10.796  1.00  0.00     0.038 A 
HETATM   20  C   UNL     1      42.340 -10.512  10.333  1.00  0.00     0.020 A 
BRANCH  18  21
HETATM   21  O   UNL     1      40.741  -7.935  12.351  1.00  0.00    -0.351 OA
BRANCH  21  22
HETATM   22  C   UNL     1      39.884  -8.258  13.449  1.00  0.00     0.175 C 
BRANCH  22  23
HETATM   23  C   UNL     1      38.440  -8.017  13.018  1.00  0.00     0.022 C 
HETATM   24  C   UNL     1      37.924  -9.142  12.137  1.00  0.00     0.007 C 
ENDBRANCH  22  23
ENDBRANCH  21  22
ENDBRANCH  18  21
ENDBRANCH  12  15
ENDBRANCH   9  11
ENDBRANCH   7   9
ENDBRANCH   1   7
BRANCH   3  25
HETATM   25  C   UNL     1      43.741 -16.809   4.841  1.00  0.00     0.183 A 
HETATM   26  O   UNL     1      44.119 -17.816   5.691  1.00  0.00    -0.289 OA
HETATM   27  C   UNL     1      44.217 -18.908   4.879  1.00  0.00     0.107 A 
HETATM   28  C   UNL     1      43.906 -18.511   3.592  1.00  0.00     0.094 A 
HETATM   29  C   UNL     1      44.558 -20.203   5.245  1.00  0.00     0.047 A 
HETATM   30  N   UNL     1      43.619 -17.169   3.573  1.00  0.00    -0.221 NA
HETATM   31  C   UNL     1      43.920 -19.464   2.567  1.00  0.00     0.041 A 
HETATM   32  C   UNL     1      44.260 -20.799   2.879  1.00  0.00    -0.054 A 
HETATM   33  C   UNL     1      44.568 -21.165   4.213  1.00  0.00    -0.053 A 
HETATM   34  C   UNL     1      44.232 -21.820   1.771  1.00  0.00     0.049 C 
HETATM   35  C   UNL     1      44.926 -22.587   4.564  1.00  0.00     0.049 C 
ENDBRANCH   3  25
BRANCH   4  36
HETATM   36  O   UNL     1      41.890 -14.911   3.699  1.00  0.00    -0.360 OA
HETATM   37  H   UNL     1      41.219 -14.210   3.552  1.00  0.00     0.217 HD
ENDBRANCH   4  36
TORSDOF 9
ENDMDL
MODEL 2
REMARK VINA RESULT:      -9.1      2.889      3.869
REMARK  9 active torsions:
REMARK  status: ('A' for Active; 'I' for Inactive)
REMARK    1  A    between atoms: C_2  and  C_3 
REMARK    2  A    between atoms: C_3  and  O_4 
REMARK    3  A    between atoms: O_4  and  C_5 
REMARK    4  A    between atoms: C_8  and  C_9 
REMARK       I    between atoms: C_9  and  N_10 
REMARK    5  A    between atoms: N_10  and  C_11 
REMARK    6  A    between atoms: C_11  and  N_12 
REMARK    7  A    between atoms: N_12  and  C_13 
REMARK    8  A    between atoms: C_15  and  C_16 
REMARK    9  A    between atoms: C_27  and  O_28 
ROOT
HETATM    1  C   UNL     1      41.194 -12.749   3.458  1.00  0.00     0.035 A 
HETATM    2  C   UNL     1      41.880 -13.968   3.399  1.00  0.00     0.048 A 
HETATM    3  C   UNL     1      41.252 -15.131   2.908  1.00  0.00     0.052 A 
HETATM    4  C   UNL     1      39.918 -15.041   2.480  1.00  0.00     0.080 A 
HETATM    5  C   UNL     1      39.227 -13.836   2.535  1.00  0.00     0.040 A 
HETATM    6  C   UNL     1      39.861 -12.698   3.029  1.00  0.00     0.032 A 
ENDROOT
BRANCH   1   7
HETATM    7  N   UNL     1      41.716 -11.564   4.014  1.00  0.00    -0.333 N 
HETATM    8  H   UNL     1      42.417 -11.095   3.448  1.00  0.00     0.168 HD
BRANCH   7   9
HETATM    9  C   UNL     1      41.305 -10.793   5.068  1.00  0.00     0.179 C 
HETATM   10  S   UNL     1      41.392  -9.132   4.856  1.00  0.00    -0.040 SA
BRANCH   9  11
HETATM   11  N   UNL     1      40.963 -11.446   6.227  1.00  0.00    -0.299 N 
HETATM   12  C   UNL     1      40.208 -10.865   7.232  1.00  0.00     0.257 C 
HETATM   13  O   UNL     1      39.058 -10.474   7.040  1.00  0.00    -0.267 OA
HETATM   14  H   UNL     1      41.670 -12.110   6.497  1.00  0.00     0.171 HD
BRANCH  12  15
HETATM   15  C   UNL     1      40.775 -10.810   8.615  1.00  0.00     0.032 A 
HETATM   16  C   UNL     1      42.163 -10.629   8.727  1.00  0.00     0.020 A 
HETATM   17  C   UNL     1      42.797 -10.626   9.973  1.00  0.00     0.038 A 
HETATM   18  C   UNL     1      42.051 -10.800  11.135  1.00  0.00     0.068 A 
HETATM   19  C   UNL     1      40.667 -10.972  11.033  1.00  0.00     0.038 A 
HETATM   20  C   UNL     1      40.027 -10.984   9.784  1.00  0.00     0.020 A 
BRANCH  18  21
HETATM   21  O   UNL     1      42.547 -10.825  12.410  1.00  0.00    -0.351 OA
BRANCH  21  22
HETATM   22  C   UNL     1      43.549  -9.857  12.729  1.00  0.00     0.175 C 
BRANCH  22  23
HETATM   23  C   UNL     1      43.204  -9.235  14.079  1.00  0.00     0.022 C 
HETATM   24  C   UNL     1      42.210 -10.087  14.851  1.00  0.00     0.007 C 
ENDBRANCH  22  23
ENDBRANCH  21  22
ENDBRANCH  18  21
ENDBRANCH  12  15
ENDBRANCH   9  11
ENDBRANCH   7   9
ENDBRANCH   1   7
BRANCH   3  25
HETATM   25  C   UNL     1      41.946 -16.416   2.875  1.00  0.00     0.183 A 
HETATM   26  O   UNL     1      42.657 -16.785   3.987  1.00  0.00    -0.289 OA
HETATM   27  C   UNL     1      43.163 -18.009   3.659  1.00  0.00     0.107 A 
HETATM   28  C   UNL     1      42.746 -18.312   2.377  1.00  0.00     0.094 A 
HETATM   29  C   UNL     1      43.953 -18.834   4.448  1.00  0.00     0.047 A 
HETATM   30  N   UNL     1      41.983 -17.286   1.878  1.00  0.00    -0.221 NA
HETATM   31  C   UNL     1      43.125 -19.535   1.812  1.00  0.00     0.041 A 
HETATM   32  C   UNL     1      43.931 -20.416   2.568  1.00  0.00    -0.054 A 
HETATM   33  C   UNL     1      44.333 -20.068   3.882  1.00  0.00    -0.053 A 
HETATM   34  C   UNL     1      44.298 -21.745   1.961  1.00  0.00     0.049 C 
HETATM   35  C   UNL     1      45.185 -21.001   4.705  1.00  0.00     0.049 C 
ENDBRANCH   3  25
BRANCH   4  36
HETATM   36  O   UNL     1      39.209 -16.115   2.006  1.00  0.00    -0.360 OA
HETATM   37  H   UNL     1      39.405 -16.894   2.570  1.00  0.00     0.217 HD
ENDBRANCH   4  36
TORSDOF 9
ENDMDL
MODEL 3
REMARK VINA RESULT:      -9.1      5.500     10.302
REMARK  9 active torsions:
REMARK  status: ('A' for Active; 'I' for Inactive)
REMARK    1  A    between atoms: C_2  and  C_3 
REMARK    2  A    between atoms: C_3  and  O_4 
REMARK    3  A    between atoms: O_4  and  C_5 
REMARK    4  A    between atoms: C_8  and  C_9 
REMARK       I    between atoms: C_9  and  N_10 
REMARK    5  A    between atoms: N_10  and  C_11 
REMARK    6  A    between atoms: C_11  and  N_12 
REMARK    7  A    between atoms: N_12  and  C_13 
REMARK    8  A    between atoms: C_15  and  C_16 
REMARK    9  A    between atoms: C_27  and  O_28 
ROOT
HETATM    1  C   UNL     1      40.346 -15.238   3.144  1.00  0.00     0.035 A 
HETATM    2  C   UNL     1      40.743 -14.127   2.390  1.00  0.00     0.048 A 
HETATM    3  C   UNL     1      41.269 -14.283   1.091  1.00  0.00     0.052 A 
HETATM    4  C   UNL     1      41.389 -15.582   0.569  1.00  0.00     0.080 A 
HETATM    5  C   UNL     1      40.998 -16.691   1.310  1.00  0.00     0.040 A 
HETATM    6  C   UNL     1      40.486 -16.518   2.594  1.00  0.00     0.032 A 
ENDROOT
BRANCH   1   7
HETATM    7  N   UNL     1      39.894 -15.178   4.478  1.00  0.00    -0.333 N 
HETATM    8  H   UNL     1      39.062 -15.728   4.676  1.00  0.00     0.168 HD
BRANCH   7   9
HETATM    9  C   UNL     1      40.481 -14.704   5.620  1.00  0.00     0.179 C 
HETATM   10  S   UNL     1      40.099 -13.132   6.059  1.00  0.00    -0.040 SA
BRANCH   9  11
HETATM   11  N   UNL     1      41.401 -15.518   6.236  1.00  0.00    -0.299 N 
HETATM   12  C   UNL     1      42.747 -15.529   5.906  1.00  0.00     0.257 C 
HETATM   13  O   UNL     1      43.455 -14.531   6.027  1.00  0.00    -0.267 OA
HETATM   14  H   UNL     1      40.985 -16.385   6.533  1.00  0.00     0.171 HD
BRANCH  12  15
HETATM   15  C   UNL     1      43.374 -16.822   5.492  1.00  0.00     0.032 A 
HETATM   16  C   UNL     1      44.126 -17.503   6.463  1.00  0.00     0.020 A 
HETATM   17  C   UNL     1      44.802 -18.688   6.158  1.00  0.00     0.038 A 
HETATM   18  C   UNL     1      44.734 -19.218   4.873  1.00  0.00     0.068 A 
HETATM   19  C   UNL     1      43.980 -18.551   3.903  1.00  0.00     0.038 A 
HETATM   20  C   UNL     1      43.306 -17.357   4.202  1.00  0.00     0.020 A 
BRANCH  18  21
HETATM   21  O   UNL     1      45.353 -20.361   4.444  1.00  0.00    -0.351 OA
BRANCH  21  22
HETATM   22  C   UNL     1      44.519 -21.503   4.232  1.00  0.00     0.175 C 
BRANCH  22  23
HETATM   23  C   UNL     1      44.768 -22.025   2.820  1.00  0.00     0.022 C 
HETATM   24  C   UNL     1      43.679 -21.580   1.858  1.00  0.00     0.007 C 
ENDBRANCH  22  23
ENDBRANCH  21  22
ENDBRANCH  18  21
ENDBRANCH  12  15
ENDBRANCH   9  11
ENDBRANCH   7   9
ENDBRANCH   1   7
BRANCH   3  25
HETATM   25  C   UNL     1      41.720 -13.136   0.309  1.00  0.00     0.183 A 
HETATM   26  O   UNL     1      41.465 -13.143  -1.038  1.00  0.00    -0.289 OA
HETATM   27  C   UNL     1      41.983 -11.958  -1.475  1.00  0.00     0.107 A 
HETATM   28  C   UNL     1      42.526 -11.305  -0.385  1.00  0.00     0.094 A 
HETATM   29  C   UNL     1      41.975 -11.461  -2.771  1.00  0.00     0.047 A 
HETATM   30  N   UNL     1      42.370 -12.068   0.745  1.00  0.00    -0.221 NA
HETATM   31  C   UNL     1      43.112 -10.047  -0.572  1.00  0.00     0.041 A 
HETATM   32  C   UNL     1      43.135  -9.491  -1.871  1.00  0.00    -0.054 A 
HETATM   33  C   UNL     1      42.561 -10.192  -2.960  1.00  0.00    -0.053 A 
HETATM   34  C   UNL     1      43.733  -8.119  -2.048  1.00  0.00     0.049 C 
HETATM   35  C   UNL     1      42.571  -9.609  -4.350  1.00  0.00     0.049 C 
ENDBRANCH   3  25
BRANCH   4  36
HETATM   36  O   UNL     1      41.906 -15.844  -0.673  1.00  0.00    -0.360 OA
HETATM   37  H   UNL     1      42.709 -16.399  -0.569  1.00  0.00     0.217 HD
ENDBRANCH   4  36
TORSDOF 9
ENDMDL
MODEL 4
REMARK VINA RESULT:      -9.0      5.290      7.028
REMARK  9 active torsions:
REMARK  status: ('A' for Active; 'I' for Inactive)
REMARK    1  A    between atoms: C_2  and  C_3 
REMARK    2  A    between atoms: C_3  and  O_4 
REMARK    3  A    between atoms: O_4  and  C_5 
REMARK    4  A    between atoms: C_8  and  C_9 
REMARK       I    between atoms: C_9  and  N_10 
REMARK    5  A    between atoms: N_10  and  C_11 
REMARK    6  A    between atoms: C_11  and  N_12 
REMARK    7  A    between atoms: N_12  and  C_13 
REMARK    8  A    between atoms: C_15  and  C_16 
REMARK    9  A    between atoms: C_27  and  O_28 
ROOT
HETATM    1  C   UNL     1      40.751 -12.915   1.523  1.00  0.00     0.035 A 
HETATM    2  C   UNL     1      41.378 -14.051   2.048  1.00  0.00     0.048 A 
HETATM    3  C   UNL     1      41.674 -15.160   1.229  1.00  0.00     0.052 A 
HETATM    4  C   UNL     1      41.325 -15.100  -0.130  1.00  0.00     0.080 A 
HETATM    5  C   UNL     1      40.703 -13.977  -0.662  1.00  0.00     0.040 A 
HETATM    6  C   UNL     1      40.411 -12.893   0.164  1.00  0.00     0.032 A 
ENDROOT
BRANCH   1   7
HETATM    7  N   UNL     1      40.340 -11.804   2.286  1.00  0.00    -0.333 N 
HETATM    8  H   UNL     1      40.756 -10.917   2.014  1.00  0.00     0.168 HD
BRANCH   7   9
HETATM    9  C   UNL     1      39.319 -11.639   3.182  1.00  0.00     0.179 C 
HETATM   10  S   UNL     1      38.060 -10.641   2.704  1.00  0.00    -0.040 SA
BRANCH   9  11
HETATM   11  N   UNL     1      39.470 -12.219   4.418  1.00  0.00    -0.299 N 
HETATM   12  C   UNL     1      40.689 -12.309   5.071  1.00  0.00     0.257 C 
HETATM   13  O   UNL     1      41.331 -11.310   5.391  1.00  0.00    -0.267 OA
HETATM   14  H   UNL     1      38.808 -12.964   4.559  1.00  0.00     0.171 HD
BRANCH  12  15
HETATM   15  C   UNL     1      41.181 -13.657   5.490  1.00  0.00     0.032 A 
HETATM   16  C   UNL     1      40.218 -14.671   5.624  1.00  0.00     0.020 A 
HETATM   17  C   UNL     1      40.568 -15.950   6.070  1.00  0.00     0.038 A 
HETATM   18  C   UNL     1      41.891 -16.239   6.386  1.00  0.00     0.068 A 
HETATM   19  C   UNL     1      42.857 -15.238   6.247  1.00  0.00     0.038 A 
HETATM   20  C   UNL     1      42.510 -13.951   5.809  1.00  0.00     0.020 A 
BRANCH  18  21
HETATM   21  O   UNL     1      42.363 -17.442   6.839  1.00  0.00    -0.351 OA
BRANCH  21  22
HETATM   22  C   UNL     1      43.181 -17.412   8.011  1.00  0.00     0.175 C 
BRANCH  22  23
HETATM   23  C   UNL     1      44.297 -18.440   7.844  1.00  0.00     0.022 C 
HETATM   24  C   UNL     1      45.394 -17.931   6.925  1.00  0.00     0.007 C 
ENDBRANCH  22  23
ENDBRANCH  21  22
ENDBRANCH  18  21
ENDBRANCH  12  15
ENDBRANCH   9  11
ENDBRANCH   7   9
ENDBRANCH   1   7
BRANCH   3  25
HETATM   25  C   UNL     1      42.295 -16.365   1.773  1.00  0.00     0.183 A 
HETATM   26  O   UNL     1      42.311 -17.485   0.983  1.00  0.00    -0.289 OA
HETATM   27  C   UNL     1      42.956 -18.414   1.747  1.00  0.00     0.107 A 
HETATM   28  C   UNL     1      43.287 -17.819   2.950  1.00  0.00     0.094 A 
HETATM   29  C   UNL     1      43.252 -19.727   1.407  1.00  0.00     0.047 A 
HETATM   30  N   UNL     1      42.848 -16.519   2.965  1.00  0.00    -0.221 NA
HETATM   31  C   UNL     1      43.976 -18.569   3.910  1.00  0.00     0.041 A 
HETATM   32  C   UNL     1      44.304 -19.913   3.620  1.00  0.00    -0.054 A 
HETATM   33  C   UNL     1      43.951 -20.482   2.371  1.00  0.00    -0.053 A 
HETATM   34  C   UNL     1      45.080 -20.695   4.648  1.00  0.00     0.049 C 
HETATM   35  C   UNL     1      44.300 -21.912   2.044  1.00  0.00     0.049 C 
ENDBRANCH   3  25
BRANCH   4  36
HETATM   36  O   UNL     1      41.551 -16.130  -1.007  1.00  0.00    -0.360 OA
HETATM   37  H   UNL     1      42.519 -16.276  -1.079  1.00  0.00     0.217 HD
ENDBRANCH   4  36
TORSDOF 9
ENDMDL
MODEL 5
REMARK VINA RESULT:      -8.8      6.030     10.370
REMARK  9 active torsions:
REMARK  status: ('A' for Active; 'I' for Inactive)
REMARK    1  A    between atoms: C_2  and  C_3 
REMARK    2  A    between atoms: C_3  and  O_4 
REMARK    3  A    between atoms: O_4  and  C_5 
REMARK    4  A    between atoms: C_8  and  C_9 
REMARK       I    between atoms: C_9  and  N_10 
REMARK    5  A    between atoms: N_10  and  C_11 
REMARK    6  A    between atoms: C_11  and  N_12 
REMARK    7  A    between atoms: N_12  and  C_13 
REMARK    8  A    between atoms: C_15  and  C_16 
REMARK    9  A    between atoms: C_27  and  O_28 
ROOT
HETATM    1  C   UNL     1      42.356 -13.100   2.851  1.00  0.00     0.035 A 
HETATM    2  C   UNL     1      42.727 -14.450   2.837  1.00  0.00     0.048 A 
HETATM    3  C   UNL     1      42.791 -15.198   4.030  1.00  0.00     0.052 A 
HETATM    4  C   UNL     1      42.475 -14.557   5.239  1.00  0.00     0.080 A 
HETATM    5  C   UNL     1      42.106 -13.217   5.265  1.00  0.00     0.040 A 
HETATM    6  C   UNL     1      42.055 -12.491   4.076  1.00  0.00     0.032 A 
ENDROOT
BRANCH   1   7
HETATM    7  N   UNL     1      42.354 -12.260   1.720  1.00  0.00    -0.333 N 
HETATM    8  H   UNL     1      42.966 -11.451   1.784  1.00  0.00     0.168 HD
BRANCH   7   9
HETATM    9  C   UNL     1      41.858 -12.432   0.456  1.00  0.00     0.179 C 
HETATM   10  S   UNL     1      42.464 -11.413  -0.729  1.00  0.00    -0.040 SA
BRANCH   9  11
HETATM   11  N   UNL     1      40.844 -13.346   0.300  1.00  0.00    -0.299 N 
HETATM   12  C   UNL     1      40.935 -14.446  -0.538  1.00  0.00     0.257 C 
HETATM   13  O   UNL     1      41.782 -15.321  -0.374  1.00  0.00    -0.267 OA
HETATM   14  H   UNL     1      39.941 -12.915   0.411  1.00  0.00     0.171 HD
BRANCH  12  15
HETATM   15  C   UNL     1      39.902 -14.621  -1.606  1.00  0.00     0.032 A 
HETATM   16  C   UNL     1      40.271 -15.382  -2.727  1.00  0.00     0.020 A 
HETATM   17  C   UNL     1      39.399 -15.552  -3.807  1.00  0.00     0.038 A 
HETATM   18  C   UNL     1      38.137 -14.967  -3.783  1.00  0.00     0.068 A 
HETATM   19  C   UNL     1      37.759 -14.215  -2.667  1.00  0.00     0.038 A 
HETATM   20  C   UNL     1      38.634 -14.033  -1.584  1.00  0.00     0.020 A 
BRANCH  18  21
HETATM   21  O   UNL     1      37.196 -15.049  -4.773  1.00  0.00    -0.351 OA
BRANCH  21  22
HETATM   22  C   UNL     1      35.947 -14.397  -4.530  1.00  0.00     0.175 C 
BRANCH  22  23
HETATM   23  C   UNL     1      35.657 -13.463  -5.702  1.00  0.00     0.022 C 
HETATM   24  C   UNL     1      34.404 -12.637  -5.463  1.00  0.00     0.007 C 
ENDBRANCH  22  23
ENDBRANCH  21  22
ENDBRANCH  18  21
ENDBRANCH  12  15
ENDBRANCH   9  11
ENDBRANCH   7   9
ENDBRANCH   1   7
BRANCH   3  25
HETATM   25  C   UNL     1      43.211 -16.597   4.032  1.00  0.00     0.183 A 
HETATM   26  O   UNL     1      43.191 -17.270   2.838  1.00  0.00    -0.289 OA
HETATM   27  C   UNL     1      43.642 -18.517   3.159  1.00  0.00     0.107 A 
HETATM   28  C   UNL     1      43.900 -18.539   4.517  1.00  0.00     0.094 A 
HETATM   29  C   UNL     1      43.827 -19.593   2.302  1.00  0.00     0.047 A 
HETATM   30  N   UNL     1      43.609 -17.317   5.069  1.00  0.00    -0.221 NA
HETATM   31  C   UNL     1      44.392 -19.716   5.094  1.00  0.00     0.041 A 
HETATM   32  C   UNL     1      44.600 -20.845   4.270  1.00  0.00    -0.054 A 
HETATM   33  C   UNL     1      44.327 -20.778   2.881  1.00  0.00    -0.053 A 
HETATM   34  C   UNL     1      45.167 -22.091   4.899  1.00  0.00     0.049 C 
HETATM   35  C   UNL     1      44.552 -21.971   1.988  1.00  0.00     0.049 C 
ENDBRANCH   3  25
BRANCH   4  36
HETATM   36  O   UNL     1      42.524 -15.186   6.456  1.00  0.00    -0.360 OA
HETATM   37  H   UNL     1      42.682 -16.144   6.309  1.00  0.00     0.217 HD
ENDBRANCH   4  36
TORSDOF 9
ENDMDL
MODEL 6
REMARK VINA RESULT:      -8.8      2.128      2.525
REMARK  9 active torsions:
REMARK  status: ('A' for Active; 'I' for Inactive)
REMARK    1  A    between atoms: C_2  and  C_3 
REMARK    2  A    between atoms: C_3  and  O_4 
REMARK    3  A    between atoms: O_4  and  C_5 
REMARK    4  A    between atoms: C_8  and  C_9 
REMARK       I    between atoms: C_9  and  N_10 
REMARK    5  A    between atoms: N_10  and  C_11 
REMARK    6  A    between atoms: C_11  and  N_12 
REMARK    7  A    between atoms: N_12  and  C_13 
REMARK    8  A    between atoms: C_15  and  C_16 
REMARK    9  A    between atoms: C_27  and  O_28 
ROOT
HETATM    1  C   UNL     1      42.444 -13.158   5.511  1.00  0.00     0.035 A 
HETATM    2  C   UNL     1      42.839 -14.481   5.283  1.00  0.00     0.048 A 
HETATM    3  C   UNL     1      42.848 -15.022   3.982  1.00  0.00     0.052 A 
HETATM    4  C   UNL     1      42.448 -14.202   2.914  1.00  0.00     0.080 A 
HETATM    5  C   UNL     1      42.054 -12.887   3.128  1.00  0.00     0.040 A 
HETATM    6  C   UNL     1      42.045 -12.371   4.422  1.00  0.00     0.032 A 
ENDROOT
BRANCH   1   7
HETATM    7  N   UNL     1      42.322 -12.567   6.784  1.00  0.00    -0.333 N 
HETATM    8  H   UNL     1      43.084 -12.767   7.427  1.00  0.00     0.168 HD
BRANCH   7   9
HETATM    9  C   UNL     1      41.489 -11.592   7.262  1.00  0.00     0.179 C 
HETATM   10  S   UNL     1      39.869 -11.727   6.856  1.00  0.00    -0.040 SA
BRANCH   9  11
HETATM   11  N   UNL     1      42.072 -10.545   7.936  1.00  0.00    -0.299 N 
HETATM   12  C   UNL     1      43.003 -10.718   8.948  1.00  0.00     0.257 C 
HETATM   13  O   UNL     1      44.081 -11.275   8.753  1.00  0.00    -0.267 OA
HETATM   14  H   UNL     1      41.448  -9.758   8.002  1.00  0.00     0.171 HD
BRANCH  12  15
HETATM   15  C   UNL     1      42.726 -10.113  10.287  1.00  0.00     0.032 A 
HETATM   16  C   UNL     1      43.690 -10.317  11.288  1.00  0.00     0.020 A 
HETATM   17  C   UNL     1      43.495  -9.845  12.590  1.00  0.00     0.038 A 
HETATM   18  C   UNL     1      42.332  -9.154  12.914  1.00  0.00     0.068 A 
HETATM   19  C   UNL     1      41.372  -8.938  11.921  1.00  0.00     0.038 A 
HETATM   20  C   UNL     1      41.558  -9.417  10.615  1.00  0.00     0.020 A 
BRANCH  18  21
HETATM   21  O   UNL     1      42.017  -8.649  14.147  1.00  0.00    -0.351 OA
BRANCH  21  22
HETATM   22  C   UNL     1      42.411  -9.425  15.280  1.00  0.00     0.175 C 
BRANCH  22  23
HETATM   23  C   UNL     1      41.283  -9.385  16.306  1.00  0.00     0.022 C 
HETATM   24  C   UNL     1      40.456  -8.116  16.180  1.00  0.00     0.007 C 
ENDBRANCH  22  23
ENDBRANCH  21  22
ENDBRANCH  18  21
ENDBRANCH  12  15
ENDBRANCH   9  11
ENDBRANCH   7   9
ENDBRANCH   1   7
BRANCH   3  25
HETATM   25  C   UNL     1      43.223 -16.412   3.736  1.00  0.00     0.183 A 
HETATM   26  O   UNL     1      43.689 -17.143   4.798  1.00  0.00    -0.289 OA
HETATM   27  C   UNL     1      43.934 -18.375   4.263  1.00  0.00     0.107 A 
HETATM   28  C   UNL     1      43.616 -18.326   2.919  1.00  0.00     0.094 A 
HETATM   29  C   UNL     1      44.409 -19.501   4.922  1.00  0.00     0.047 A 
HETATM   30  N   UNL     1      43.178 -17.068   2.587  1.00  0.00    -0.221 NA
HETATM   31  C   UNL     1      43.767 -19.482   2.144  1.00  0.00     0.041 A 
HETATM   32  C   UNL     1      44.248 -20.659   2.760  1.00  0.00    -0.054 A 
HETATM   33  C   UNL     1      44.558 -20.667   4.143  1.00  0.00    -0.053 A 
HETATM   34  C   UNL     1      44.368 -21.904   1.921  1.00  0.00     0.049 C 
HETATM   35  C   UNL     1      45.064 -21.917   4.817  1.00  0.00     0.049 C 
ENDBRANCH   3  25
BRANCH   4  36
HETATM   36  O   UNL     1      42.401 -14.636   1.614  1.00  0.00    -0.360 OA
HETATM   37  H   UNL     1      43.033 -14.106   1.082  1.00  0.00     0.217 HD
ENDBRANCH   4  36
TORSDOF 9
ENDMDL
MODEL 7
REMARK VINA RESULT:      -8.7      2.870      3.990
REMARK  9 active torsions:
REMARK  status: ('A' for Active; 'I' for Inactive)
REMARK    1  A    between atoms: C_2  and  C_3 
REMARK    2  A    between atoms: C_3  and  O_4 
REMARK    3  A    between atoms: O_4  and  C_5 
REMARK    4  A    between atoms: C_8  and  C_9 
REMARK       I    between atoms: C_9  and  N_10 
REMARK    5  A    between atoms: N_10  and  C_11 
REMARK    6  A    between atoms: C_11  and  N_12 
REMARK    7  A    between atoms: N_12  and  C_13 
REMARK    8  A    between atoms: C_15  and  C_16 
REMARK    9  A    between atoms: C_27  and  O_28 
ROOT
HETATM    1  C   UNL     1      41.947 -13.369   4.830  1.00  0.00     0.035 A 
HETATM    2  C   UNL     1      42.211 -14.664   4.368  1.00  0.00     0.048 A 
HETATM    3  C   UNL     1      43.166 -15.481   5.006  1.00  0.00     0.052 A 
HETATM    4  C   UNL     1      43.851 -14.966   6.118  1.00  0.00     0.080 A 
HETATM    5  C   UNL     1      43.597 -13.682   6.585  1.00  0.00     0.040 A 
HETATM    6  C   UNL     1      42.655 -12.885   5.938  1.00  0.00     0.032 A 
ENDROOT
BRANCH   1   7
HETATM    7  N   UNL     1      41.077 -12.457   4.200  1.00  0.00    -0.333 N 
HETATM    8  H   UNL     1      41.426 -12.059   3.331  1.00  0.00     0.168 HD
BRANCH   7   9
HETATM    9  C   UNL     1      39.756 -12.165   4.405  1.00  0.00     0.179 C 
HETATM   10  S   UNL     1      38.821 -11.929   3.034  1.00  0.00    -0.040 SA
BRANCH   9  11
HETATM   11  N   UNL     1      39.348 -11.990   5.706  1.00  0.00    -0.299 N 
HETATM   12  C   UNL     1      39.397 -10.770   6.360  1.00  0.00     0.257 C 
HETATM   13  O   UNL     1      38.765  -9.793   5.964  1.00  0.00    -0.267 OA
HETATM   14  H   UNL     1      39.498 -12.821   6.253  1.00  0.00     0.171 HD
BRANCH  12  15
HETATM   15  C   UNL     1      40.159 -10.674   7.643  1.00  0.00     0.032 A 
HETATM   16  C   UNL     1      39.528 -11.169   8.796  1.00  0.00     0.020 A 
HETATM   17  C   UNL     1      40.131 -11.070  10.053  1.00  0.00     0.038 A 
HETATM   18  C   UNL     1      41.383 -10.476  10.180  1.00  0.00     0.068 A 
HETATM   19  C   UNL     1      42.022  -9.988   9.037  1.00  0.00     0.038 A 
HETATM   20  C   UNL     1      41.417 -10.077   7.773  1.00  0.00     0.020 A 
BRANCH  18  21
HETATM   21  O   UNL     1      42.077 -10.309  11.349  1.00  0.00    -0.351 OA
BRANCH  21  22
HETATM   22  C   UNL     1      41.380 -10.616  12.559  1.00  0.00     0.175 C 
BRANCH  22  23
HETATM   23  C   UNL     1      42.387 -10.615  13.706  1.00  0.00     0.022 C 
HETATM   24  C   UNL     1      43.318  -9.416  13.633  1.00  0.00     0.007 C 
ENDBRANCH  22  23
ENDBRANCH  21  22
ENDBRANCH  18  21
ENDBRANCH  12  15
ENDBRANCH   9  11
ENDBRANCH   7   9
ENDBRANCH   1   7
BRANCH   3  25
HETATM   25  C   UNL     1      43.476 -16.820   4.511  1.00  0.00     0.183 A 
HETATM   26  O   UNL     1      43.826 -17.774   5.432  1.00  0.00    -0.289 OA
HETATM   27  C   UNL     1      44.034 -18.893   4.678  1.00  0.00     0.107 A 
HETATM   28  C   UNL     1      43.811 -18.562   3.355  1.00  0.00     0.094 A 
HETATM   29  C   UNL     1      44.398 -20.155   5.127  1.00  0.00     0.047 A 
HETATM   30  N   UNL     1      43.470 -17.236   3.255  1.00  0.00    -0.221 NA
HETATM   31  C   UNL     1      43.946 -19.554   2.377  1.00  0.00     0.041 A 
HETATM   32  C   UNL     1      44.316 -20.859   2.774  1.00  0.00    -0.054 A 
HETATM   33  C   UNL     1      44.531 -21.156   4.142  1.00  0.00    -0.053 A 
HETATM   34  C   UNL     1      44.419 -21.924   1.713  1.00  0.00     0.049 C 
HETATM   35  C   UNL     1      44.918 -22.545   4.583  1.00  0.00     0.049 C 
ENDBRANCH   3  25
BRANCH   4  36
HETATM   36  O   UNL     1      44.812 -15.670   6.798  1.00  0.00    -0.360 OA
HETATM   37  H   UNL     1      45.685 -15.488   6.388  1.00  0.00     0.217 HD
ENDBRANCH   4  36
TORSDOF 9
ENDMDL
MODEL 8
REMARK VINA RESULT:      -8.5      5.586      7.679
REMARK  9 active torsions:
REMARK  status: ('A' for Active; 'I' for Inactive)
REMARK    1  A    between atoms: C_2  and  C_3 
REMARK    2  A    between atoms: C_3  and  O_4 
REMARK    3  A    between atoms: O_4  and  C_5 
REMARK    4  A    between atoms: C_8  and  C_9 
REMARK       I    between atoms: C_9  and  N_10 
REMARK    5  A    between atoms: N_10  and  C_11 
REMARK    6  A    between atoms: C_11  and  N_12 
REMARK    7  A    between atoms: N_12  and  C_13 
REMARK    8  A    between atoms: C_15  and  C_16 
REMARK    9  A    between atoms: C_27  and  O_28 
ROOT
HETATM    1  C   UNL     1      38.565 -13.634   0.387  1.00  0.00     0.035 A 
HETATM    2  C   UNL     1      39.374 -14.549   1.070  1.00  0.00     0.048 A 
HETATM    3  C   UNL     1      40.468 -15.167   0.432  1.00  0.00     0.052 A 
HETATM    4  C   UNL     1      40.730 -14.845  -0.910  1.00  0.00     0.080 A 
HETATM    5  C   UNL     1      39.933 -13.938  -1.597  1.00  0.00     0.040 A 
HETATM    6  C   UNL     1      38.851 -13.341  -0.953  1.00  0.00     0.032 A 
ENDROOT
BRANCH   1   7
HETATM    7  N   UNL     1      37.403 -13.040   0.920  1.00  0.00    -0.333 N 
HETATM    8  H   UNL     1      36.649 -13.687   1.134  1.00  0.00     0.168 HD
BRANCH   7   9
HETATM    9  C   UNL     1      37.165 -11.788   1.419  1.00  0.00     0.179 C 
HETATM   10  S   UNL     1      36.165 -10.799   0.508  1.00  0.00    -0.040 SA
BRANCH   9  11
HETATM   11  N   UNL     1      37.845 -11.427   2.558  1.00  0.00    -0.299 N 
HETATM   12  C   UNL     1      39.203 -11.159   2.578  1.00  0.00     0.257 C 
HETATM   13  O   UNL     1      39.697 -10.246   1.918  1.00  0.00    -0.267 OA
HETATM   14  H   UNL     1      37.438 -11.847   3.377  1.00  0.00     0.171 HD
BRANCH  12  15
HETATM   15  C   UNL     1      40.075 -11.937   3.511  1.00  0.00     0.032 A 
HETATM   16  C   UNL     1      41.377 -12.226   3.073  1.00  0.00     0.020 A 
HETATM   17  C   UNL     1      42.248 -13.000   3.846  1.00  0.00     0.038 A 
HETATM   18  C   UNL     1      41.833 -13.497   5.077  1.00  0.00     0.068 A 
HETATM   19  C   UNL     1      40.541 -13.206   5.525  1.00  0.00     0.038 A 
HETATM   20  C   UNL     1      39.659 -12.437   4.749  1.00  0.00     0.020 A 
BRANCH  18  21
HETATM   21  O   UNL     1      42.580 -14.270   5.924  1.00  0.00    -0.351 OA
BRANCH  21  22
HETATM   22  C   UNL     1      43.722 -13.651   6.521  1.00  0.00     0.175 C 
BRANCH  22  23
HETATM   23  C   UNL     1      44.691 -14.747   6.956  1.00  0.00     0.022 C 
HETATM   24  C   UNL     1      43.980 -16.073   7.162  1.00  0.00     0.007 C 
ENDBRANCH  22  23
ENDBRANCH  21  22
ENDBRANCH  18  21
ENDBRANCH  12  15
ENDBRANCH   9  11
ENDBRANCH   7   9
ENDBRANCH   1   7
BRANCH   3  25
HETATM   25  C   UNL     1      41.298 -16.151   1.123  1.00  0.00     0.183 A 
HETATM   26  O   UNL     1      41.254 -16.172   2.493  1.00  0.00    -0.289 OA
HETATM   27  C   UNL     1      42.104 -17.185   2.831  1.00  0.00     0.107 A 
HETATM   28  C   UNL     1      42.621 -17.714   1.663  1.00  0.00     0.094 A 
HETATM   29  C   UNL     1      42.413 -17.636   4.107  1.00  0.00     0.047 A 
HETATM   30  N   UNL     1      42.115 -17.040   0.580  1.00  0.00    -0.221 NA
HETATM   31  C   UNL     1      43.516 -18.786   1.743  1.00  0.00     0.041 A 
HETATM   32  C   UNL     1      43.869 -19.288   3.016  1.00  0.00    -0.054 A 
HETATM   33  C   UNL     1      43.312 -18.719   4.189  1.00  0.00    -0.053 A 
HETATM   34  C   UNL     1      44.803 -20.468   3.084  1.00  0.00     0.049 C 
HETATM   35  C   UNL     1      43.672 -19.248   5.554  1.00  0.00     0.049 C 
ENDBRANCH   3  25
BRANCH   4  36
HETATM   36  O   UNL     1      41.755 -15.404  -1.628  1.00  0.00    -0.360 OA
HETATM   37  H   UNL     1      42.593 -15.278  -1.131  1.00  0.00     0.217 HD
ENDBRANCH   4  36
TORSDOF 9
ENDMDL
MODEL 9
REMARK VINA RESULT:      -8.4      5.433      8.699
REMARK  9 active torsions:
REMARK  status: ('A' for Active; 'I' for Inactive)
REMARK    1  A    between atoms: C_2  and  C_3 
REMARK    2  A    between atoms: C_3  and  O_4 
REMARK    3  A    between atoms: O_4  and  C_5 
REMARK    4  A    between atoms: C_8  and  C_9 
REMARK       I    between atoms: C_9  and  N_10 
REMARK    5  A    between atoms: N_10  and  C_11 
REMARK    6  A    between atoms: C_11  and  N_12 
REMARK    7  A    between atoms: N_12  and  C_13 
REMARK    8  A    between atoms: C_15  and  C_16 
REMARK    9  A    between atoms: C_27  and  O_28 
ROOT
HETATM    1  C   UNL     1      41.342 -13.006   4.327  1.00  0.00     0.035 A 
HETATM    2  C   UNL     1      41.946 -14.211   3.949  1.00  0.00     0.048 A 
HETATM    3  C   UNL     1      41.557 -15.432   4.536  1.00  0.00     0.052 A 
HETATM    4  C   UNL     1      40.549 -15.414   5.514  1.00  0.00     0.080 A 
HETATM    5  C   UNL     1      39.944 -14.224   5.897  1.00  0.00     0.040 A 
HETATM    6  C   UNL     1      40.345 -13.025   5.311  1.00  0.00     0.032 A 
ENDROOT
BRANCH   1   7
HETATM    7  N   UNL     1      41.730 -11.735   3.857  1.00  0.00    -0.333 N 
HETATM    8  H   UNL     1      42.598 -11.719   3.329  1.00  0.00     0.168 HD
BRANCH   7   9
HETATM    9  C   UNL     1      41.057 -10.547   3.778  1.00  0.00     0.179 C 
HETATM   10  S   UNL     1      41.241  -9.495   5.070  1.00  0.00    -0.040 SA
BRANCH   9  11
HETATM   11  N   UNL     1      40.216 -10.373   2.704  1.00  0.00    -0.299 N 
HETATM   12  C   UNL     1      38.973 -10.977   2.607  1.00  0.00     0.257 C 
HETATM   13  O   UNL     1      38.079 -10.760   3.422  1.00  0.00    -0.267 OA
HETATM   14  H   UNL     1      40.733 -10.226   1.853  1.00  0.00     0.171 HD
BRANCH  12  15
HETATM   15  C   UNL     1      38.683 -11.833   1.415  1.00  0.00     0.032 A 
HETATM   16  C   UNL     1      38.948 -13.206   1.540  1.00  0.00     0.020 A 
HETATM   17  C   UNL     1      38.768 -14.081   0.464  1.00  0.00     0.038 A 
HETATM   18  C   UNL     1      38.315 -13.597  -0.759  1.00  0.00     0.068 A 
HETATM   19  C   UNL     1      38.040 -12.232  -0.889  1.00  0.00     0.038 A 
HETATM   20  C   UNL     1      38.227 -11.349   0.185  1.00  0.00     0.020 A 
BRANCH  18  21
HETATM   21  O   UNL     1      38.106 -14.341  -1.888  1.00  0.00    -0.351 OA
BRANCH  21  22
HETATM   22  C   UNL     1      38.869 -13.986  -3.044  1.00  0.00     0.175 C 
BRANCH  22  23
HETATM   23  C   UNL     1      39.514 -15.251  -3.601  1.00  0.00     0.022 C 
HETATM   24  C   UNL     1      40.726 -15.669  -2.785  1.00  0.00     0.007 C 
ENDBRANCH  22  23
ENDBRANCH  21  22
ENDBRANCH  18  21
ENDBRANCH  12  15
ENDBRANCH   9  11
ENDBRANCH   7   9
ENDBRANCH   1   7
BRANCH   3  25
HETATM   25  C   UNL     1      42.205 -16.691   4.176  1.00  0.00     0.183 A 
HETATM   26  O   UNL     1      42.866 -17.373   5.164  1.00  0.00    -0.289 OA
HETATM   27  C   UNL     1      43.337 -18.487   4.533  1.00  0.00     0.107 A 
HETATM   28  C   UNL     1      42.951 -18.420   3.208  1.00  0.00     0.094 A 
HETATM   29  C   UNL     1      44.071 -19.526   5.090  1.00  0.00     0.047 A 
HETATM   30  N   UNL     1      42.243 -17.266   2.984  1.00  0.00    -0.221 NA
HETATM   31  C   UNL     1      43.304 -19.464   2.345  1.00  0.00     0.041 A 
HETATM   32  C   UNL     1      44.052 -20.549   2.856  1.00  0.00    -0.054 A 
HETATM   33  C   UNL     1      44.424 -20.581   4.223  1.00  0.00    -0.053 A 
HETATM   34  C   UNL     1      44.390 -21.683   1.924  1.00  0.00     0.049 C 
HETATM   35  C   UNL     1      45.215 -21.734   4.785  1.00  0.00     0.049 C 
ENDBRANCH   3  25
BRANCH   4  36
HETATM   36  O   UNL     1      40.113 -16.542   6.160  1.00  0.00    -0.360 OA
HETATM   37  H   UNL     1      39.618 -16.273   6.964  1.00  0.00     0.217 HD
ENDBRANCH   4  36
TORSDOF 9
ENDMDL
MODEL 10
REMARK VINA RESULT:      -8.4      3.502      8.933
REMARK  9 active torsions:
REMARK  status: ('A' for Active; 'I' for Inactive)
REMARK    1  A    between atoms: C_2  and  C_3 
REMARK    2  A    between atoms: C_3  and  O_4 
REMARK    3  A    between atoms: O_4  and  C_5 
REMARK    4  A    between atoms: C_8  and  C_9 
REMARK       I    between atoms: C_9  and  N_10 
REMARK    5  A    between atoms: N_10  and  C_11 
REMARK    6  A    between atoms: C_11  and  N_12 
REMARK    7  A    between atoms: N_12  and  C_13 
REMARK    8  A    between atoms: C_15  and  C_16 
REMARK    9  A    between atoms: C_27  and  O_28 
ROOT
HETATM    1  C   UNL     1      44.825 -13.875   7.455  1.00  0.00     0.035 A 
HETATM    2  C   UNL     1      44.032 -13.211   8.399  1.00  0.00     0.048 A 
HETATM    3  C   UNL     1      44.508 -12.066   9.069  1.00  0.00     0.052 A 
HETATM    4  C   UNL     1      45.800 -11.605   8.771  1.00  0.00     0.080 A 
HETATM    5  C   UNL     1      46.596 -12.256   7.836  1.00  0.00     0.040 A 
HETATM    6  C   UNL     1      46.112 -13.391   7.188  1.00  0.00     0.032 A 
ENDROOT
BRANCH   1   7
HETATM    7  N   UNL     1      44.462 -15.072   6.807  1.00  0.00    -0.333 N 
HETATM    8  H   UNL     1      45.200 -15.505   6.257  1.00  0.00     0.168 HD
BRANCH   7   9
HETATM    9  C   UNL     1      43.378 -15.895   6.948  1.00  0.00     0.179 C 
HETATM   10  S   UNL     1      43.627 -17.322   7.790  1.00  0.00    -0.040 SA
BRANCH   9  11
HETATM   11  N   UNL     1      42.223 -15.525   6.302  1.00  0.00    -0.299 N 
HETATM   12  C   UNL     1      42.181 -14.548   5.321  1.00  0.00     0.257 C 
HETATM   13  O   UNL     1      42.810 -14.652   4.270  1.00  0.00    -0.267 OA
HETATM   14  H   UNL     1      41.419 -15.623   6.900  1.00  0.00     0.171 HD
BRANCH  12  15
HETATM   15  C   UNL     1      41.259 -13.384   5.507  1.00  0.00     0.032 A 
HETATM   16  C   UNL     1      41.707 -12.138   5.040  1.00  0.00     0.020 A 
HETATM   17  C   UNL     1      40.946 -10.979   5.222  1.00  0.00     0.038 A 
HETATM   18  C   UNL     1      39.718 -11.046   5.871  1.00  0.00     0.068 A 
HETATM   19  C   UNL     1      39.260 -12.285   6.330  1.00  0.00     0.038 A 
HETATM   20  C   UNL     1      40.024 -13.450   6.159  1.00  0.00     0.020 A 
BRANCH  18  21
HETATM   21  O   UNL     1      38.883  -9.990   6.119  1.00  0.00    -0.351 OA
BRANCH  21  22
HETATM   22  C   UNL     1      39.485  -8.803   6.640  1.00  0.00     0.175 C 
BRANCH  22  23
HETATM   23  C   UNL     1      39.859  -9.054   8.098  1.00  0.00     0.022 C 
HETATM   24  C   UNL     1      38.645  -9.429   8.931  1.00  0.00     0.007 C 
ENDBRANCH  22  23
ENDBRANCH  21  22
ENDBRANCH  18  21
ENDBRANCH  12  15
ENDBRANCH   9  11
ENDBRANCH   7   9
ENDBRANCH   1   7
BRANCH   3  25
HETATM   25  C   UNL     1      43.705 -11.387  10.082  1.00  0.00     0.183 A 
HETATM   26  O   UNL     1      44.221 -11.292  11.348  1.00  0.00    -0.289 OA
HETATM   27  C   UNL     1      43.266 -10.607  12.041  1.00  0.00     0.107 A 
HETATM   28  C   UNL     1      42.226 -10.332  11.172  1.00  0.00     0.094 A 
HETATM   29  C   UNL     1      43.299 -10.230  13.376  1.00  0.00     0.047 A 
HETATM   30  N   UNL     1      42.506 -10.845   9.930  1.00  0.00    -0.221 NA
HETATM   31  C   UNL     1      41.120  -9.617  11.644  1.00  0.00     0.041 A 
HETATM   32  C   UNL     1      41.098  -9.207  12.996  1.00  0.00    -0.054 A 
HETATM   33  C   UNL     1      42.187  -9.506  13.852  1.00  0.00    -0.053 A 
HETATM   34  C   UNL     1      39.917  -8.405  13.479  1.00  0.00     0.049 C 
HETATM   35  C   UNL     1      42.182  -9.069  15.295  1.00  0.00     0.049 C 
ENDBRANCH   3  25
BRANCH   4  36
HETATM   36  O   UNL     1      46.365 -10.514   9.380  1.00  0.00    -0.360 OA
HETATM   37  H   UNL     1      46.904 -10.822  10.141  1.00  0.00     0.217 HD
ENDBRANCH   4  36
TORSDOF 9
ENDMDL
