MODEL 1
REMARK VINA RESULT:      -8.6      0.000      0.000
REMARK  12 active torsions:
REMARK  status: ('A' for Active; 'I' for Inactive)
REMARK    1  A    between atoms: C_2  and  O_3 
REMARK    2  A    between atoms: O_3  and  C_4 
REMARK    3  A    between atoms: C_5  and  N_6 
REMARK    4  A    between atoms: C_7  and  S_8 
REMARK    5  A    between atoms: S_8  and  C_9 
REMARK    6  A    between atoms: C_9  and  C_10 
REMARK       I    between atoms: C_10  and  N_11 
REMARK    7  A    between atoms: N_11  and  C_12 
REMARK    8  A    between atoms: C_12  and  C_13 
REMARK    9  A    between atoms: C_13  and  C_14 
REMARK   10  A    between atoms: C_17  and  S_18 
REMARK   11  A    between atoms: S_18  and  N_19 
REMARK   12  A    between atoms: C_28  and  N_29 
ROOT
HETATM    1  N   UNL     1      41.584 -15.192   2.526  1.00  0.00    -0.273 N 
HETATM    2  C   UNL     1      42.109 -14.079   3.107  1.00  0.00     0.177 A 
HETATM    3  N   UNL     1      41.516 -12.863   3.145  1.00  0.00    -0.204 NA
HETATM    4  C   UNL     1      40.318 -12.880   2.558  1.00  0.00     0.162 A 
HETATM    5  C   UNL     1      39.695 -13.964   1.977  1.00  0.00     0.081 A 
HETATM    6  C   UNL     1      40.340 -15.212   1.972  1.00  0.00     0.124 A 
HETATM    7  N   UNL     1      39.472 -11.818   2.427  1.00  0.00    -0.260 N 
HETATM    8  H   UNL     1      39.614 -10.865   2.746  1.00  0.00     0.191 HD
HETATM    9  N   UNL     1      38.333 -12.127   1.791  1.00  0.00    -0.177 NA
HETATM   10  C   UNL     1      38.459 -13.428   1.502  1.00  0.00     0.068 A 
HETATM   11  C   UNL     1      37.373 -14.114   0.755  1.00  0.00     0.073 C 
ENDROOT
BRANCH   2  12
HETATM   12  S   UNL     1      43.703 -14.118   3.947  1.00  0.00    -0.082 SA
BRANCH  12  13
HETATM   13  C   UNL     1      43.169 -13.714   5.643  1.00  0.00     0.185 C 
BRANCH  13  14
HETATM   14  C   UNL     1      44.233 -13.986   6.706  1.00  0.00     0.227 C 
HETATM   15  N   UNL     1      44.398 -12.925   7.573  1.00  0.00    -0.360 N 
HETATM   16  H   UNL     1      43.873 -12.070   7.423  1.00  0.00     0.162 HD
HETATM   17  O   UNL     1      44.850 -15.044   6.807  1.00  0.00    -0.273 OA
BRANCH  15  18
HETATM   18  C   UNL     1      45.185 -13.002   8.793  1.00  0.00     0.127 C 
BRANCH  18  19
HETATM   19  C   UNL     1      45.538 -11.639   9.397  1.00  0.00     0.058 C 
BRANCH  19  20
HETATM   20  C   UNL     1      44.631 -11.305  10.560  1.00  0.00    -0.057 A 
HETATM   21  C   UNL     1      44.106 -12.319  11.376  1.00  0.00     0.009 A 
HETATM   22  C   UNL     1      43.212 -12.012  12.405  1.00  0.00     0.025 A 
HETATM   23  C   UNL     1      42.853 -10.681  12.633  1.00  0.00     0.074 A 
HETATM   24  C   UNL     1      43.376  -9.659  11.838  1.00  0.00     0.025 A 
HETATM   25  C   UNL     1      44.264  -9.973  10.808  1.00  0.00     0.009 A 
BRANCH  23  26
HETATM   26  S   UNL     1      41.653 -10.302  13.879  1.00  0.00     0.239 S 
HETATM   27  O   UNL     1      40.538 -11.209  13.751  1.00  0.00    -0.206 OA
HETATM   28  O   UNL     1      42.335 -10.081  15.131  1.00  0.00    -0.206 OA
BRANCH  26  29
HETATM   29  N   UNL     1      41.090  -8.802  13.381  1.00  0.00    -0.225 NA
HETATM   30  H   UNL     1      40.073  -8.831  13.285  1.00  0.00     0.136 HD
HETATM   31  H   UNL     1      41.414  -8.081  14.026  1.00  0.00     0.136 HD
ENDBRANCH  26  29
ENDBRANCH  23  26
ENDBRANCH  19  20
ENDBRANCH  18  19
ENDBRANCH  15  18
ENDBRANCH  13  14
ENDBRANCH  12  13
ENDBRANCH   2  12
BRANCH   1  32
HETATM   32  C   UNL     1      42.407 -16.358   2.373  1.00  0.00     0.076 A 
HETATM   33  C   UNL     1      42.249 -17.408   3.289  1.00  0.00     0.096 A 
HETATM   34  C   UNL     1      43.033 -18.549   3.137  1.00  0.00     0.039 A 
HETATM   35  C   UNL     1      43.989 -18.603   2.116  1.00  0.00     0.003 A 
HETATM   36  C   UNL     1      44.162 -17.526   1.238  1.00  0.00     0.002 A 
HETATM   37  C   UNL     1      43.369 -16.387   1.362  1.00  0.00     0.033 A 
BRANCH  33  38
HETATM   38  O   UNL     1      41.271 -17.296   4.240  1.00  0.00    -0.349 OA
BRANCH  38  39
HETATM   39  C   UNL     1      41.617 -17.837   5.525  1.00  0.00     0.171 C 
HETATM   40  C   UNL     1      41.458 -16.765   6.585  1.00  0.00     0.034 C 
ENDBRANCH  38  39
ENDBRANCH  33  38
ENDBRANCH   1  32
BRANCH   6  41
HETATM   41  N   UNL     1      39.767 -16.362   1.430  1.00  0.00    -0.384 N 
HETATM   42  H   UNL     1      39.442 -16.315   0.470  1.00  0.00     0.157 HD
HETATM   43  H   UNL     1      39.215 -16.974   2.021  1.00  0.00     0.157 HD
ENDBRANCH   6  41
TORSDOF 12
ENDMDL
MODEL 2
REMARK VINA RESULT:      -8.5      1.845      2.846
REMARK  12 active torsions:
REMARK  status: ('A' for Active; 'I' for Inactive)
REMARK    1  A    between atoms: C_2  and  O_3 
REMARK    2  A    between atoms: O_3  and  C_4 
REMARK    3  A    between atoms: C_5  and  N_6 
REMARK    4  A    between atoms: C_7  and  S_8 
REMARK    5  A    between atoms: S_8  and  C_9 
REMARK    6  A    between atoms: C_9  and  C_10 
REMARK       I    between atoms: C_10  and  N_11 
REMARK    7  A    between atoms: N_11  and  C_12 
REMARK    8  A    between atoms: C_12  and  C_13 
REMARK    9  A    between atoms: C_13  and  C_14 
REMARK   10  A    between atoms: C_17  and  S_18 
REMARK   11  A    between atoms: S_18  and  N_19 
REMARK   12  A    between atoms: C_28  and  N_29 
ROOT
HETATM    1  N   UNL     1      41.730 -14.877   3.347  1.00  0.00    -0.273 N 
HETATM    2  C   UNL     1      42.232 -13.638   3.603  1.00  0.00     0.177 A 
HETATM    3  N   UNL     1      42.469 -12.683   2.674  1.00  0.00    -0.204 NA
HETATM    4  C   UNL     1      42.124 -13.089   1.451  1.00  0.00     0.162 A 
HETATM    5  C   UNL     1      41.579 -14.307   1.104  1.00  0.00     0.081 A 
HETATM    6  C   UNL     1      41.336 -15.265   2.103  1.00  0.00     0.124 A 
HETATM    7  N   UNL     1      42.242 -12.364   0.301  1.00  0.00    -0.260 N 
HETATM    8  H   UNL     1      42.603 -11.422   0.193  1.00  0.00     0.191 HD
HETATM    9  N   UNL     1      41.816 -13.026  -0.785  1.00  0.00    -0.177 NA
HETATM   10  C   UNL     1      41.419 -14.214  -0.312  1.00  0.00     0.068 A 
HETATM   11  C   UNL     1      40.906 -15.237  -1.260  1.00  0.00     0.073 C 
ENDROOT
BRANCH   2  12
HETATM   12  S   UNL     1      42.622 -13.108   5.281  1.00  0.00    -0.082 SA
BRANCH  12  13
HETATM   13  C   UNL     1      44.240 -13.921   5.495  1.00  0.00     0.185 C 
BRANCH  13  14
HETATM   14  C   UNL     1      44.684 -14.037   6.953  1.00  0.00     0.227 C 
HETATM   15  N   UNL     1      45.413 -12.944   7.373  1.00  0.00    -0.360 N 
HETATM   16  H   UNL     1      45.636 -12.208   6.713  1.00  0.00     0.162 HD
HETATM   17  O   UNL     1      44.394 -14.981   7.687  1.00  0.00    -0.273 OA
BRANCH  15  18
HETATM   18  C   UNL     1      45.769 -12.705   8.762  1.00  0.00     0.127 C 
BRANCH  18  19
HETATM   19  C   UNL     1      45.426 -11.298   9.263  1.00  0.00     0.058 C 
BRANCH  19  20
HETATM   20  C   UNL     1      44.182 -11.312  10.123  1.00  0.00    -0.057 A 
HETATM   21  C   UNL     1      42.960 -10.832   9.626  1.00  0.00     0.009 A 
HETATM   22  C   UNL     1      41.831 -10.781  10.447  1.00  0.00     0.025 A 
HETATM   23  C   UNL     1      41.915 -11.231  11.767  1.00  0.00     0.074 A 
HETATM   24  C   UNL     1      43.120 -11.723  12.273  1.00  0.00     0.025 A 
HETATM   25  C   UNL     1      44.247 -11.766  11.450  1.00  0.00     0.009 A 
BRANCH  23  26
HETATM   26  S   UNL     1      40.508 -11.084  12.831  1.00  0.00     0.239 S 
HETATM   27  O   UNL     1      40.959 -10.811  14.175  1.00  0.00    -0.206 OA
HETATM   28  O   UNL     1      39.505 -10.283  12.171  1.00  0.00    -0.206 OA
BRANCH  26  29
HETATM   29  N   UNL     1      39.914 -12.653  12.851  1.00  0.00    -0.225 NA
HETATM   30  H   UNL     1      40.368 -13.202  12.118  1.00  0.00     0.136 HD
HETATM   31  H   UNL     1      40.028 -13.052  13.783  1.00  0.00     0.136 HD
ENDBRANCH  26  29
ENDBRANCH  23  26
ENDBRANCH  19  20
ENDBRANCH  18  19
ENDBRANCH  15  18
ENDBRANCH  13  14
ENDBRANCH  12  13
ENDBRANCH   2  12
BRANCH   1  32
HETATM   32  C   UNL     1      41.727 -15.861   4.392  1.00  0.00     0.076 A 
HETATM   33  C   UNL     1      42.738 -16.834   4.391  1.00  0.00     0.096 A 
HETATM   34  C   UNL     1      42.751 -17.782   5.411  1.00  0.00     0.039 A 
HETATM   35  C   UNL     1      41.736 -17.777   6.376  1.00  0.00     0.003 A 
HETATM   36  C   UNL     1      40.712 -16.825   6.334  1.00  0.00     0.002 A 
HETATM   37  C   UNL     1      40.697 -15.855   5.334  1.00  0.00     0.033 A 
BRANCH  33  38
HETATM   38  O   UNL     1      43.714 -16.753   3.435  1.00  0.00    -0.349 OA
BRANCH  38  39
HETATM   39  C   UNL     1      43.911 -17.956   2.675  1.00  0.00     0.171 C 
HETATM   40  C   UNL     1      43.985 -17.615   1.199  1.00  0.00     0.034 C 
ENDBRANCH  38  39
ENDBRANCH  33  38
ENDBRANCH   1  32
BRANCH   6  41
HETATM   41  N   UNL     1      40.762 -16.509   1.840  1.00  0.00    -0.384 N 
HETATM   42  H   UNL     1      41.047 -16.985   0.991  1.00  0.00     0.157 HD
HETATM   43  H   UNL     1      39.799 -16.683   2.105  1.00  0.00     0.157 HD
ENDBRANCH   6  41
TORSDOF 12
ENDMDL
MODEL 3
REMARK VINA RESULT:      -8.2      5.248      8.525
REMARK  12 active torsions:
REMARK  status: ('A' for Active; 'I' for Inactive)
REMARK    1  A    between atoms: C_2  and  O_3 
REMARK    2  A    between atoms: O_3  and  C_4 
REMARK    3  A    between atoms: C_5  and  N_6 
REMARK    4  A    between atoms: C_7  and  S_8 
REMARK    5  A    between atoms: S_8  and  C_9 
REMARK    6  A    between atoms: C_9  and  C_10 
REMARK       I    between atoms: C_10  and  N_11 
REMARK    7  A    between atoms: N_11  and  C_12 
REMARK    8  A    between atoms: C_12  and  C_13 
REMARK    9  A    between atoms: C_13  and  C_14 
REMARK   10  A    between atoms: C_17  and  S_18 
REMARK   11  A    between atoms: S_18  and  N_19 
REMARK   12  A    between atoms: C_28  and  N_29 
ROOT
HETATM    1  N   UNL     1      40.287 -12.814   2.160  1.00  0.00    -0.273 N 
HETATM    2  C   UNL     1      41.371 -12.549   1.380  1.00  0.00     0.177 A 
HETATM    3  N   UNL     1      42.654 -12.826   1.705  1.00  0.00    -0.204 NA
HETATM    4  C   UNL     1      42.744 -13.424   2.894  1.00  0.00     0.162 A 
HETATM    5  C   UNL     1      41.703 -13.761   3.733  1.00  0.00     0.081 A 
HETATM    6  C   UNL     1      40.383 -13.468   3.350  1.00  0.00     0.124 A 
HETATM    7  N   UNL     1      43.895 -13.826   3.507  1.00  0.00    -0.260 N 
HETATM    8  H   UNL     1      44.846 -13.737   3.166  1.00  0.00     0.191 HD
HETATM    9  N   UNL     1      43.683 -14.401   4.699  1.00  0.00    -0.177 NA
HETATM   10  C   UNL     1      42.354 -14.359   4.855  1.00  0.00     0.068 A 
HETATM   11  C   UNL     1      41.752 -14.892   6.105  1.00  0.00     0.073 C 
ENDROOT
BRANCH   2  12
HETATM   12  S   UNL     1      41.198 -11.798  -0.250  1.00  0.00    -0.082 SA
BRANCH  12  13
HETATM   13  C   UNL     1      41.920 -13.118  -1.278  1.00  0.00     0.185 C 
BRANCH  13  14
HETATM   14  C   UNL     1      41.211 -14.465  -1.142  1.00  0.00     0.227 C 
HETATM   15  N   UNL     1      41.915 -15.358  -0.361  1.00  0.00    -0.360 N 
HETATM   16  H   UNL     1      42.824 -15.096   0.002  1.00  0.00     0.162 HD
HETATM   17  O   UNL     1      40.114 -14.718  -1.639  1.00  0.00    -0.273 OA
BRANCH  15  18
HETATM   18  C   UNL     1      41.368 -16.623   0.101  1.00  0.00     0.127 C 
BRANCH  18  19
HETATM   19  C   UNL     1      40.809 -16.580   1.526  1.00  0.00     0.058 C 
BRANCH  19  20
HETATM   20  C   UNL     1      41.789 -17.171   2.516  1.00  0.00    -0.057 A 
HETATM   21  C   UNL     1      43.138 -17.347   2.171  1.00  0.00     0.009 A 
HETATM   22  C   UNL     1      44.025 -17.958   3.062  1.00  0.00     0.025 A 
HETATM   23  C   UNL     1      43.567 -18.378   4.313  1.00  0.00     0.074 A 
HETATM   24  C   UNL     1      42.230 -18.199   4.676  1.00  0.00     0.025 A 
HETATM   25  C   UNL     1      41.348 -17.593   3.780  1.00  0.00     0.009 A 
BRANCH  23  26
HETATM   26  S   UNL     1      44.669 -19.231   5.405  1.00  0.00     0.239 S 
HETATM   27  O   UNL     1      45.265 -20.342   4.702  1.00  0.00    -0.206 OA
HETATM   28  O   UNL     1      45.453 -18.260   6.129  1.00  0.00    -0.206 OA
BRANCH  26  29
HETATM   29  N   UNL     1      43.610 -19.903   6.521  1.00  0.00    -0.225 NA
HETATM   30  H   UNL     1      44.139 -20.296   7.302  1.00  0.00     0.136 HD
HETATM   31  H   UNL     1      42.924 -19.205   6.807  1.00  0.00     0.136 HD
ENDBRANCH  26  29
ENDBRANCH  23  26
ENDBRANCH  19  20
ENDBRANCH  18  19
ENDBRANCH  15  18
ENDBRANCH  13  14
ENDBRANCH  12  13
ENDBRANCH   2  12
BRANCH   1  32
HETATM   32  C   UNL     1      39.008 -12.279   1.787  1.00  0.00     0.076 A 
HETATM   33  C   UNL     1      38.634 -11.030   2.304  1.00  0.00     0.096 A 
HETATM   34  C   UNL     1      37.401 -10.497   1.934  1.00  0.00     0.039 A 
HETATM   35  C   UNL     1      36.549 -11.234   1.103  1.00  0.00     0.003 A 
HETATM   36  C   UNL     1      36.923 -12.497   0.632  1.00  0.00     0.002 A 
HETATM   37  C   UNL     1      38.162 -13.034   0.974  1.00  0.00     0.033 A 
BRANCH  33  38
HETATM   38  O   UNL     1      39.534 -10.355   3.084  1.00  0.00    -0.349 OA
BRANCH  38  39
HETATM   39  C   UNL     1      39.080 -10.068   4.415  1.00  0.00     0.171 C 
HETATM   40  C   UNL     1      40.154 -10.462   5.412  1.00  0.00     0.034 C 
ENDBRANCH  38  39
ENDBRANCH  33  38
ENDBRANCH   1  32
BRANCH   6  41
HETATM   41  N   UNL     1      39.274 -13.801   4.127  1.00  0.00    -0.384 N 
HETATM   42  H   UNL     1      39.325 -14.654   4.673  1.00  0.00     0.157 HD
HETATM   43  H   UNL     1      38.342 -13.583   3.791  1.00  0.00     0.157 HD
ENDBRANCH   6  41
TORSDOF 12
ENDMDL
MODEL 4
REMARK VINA RESULT:      -8.2      5.278      7.638
REMARK  12 active torsions:
REMARK  status: ('A' for Active; 'I' for Inactive)
REMARK    1  A    between atoms: C_2  and  O_3 
REMARK    2  A    between atoms: O_3  and  C_4 
REMARK    3  A    between atoms: C_5  and  N_6 
REMARK    4  A    between atoms: C_7  and  S_8 
REMARK    5  A    between atoms: S_8  and  C_9 
REMARK    6  A    between atoms: C_9  and  C_10 
REMARK       I    between atoms: C_10  and  N_11 
REMARK    7  A    between atoms: N_11  and  C_12 
REMARK    8  A    between atoms: C_12  and  C_13 
REMARK    9  A    between atoms: C_13  and  C_14 
REMARK   10  A    between atoms: C_17  and  S_18 
REMARK   11  A    between atoms: S_18  and  N_19 
REMARK   12  A    between atoms: C_28  and  N_29 
ROOT
HETATM    1  N   UNL     1      39.869 -14.358  -0.092  1.00  0.00    -0.273 N 
HETATM    2  C   UNL     1      38.987 -14.309   0.943  1.00  0.00     0.177 A 
HETATM    3  N   UNL     1      39.034 -15.091   2.047  1.00  0.00    -0.204 NA
HETATM    4  C   UNL     1      40.079 -15.919   2.021  1.00  0.00     0.162 A 
HETATM    5  C   UNL     1      41.038 -16.013   1.034  1.00  0.00     0.081 A 
HETATM    6  C   UNL     1      40.960 -15.172  -0.088  1.00  0.00     0.124 A 
HETATM    7  N   UNL     1      40.404 -16.835   2.979  1.00  0.00    -0.260 N 
HETATM    8  H   UNL     1      39.913 -17.029   3.846  1.00  0.00     0.191 HD
HETATM    9  N   UNL     1      41.511 -17.532   2.688  1.00  0.00    -0.177 NA
HETATM   10  C   UNL     1      41.902 -17.050   1.501  1.00  0.00     0.068 A 
HETATM   11  C   UNL     1      43.104 -17.626   0.845  1.00  0.00     0.073 C 
ENDROOT
BRANCH   2  12
HETATM   12  S   UNL     1      37.626 -13.128   0.967  1.00  0.00    -0.082 SA
BRANCH  12  13
HETATM   13  C   UNL     1      38.497 -11.665   1.621  1.00  0.00     0.185 C 
BRANCH  13  14
HETATM   14  C   UNL     1      38.775 -11.732   3.122  1.00  0.00     0.227 C 
HETATM   15  N   UNL     1      39.882 -12.499   3.422  1.00  0.00    -0.360 N 
HETATM   16  H   UNL     1      40.374 -12.980   2.677  1.00  0.00     0.162 HD
HETATM   17  O   UNL     1      38.112 -11.139   3.971  1.00  0.00    -0.273 OA
BRANCH  15  18
HETATM   18  C   UNL     1      40.486 -12.552   4.743  1.00  0.00     0.127 C 
BRANCH  18  19
HETATM   19  C   UNL     1      39.976 -13.702   5.618  1.00  0.00     0.058 C 
BRANCH  19  20
HETATM   20  C   UNL     1      41.011 -14.799   5.735  1.00  0.00    -0.057 A 
HETATM   21  C   UNL     1      42.297 -14.635   5.197  1.00  0.00     0.009 A 
HETATM   22  C   UNL     1      43.225 -15.677   5.245  1.00  0.00     0.025 A 
HETATM   23  C   UNL     1      42.876 -16.886   5.851  1.00  0.00     0.074 A 
HETATM   24  C   UNL     1      41.605 -17.062   6.402  1.00  0.00     0.025 A 
HETATM   25  C   UNL     1      40.679 -16.019   6.346  1.00  0.00     0.009 A 
BRANCH  23  26
HETATM   26  S   UNL     1      44.022 -18.235   5.832  1.00  0.00     0.239 S 
HETATM   27  O   UNL     1      45.291 -17.785   6.354  1.00  0.00    -0.206 OA
HETATM   28  O   UNL     1      43.357 -19.419   6.322  1.00  0.00    -0.206 OA
BRANCH  26  29
HETATM   29  N   UNL     1      44.257 -18.477   4.188  1.00  0.00    -0.225 NA
HETATM   30  H   UNL     1      44.170 -19.472   3.971  1.00  0.00     0.136 HD
HETATM   31  H   UNL     1      43.611 -17.890   3.659  1.00  0.00     0.136 HD
ENDBRANCH  26  29
ENDBRANCH  23  26
ENDBRANCH  19  20
ENDBRANCH  18  19
ENDBRANCH  15  18
ENDBRANCH  13  14
ENDBRANCH  12  13
ENDBRANCH   2  12
BRANCH   1  32
HETATM   32  C   UNL     1      39.582 -13.622  -1.292  1.00  0.00     0.076 A 
HETATM   33  C   UNL     1      40.257 -12.412  -1.507  1.00  0.00     0.096 A 
HETATM   34  C   UNL     1      39.997 -11.702  -2.676  1.00  0.00     0.039 A 
HETATM   35  C   UNL     1      39.039 -12.178  -3.578  1.00  0.00     0.003 A 
HETATM   36  C   UNL     1      38.344 -13.367  -3.325  1.00  0.00     0.002 A 
HETATM   37  C   UNL     1      38.610 -14.101  -2.171  1.00  0.00     0.033 A 
BRANCH  33  38
HETATM   38  O   UNL     1      41.204 -12.028  -0.595  1.00  0.00    -0.349 OA
BRANCH  38  39
HETATM   39  C   UNL     1      42.439 -11.572  -1.168  1.00  0.00     0.171 C 
HETATM   40  C   UNL     1      42.898 -10.318  -0.450  1.00  0.00     0.034 C 
ENDBRANCH  38  39
ENDBRANCH  33  38
ENDBRANCH   1  32
BRANCH   6  41
HETATM   41  N   UNL     1      41.904 -15.185  -1.115  1.00  0.00    -0.384 N 
HETATM   42  H   UNL     1      42.778 -15.668  -0.940  1.00  0.00     0.157 HD
HETATM   43  H   UNL     1      41.994 -14.380  -1.725  1.00  0.00     0.157 HD
ENDBRANCH   6  41
TORSDOF 12
ENDMDL
MODEL 5
REMARK VINA RESULT:      -8.1      5.340      7.776
REMARK  12 active torsions:
REMARK  status: ('A' for Active; 'I' for Inactive)
REMARK    1  A    between atoms: C_2  and  O_3 
REMARK    2  A    between atoms: O_3  and  C_4 
REMARK    3  A    between atoms: C_5  and  N_6 
REMARK    4  A    between atoms: C_7  and  S_8 
REMARK    5  A    between atoms: S_8  and  C_9 
REMARK    6  A    between atoms: C_9  and  C_10 
REMARK       I    between atoms: C_10  and  N_11 
REMARK    7  A    between atoms: N_11  and  C_12 
REMARK    8  A    between atoms: C_12  and  C_13 
REMARK    9  A    between atoms: C_13  and  C_14 
REMARK   10  A    between atoms: C_17  and  S_18 
REMARK   11  A    between atoms: S_18  and  N_19 
REMARK   12  A    between atoms: C_28  and  N_29 
ROOT
HETATM    1  N   UNL     1      39.973 -13.750   0.002  1.00  0.00    -0.273 N 
HETATM    2  C   UNL     1      38.967 -13.792   0.917  1.00  0.00     0.177 A 
HETATM    3  N   UNL     1      38.824 -14.733   1.879  1.00  0.00    -0.204 NA
HETATM    4  C   UNL     1      39.815 -15.624   1.848  1.00  0.00     0.162 A 
HETATM    5  C   UNL     1      40.889 -15.640   0.983  1.00  0.00     0.081 A 
HETATM    6  C   UNL     1      41.007 -14.636   0.009  1.00  0.00     0.124 A 
HETATM    7  N   UNL     1      39.959 -16.697   2.680  1.00  0.00    -0.260 N 
HETATM    8  H   UNL     1      39.348 -16.983   3.438  1.00  0.00     0.191 HD
HETATM    9  N   UNL     1      41.054 -17.424   2.417  1.00  0.00    -0.177 NA
HETATM   10  C   UNL     1      41.624 -16.799   1.380  1.00  0.00     0.068 A 
HETATM   11  C   UNL     1      42.870 -17.358   0.792  1.00  0.00     0.073 C 
ENDROOT
BRANCH   2  12
HETATM   12  S   UNL     1      37.682 -12.528   0.964  1.00  0.00    -0.082 SA
BRANCH  12  13
HETATM   13  C   UNL     1      38.544 -11.247   1.934  1.00  0.00     0.185 C 
BRANCH  13  14
HETATM   14  C   UNL     1      38.770 -11.628   3.396  1.00  0.00     0.227 C 
HETATM   15  N   UNL     1      39.869 -12.445   3.567  1.00  0.00    -0.360 N 
HETATM   16  H   UNL     1      40.387 -12.761   2.754  1.00  0.00     0.162 HD
HETATM   17  O   UNL     1      38.077 -11.223   4.328  1.00  0.00    -0.273 OA
BRANCH  15  18
HETATM   18  C   UNL     1      40.427 -12.776   4.867  1.00  0.00     0.127 C 
BRANCH  18  19
HETATM   19  C   UNL     1      39.921 -14.101   5.447  1.00  0.00     0.058 C 
BRANCH  19  20
HETATM   20  C   UNL     1      41.032 -15.124   5.522  1.00  0.00    -0.057 A 
HETATM   21  C   UNL     1      42.262 -14.898   4.883  1.00  0.00     0.009 A 
HETATM   22  C   UNL     1      43.259 -15.876   4.895  1.00  0.00     0.025 A 
HETATM   23  C   UNL     1      43.037 -17.081   5.566  1.00  0.00     0.074 A 
HETATM   24  C   UNL     1      41.824 -17.317   6.217  1.00  0.00     0.025 A 
HETATM   25  C   UNL     1      40.829 -16.338   6.197  1.00  0.00     0.009 A 
BRANCH  23  26
HETATM   26  S   UNL     1      44.266 -18.353   5.506  1.00  0.00     0.239 S 
HETATM   27  O   UNL     1      44.360 -18.856   4.156  1.00  0.00    -0.206 OA
HETATM   28  O   UNL     1      45.421 -17.922   6.256  1.00  0.00    -0.206 OA
BRANCH  26  29
HETATM   29  N   UNL     1      43.553 -19.576   6.408  1.00  0.00    -0.225 NA
HETATM   30  H   UNL     1      42.541 -19.559   6.271  1.00  0.00     0.136 HD
HETATM   31  H   UNL     1      43.978 -20.473   6.168  1.00  0.00     0.136 HD
ENDBRANCH  26  29
ENDBRANCH  23  26
ENDBRANCH  19  20
ENDBRANCH  18  19
ENDBRANCH  15  18
ENDBRANCH  13  14
ENDBRANCH  12  13
ENDBRANCH   2  12
BRANCH   1  32
HETATM   32  C   UNL     1      39.889 -12.821  -1.090  1.00  0.00     0.076 A 
HETATM   33  C   UNL     1      39.175 -13.204  -2.234  1.00  0.00     0.096 A 
HETATM   34  C   UNL     1      39.075 -12.302  -3.290  1.00  0.00     0.039 A 
HETATM   35  C   UNL     1      39.726 -11.066  -3.211  1.00  0.00     0.003 A 
HETATM   36  C   UNL     1      40.470 -10.719  -2.077  1.00  0.00     0.002 A 
HETATM   37  C   UNL     1      40.561 -11.601  -1.002  1.00  0.00     0.033 A 
BRANCH  33  38
HETATM   38  O   UNL     1      38.538 -14.416  -2.225  1.00  0.00    -0.349 OA
BRANCH  38  39
HETATM   39  C   UNL     1      38.628 -15.152  -3.454  1.00  0.00     0.171 C 
HETATM   40  C   UNL     1      39.925 -15.937  -3.481  1.00  0.00     0.034 C 
ENDBRANCH  38  39
ENDBRANCH  33  38
ENDBRANCH   1  32
BRANCH   6  41
HETATM   41  N   UNL     1      42.077 -14.564  -0.884  1.00  0.00    -0.384 N 
HETATM   42  H   UNL     1      41.951 -14.000  -1.718  1.00  0.00     0.157 HD
HETATM   43  H   UNL     1      42.672 -15.373  -1.020  1.00  0.00     0.157 HD
ENDBRANCH   6  41
TORSDOF 12
ENDMDL
MODEL 6
REMARK VINA RESULT:      -8.0      5.116     11.568
REMARK  12 active torsions:
REMARK  status: ('A' for Active; 'I' for Inactive)
REMARK    1  A    between atoms: C_2  and  O_3 
REMARK    2  A    between atoms: O_3  and  C_4 
REMARK    3  A    between atoms: C_5  and  N_6 
REMARK    4  A    between atoms: C_7  and  S_8 
REMARK    5  A    between atoms: S_8  and  C_9 
REMARK    6  A    between atoms: C_9  and  C_10 
REMARK       I    between atoms: C_10  and  N_11 
REMARK    7  A    between atoms: N_11  and  C_12 
REMARK    8  A    between atoms: C_12  and  C_13 
REMARK    9  A    between atoms: C_13  and  C_14 
REMARK   10  A    between atoms: C_17  and  S_18 
REMARK   11  A    between atoms: S_18  and  N_19 
REMARK   12  A    between atoms: C_28  and  N_29 
ROOT
HETATM    1  N   UNL     1      42.513 -16.679   4.912  1.00  0.00    -0.273 N 
HETATM    2  C   UNL     1      43.005 -16.896   3.662  1.00  0.00     0.177 A 
HETATM    3  N   UNL     1      43.757 -17.958   3.291  1.00  0.00    -0.204 NA
HETATM    4  C   UNL     1      43.949 -18.803   4.304  1.00  0.00     0.162 A 
HETATM    5  C   UNL     1      43.462 -18.683   5.589  1.00  0.00     0.081 A 
HETATM    6  C   UNL     1      42.673 -17.571   5.928  1.00  0.00     0.124 A 
HETATM    7  N   UNL     1      44.665 -19.964   4.258  1.00  0.00    -0.260 N 
HETATM    8  H   UNL     1      45.156 -20.361   3.464  1.00  0.00     0.191 HD
HETATM    9  N   UNL     1      44.689 -20.615   5.430  1.00  0.00    -0.177 NA
HETATM   10  C   UNL     1      43.970 -19.841   6.252  1.00  0.00     0.068 A 
HETATM   11  C   UNL     1      43.808 -20.247   7.673  1.00  0.00     0.073 C 
ENDROOT
BRANCH   2  12
HETATM   12  S   UNL     1      42.665 -15.758   2.305  1.00  0.00    -0.082 SA
BRANCH  12  13
HETATM   13  C   UNL     1      41.134 -16.503   1.653  1.00  0.00     0.185 C 
BRANCH  13  14
HETATM   14  C   UNL     1      40.045 -15.484   1.320  1.00  0.00     0.227 C 
HETATM   15  N   UNL     1      40.227 -14.898   0.085  1.00  0.00    -0.360 N 
HETATM   16  H   UNL     1      41.050 -15.129  -0.462  1.00  0.00     0.162 HD
HETATM   17  O   UNL     1      39.088 -15.236   2.052  1.00  0.00    -0.273 OA
BRANCH  15  18
HETATM   18  C   UNL     1      39.230 -14.060  -0.561  1.00  0.00     0.127 C 
BRANCH  18  19
HETATM   19  C   UNL     1      39.673 -13.486  -1.910  1.00  0.00     0.058 C 
BRANCH  19  20
HETATM   20  C   UNL     1      38.509 -13.390  -2.872  1.00  0.00    -0.057 A 
HETATM   21  C   UNL     1      37.957 -12.145  -3.209  1.00  0.00     0.009 A 
HETATM   22  C   UNL     1      36.838 -12.065  -4.042  1.00  0.00     0.025 A 
HETATM   23  C   UNL     1      36.277 -13.235  -4.557  1.00  0.00     0.074 A 
HETATM   24  C   UNL     1      36.821 -14.482  -4.242  1.00  0.00     0.025 A 
HETATM   25  C   UNL     1      37.936 -14.556  -3.405  1.00  0.00     0.009 A 
BRANCH  23  26
HETATM   26  S   UNL     1      34.807 -13.140  -5.540  1.00  0.00     0.239 S 
HETATM   27  O   UNL     1      33.659 -13.360  -4.693  1.00  0.00    -0.206 OA
HETATM   28  O   UNL     1      34.912 -12.007  -6.427  1.00  0.00    -0.206 OA
BRANCH  26  29
HETATM   29  N   UNL     1      34.939 -14.505  -6.507  1.00  0.00    -0.225 NA
HETATM   30  H   UNL     1      35.405 -15.251  -5.986  1.00  0.00     0.136 HD
HETATM   31  H   UNL     1      34.017 -14.770  -6.854  1.00  0.00     0.136 HD
ENDBRANCH  26  29
ENDBRANCH  23  26
ENDBRANCH  19  20
ENDBRANCH  18  19
ENDBRANCH  15  18
ENDBRANCH  13  14
ENDBRANCH  12  13
ENDBRANCH   2  12
BRANCH   1  32
HETATM   32  C   UNL     1      41.911 -15.412   5.218  1.00  0.00     0.076 A 
HETATM   33  C   UNL     1      42.745 -14.363   5.633  1.00  0.00     0.096 A 
HETATM   34  C   UNL     1      42.170 -13.126   5.915  1.00  0.00     0.039 A 
HETATM   35  C   UNL     1      40.781 -12.971   5.831  1.00  0.00     0.003 A 
HETATM   36  C   UNL     1      39.961 -14.042   5.457  1.00  0.00     0.002 A 
HETATM   37  C   UNL     1      40.523 -15.279   5.149  1.00  0.00     0.033 A 
BRANCH  33  38
HETATM   38  O   UNL     1      44.096 -14.581   5.660  1.00  0.00    -0.349 OA
BRANCH  38  39
HETATM   39  C   UNL     1      44.658 -14.705   6.975  1.00  0.00     0.171 C 
HETATM   40  C   UNL     1      45.439 -13.449   7.312  1.00  0.00     0.034 C 
ENDBRANCH  38  39
ENDBRANCH  33  38
ENDBRANCH   1  32
BRANCH   6  41
HETATM   41  N   UNL     1      42.120 -17.389   7.196  1.00  0.00    -0.384 N 
HETATM   42  H   UNL     1      41.876 -16.443   7.467  1.00  0.00     0.157 HD
HETATM   43  H   UNL     1      42.429 -17.971   7.966  1.00  0.00     0.157 HD
ENDBRANCH   6  41
TORSDOF 12
ENDMDL
MODEL 7
REMARK VINA RESULT:      -7.9      2.074      3.197
REMARK  12 active torsions:
REMARK  status: ('A' for Active; 'I' for Inactive)
REMARK    1  A    between atoms: C_2  and  O_3 
REMARK    2  A    between atoms: O_3  and  C_4 
REMARK    3  A    between atoms: C_5  and  N_6 
REMARK    4  A    between atoms: C_7  and  S_8 
REMARK    5  A    between atoms: S_8  and  C_9 
REMARK    6  A    between atoms: C_9  and  C_10 
REMARK       I    between atoms: C_10  and  N_11 
REMARK    7  A    between atoms: N_11  and  C_12 
REMARK    8  A    between atoms: C_12  and  C_13 
REMARK    9  A    between atoms: C_13  and  C_14 
REMARK   10  A    between atoms: C_17  and  S_18 
REMARK   11  A    between atoms: S_18  and  N_19 
REMARK   12  A    between atoms: C_28  and  N_29 
ROOT
HETATM    1  N   UNL     1      42.730 -15.502   5.065  1.00  0.00    -0.273 N 
HETATM    2  C   UNL     1      43.581 -14.441   5.126  1.00  0.00     0.177 A 
HETATM    3  N   UNL     1      43.427 -13.277   4.454  1.00  0.00    -0.204 NA
HETATM    4  C   UNL     1      42.310 -13.272   3.726  1.00  0.00     0.162 A 
HETATM    5  C   UNL     1      41.376 -14.282   3.631  1.00  0.00     0.081 A 
HETATM    6  C   UNL     1      41.567 -15.469   4.357  1.00  0.00     0.124 A 
HETATM    7  N   UNL     1      41.872 -12.251   2.933  1.00  0.00    -0.260 N 
HETATM    8  H   UNL     1      42.315 -11.352   2.772  1.00  0.00     0.191 HD
HETATM    9  N   UNL     1      40.713 -12.523   2.316  1.00  0.00    -0.177 NA
HETATM   10  C   UNL     1      40.405 -13.761   2.723  1.00  0.00     0.068 A 
HETATM   11  C   UNL     1      39.174 -14.410   2.204  1.00  0.00     0.073 C 
ENDROOT
BRANCH   2  12
HETATM   12  S   UNL     1      45.046 -14.467   6.176  1.00  0.00    -0.082 SA
BRANCH  12  13
HETATM   13  C   UNL     1      44.316 -13.886   7.742  1.00  0.00     0.185 C 
BRANCH  13  14
HETATM   14  C   UNL     1      45.046 -12.694   8.358  1.00  0.00     0.227 C 
HETATM   15  N   UNL     1      44.231 -11.937   9.173  1.00  0.00    -0.360 N 
HETATM   16  H   UNL     1      43.249 -12.176   9.260  1.00  0.00     0.162 HD
HETATM   17  O   UNL     1      46.239 -12.452   8.182  1.00  0.00    -0.273 OA
BRANCH  15  18
HETATM   18  C   UNL     1      44.724 -10.881  10.043  1.00  0.00     0.127 C 
BRANCH  18  19
HETATM   19  C   UNL     1      44.363 -11.068  11.520  1.00  0.00     0.058 C 
BRANCH  19  20
HETATM   20  C   UNL     1      43.049 -10.395  11.851  1.00  0.00    -0.057 A 
HETATM   21  C   UNL     1      42.308 -10.782  12.979  1.00  0.00     0.009 A 
HETATM   22  C   UNL     1      41.062 -10.207  13.241  1.00  0.00     0.025 A 
HETATM   23  C   UNL     1      40.559  -9.226  12.383  1.00  0.00     0.074 A 
HETATM   24  C   UNL     1      41.289  -8.822  11.263  1.00  0.00     0.025 A 
HETATM   25  C   UNL     1      42.531  -9.403  11.003  1.00  0.00     0.009 A 
BRANCH  23  26
HETATM   26  S   UNL     1      38.942  -8.564  12.667  1.00  0.00     0.239 S 
HETATM   27  O   UNL     1      37.955  -9.526  12.239  1.00  0.00    -0.206 OA
HETATM   28  O   UNL     1      38.912  -7.949  13.973  1.00  0.00    -0.206 OA
BRANCH  26  29
HETATM   29  N   UNL     1      38.876  -7.307  11.557  1.00  0.00    -0.225 NA
HETATM   30  H   UNL     1      38.130  -6.658  11.816  1.00  0.00     0.136 HD
HETATM   31  H   UNL     1      39.792  -6.862  11.486  1.00  0.00     0.136 HD
ENDBRANCH  26  29
ENDBRANCH  23  26
ENDBRANCH  19  20
ENDBRANCH  18  19
ENDBRANCH  15  18
ENDBRANCH  13  14
ENDBRANCH  12  13
ENDBRANCH   2  12
BRANCH   1  32
HETATM   32  C   UNL     1      43.121 -16.748   5.661  1.00  0.00     0.076 A 
HETATM   33  C   UNL     1      43.724 -17.715   4.844  1.00  0.00     0.096 A 
HETATM   34  C   UNL     1      44.121 -18.920   5.419  1.00  0.00     0.039 A 
HETATM   35  C   UNL     1      43.865 -19.160   6.774  1.00  0.00     0.003 A 
HETATM   36  C   UNL     1      43.223 -18.199   7.563  1.00  0.00     0.002 A 
HETATM   37  C   UNL     1      42.840 -16.979   7.009  1.00  0.00     0.033 A 
BRANCH  33  38
HETATM   38  O   UNL     1      43.971 -17.396   3.536  1.00  0.00    -0.349 OA
BRANCH  38  39
HETATM   39  C   UNL     1      43.396 -18.297   2.578  1.00  0.00     0.171 C 
HETATM   40  C   UNL     1      43.682 -17.796   1.176  1.00  0.00     0.034 C 
ENDBRANCH  38  39
ENDBRANCH  33  38
ENDBRANCH   1  32
BRANCH   6  41
HETATM   41  N   UNL     1      40.658 -16.527   4.339  1.00  0.00    -0.384 N 
HETATM   42  H   UNL     1      39.836 -16.425   3.753  1.00  0.00     0.157 HD
HETATM   43  H   UNL     1      40.497 -17.066   5.183  1.00  0.00     0.157 HD
ENDBRANCH   6  41
TORSDOF 12
ENDMDL
MODEL 8
REMARK VINA RESULT:      -7.8      5.090      7.462
REMARK  12 active torsions:
REMARK  status: ('A' for Active; 'I' for Inactive)
REMARK    1  A    between atoms: C_2  and  O_3 
REMARK    2  A    between atoms: O_3  and  C_4 
REMARK    3  A    between atoms: C_5  and  N_6 
REMARK    4  A    between atoms: C_7  and  S_8 
REMARK    5  A    between atoms: S_8  and  C_9 
REMARK    6  A    between atoms: C_9  and  C_10 
REMARK       I    between atoms: C_10  and  N_11 
REMARK    7  A    between atoms: N_11  and  C_12 
REMARK    8  A    between atoms: C_12  and  C_13 
REMARK    9  A    between atoms: C_13  and  C_14 
REMARK   10  A    between atoms: C_17  and  S_18 
REMARK   11  A    between atoms: S_18  and  N_19 
REMARK   12  A    between atoms: C_28  and  N_29 
ROOT
HETATM    1  N   UNL     1      41.231 -13.964   0.102  1.00  0.00    -0.273 N 
HETATM    2  C   UNL     1      41.680 -13.000   0.951  1.00  0.00     0.177 A 
HETATM    3  N   UNL     1      42.492 -13.211   2.013  1.00  0.00    -0.204 NA
HETATM    4  C   UNL     1      42.833 -14.495   2.126  1.00  0.00     0.162 A 
HETATM    5  C   UNL     1      42.455 -15.529   1.296  1.00  0.00     0.081 A 
HETATM    6  C   UNL     1      41.623 -15.264   0.196  1.00  0.00     0.124 A 
HETATM    7  N   UNL     1      43.634 -15.033   3.091  1.00  0.00    -0.260 N 
HETATM    8  H   UNL     1      44.089 -14.553   3.861  1.00  0.00     0.191 HD
HETATM    9  N   UNL     1      43.806 -16.355   2.957  1.00  0.00    -0.177 NA
HETATM   10  C   UNL     1      43.085 -16.673   1.875  1.00  0.00     0.068 A 
HETATM   11  C   UNL     1      43.018 -18.092   1.439  1.00  0.00     0.073 C 
ENDROOT
BRANCH   2  12
HETATM   12  S   UNL     1      41.247 -11.265   0.722  1.00  0.00    -0.082 SA
BRANCH  12  13
HETATM   13  C   UNL     1      39.937 -11.104   1.979  1.00  0.00     0.185 C 
BRANCH  13  14
HETATM   14  C   UNL     1      40.397 -11.440   3.397  1.00  0.00     0.227 C 
HETATM   15  N   UNL     1      39.978 -12.690   3.807  1.00  0.00    -0.360 N 
HETATM   16  H   UNL     1      39.385 -13.243   3.198  1.00  0.00     0.162 HD
HETATM   17  O   UNL     1      41.095 -10.701   4.087  1.00  0.00    -0.273 OA
BRANCH  15  18
HETATM   18  C   UNL     1      40.454 -13.337   5.018  1.00  0.00     0.127 C 
BRANCH  18  19
HETATM   19  C   UNL     1      39.931 -14.764   5.212  1.00  0.00     0.058 C 
BRANCH  19  20
HETATM   20  C   UNL     1      41.057 -15.719   5.540  1.00  0.00    -0.057 A 
HETATM   21  C   UNL     1      41.016 -17.053   5.106  1.00  0.00     0.009 A 
HETATM   22  C   UNL     1      42.024 -17.950   5.471  1.00  0.00     0.025 A 
HETATM   23  C   UNL     1      43.089 -17.508   6.258  1.00  0.00     0.074 A 
HETATM   24  C   UNL     1      43.151 -16.181   6.688  1.00  0.00     0.025 A 
HETATM   25  C   UNL     1      42.139 -15.291   6.325  1.00  0.00     0.009 A 
BRANCH  23  26
HETATM   26  S   UNL     1      44.318 -18.666   6.793  1.00  0.00     0.239 S 
HETATM   27  O   UNL     1      43.973 -19.980   6.306  1.00  0.00    -0.206 OA
HETATM   28  O   UNL     1      45.624 -18.083   6.598  1.00  0.00    -0.206 OA
BRANCH  26  29
HETATM   29  N   UNL     1      44.067 -18.705   8.452  1.00  0.00    -0.225 NA
HETATM   30  H   UNL     1      44.395 -17.833   8.870  1.00  0.00     0.136 HD
HETATM   31  H   UNL     1      43.084 -18.902   8.646  1.00  0.00     0.136 HD
ENDBRANCH  26  29
ENDBRANCH  23  26
ENDBRANCH  19  20
ENDBRANCH  18  19
ENDBRANCH  15  18
ENDBRANCH  13  14
ENDBRANCH  12  13
ENDBRANCH   2  12
BRANCH   1  32
HETATM   32  C   UNL     1      40.210 -13.635  -0.853  1.00  0.00     0.076 A 
HETATM   33  C   UNL     1      40.604 -13.284  -2.152  1.00  0.00     0.096 A 
HETATM   34  C   UNL     1      39.619 -12.980  -3.089  1.00  0.00     0.039 A 
HETATM   35  C   UNL     1      38.272 -12.982  -2.704  1.00  0.00     0.003 A 
HETATM   36  C   UNL     1      37.902 -13.294  -1.391  1.00  0.00     0.002 A 
HETATM   37  C   UNL     1      38.874 -13.622  -0.448  1.00  0.00     0.033 A 
BRANCH  33  38
HETATM   38  O   UNL     1      41.936 -13.337  -2.462  1.00  0.00    -0.349 OA
BRANCH  38  39
HETATM   39  C   UNL     1      42.384 -12.316  -3.367  1.00  0.00     0.171 C 
HETATM   40  C   UNL     1      42.740 -11.066  -2.584  1.00  0.00     0.034 C 
ENDBRANCH  38  39
ENDBRANCH  33  38
ENDBRANCH   1  32
BRANCH   6  41
HETATM   41  N   UNL     1      41.218 -16.248  -0.706  1.00  0.00    -0.384 N 
HETATM   42  H   UNL     1      41.012 -17.168  -0.333  1.00  0.00     0.157 HD
HETATM   43  H   UNL     1      41.608 -16.262  -1.642  1.00  0.00     0.157 HD
ENDBRANCH   6  41
TORSDOF 12
ENDMDL
MODEL 9
REMARK VINA RESULT:      -7.8      5.217      8.747
REMARK  12 active torsions:
REMARK  status: ('A' for Active; 'I' for Inactive)
REMARK    1  A    between atoms: C_2  and  O_3 
REMARK    2  A    between atoms: O_3  and  C_4 
REMARK    3  A    between atoms: C_5  and  N_6 
REMARK    4  A    between atoms: C_7  and  S_8 
REMARK    5  A    between atoms: S_8  and  C_9 
REMARK    6  A    between atoms: C_9  and  C_10 
REMARK       I    between atoms: C_10  and  N_11 
REMARK    7  A    between atoms: N_11  and  C_12 
REMARK    8  A    between atoms: C_12  and  C_13 
REMARK    9  A    between atoms: C_13  and  C_14 
REMARK   10  A    between atoms: C_17  and  S_18 
REMARK   11  A    between atoms: S_18  and  N_19 
REMARK   12  A    between atoms: C_28  and  N_29 
ROOT
HETATM    1  N   UNL     1      40.514 -12.249   2.559  1.00  0.00    -0.273 N 
HETATM    2  C   UNL     1      41.463 -12.338   1.587  1.00  0.00     0.177 A 
HETATM    3  N   UNL     1      42.652 -12.970   1.711  1.00  0.00    -0.204 NA
HETATM    4  C   UNL     1      42.789 -13.531   2.913  1.00  0.00     0.162 A 
HETATM    5  C   UNL     1      41.872 -13.521   3.943  1.00  0.00     0.081 A 
HETATM    6  C   UNL     1      40.642 -12.866   3.766  1.00  0.00     0.124 A 
HETATM    7  N   UNL     1      43.873 -14.235   3.354  1.00  0.00    -0.260 N 
HETATM    8  H   UNL     1      44.729 -14.440   2.849  1.00  0.00     0.191 HD
HETATM    9  N   UNL     1      43.734 -14.685   4.609  1.00  0.00    -0.177 NA
HETATM   10  C   UNL     1      42.525 -14.249   4.984  1.00  0.00     0.068 A 
HETATM   11  C   UNL     1      42.042 -14.542   6.358  1.00  0.00     0.073 C 
ENDROOT
BRANCH   2  12
HETATM   12  S   UNL     1      41.207 -11.621  -0.047  1.00  0.00    -0.082 SA
BRANCH  12  13
HETATM   13  C   UNL     1      42.182 -12.787  -1.054  1.00  0.00     0.185 C 
BRANCH  13  14
HETATM   14  C   UNL     1      41.547 -14.171  -1.182  1.00  0.00     0.227 C 
HETATM   15  N   UNL     1      41.998 -15.052  -0.221  1.00  0.00    -0.360 N 
HETATM   16  H   UNL     1      42.716 -14.756   0.431  1.00  0.00     0.162 HD
HETATM   17  O   UNL     1      40.698 -14.464  -2.022  1.00  0.00    -0.273 OA
BRANCH  15  18
HETATM   18  C   UNL     1      41.403 -16.357   0.013  1.00  0.00     0.127 C 
BRANCH  18  19
HETATM   19  C   UNL     1      40.787 -16.523   1.406  1.00  0.00     0.058 C 
BRANCH  19  20
HETATM   20  C   UNL     1      41.714 -17.285   2.327  1.00  0.00    -0.057 A 
HETATM   21  C   UNL     1      41.444 -17.378   3.702  1.00  0.00     0.009 A 
HETATM   22  C   UNL     1      42.339 -18.022   4.559  1.00  0.00     0.025 A 
HETATM   23  C   UNL     1      43.502 -18.595   4.040  1.00  0.00     0.074 A 
HETATM   24  C   UNL     1      43.779 -18.523   2.673  1.00  0.00     0.025 A 
HETATM   25  C   UNL     1      42.884 -17.873   1.821  1.00  0.00     0.009 A 
BRANCH  23  26
HETATM   26  S   UNL     1      44.678 -19.333   5.139  1.00  0.00     0.239 S 
HETATM   27  O   UNL     1      45.384 -20.381   4.440  1.00  0.00    -0.206 OA
HETATM   28  O   UNL     1      45.358 -18.288   5.864  1.00  0.00    -0.206 OA
BRANCH  26  29
HETATM   29  N   UNL     1      43.686 -20.105   6.251  1.00  0.00    -0.225 NA
HETATM   30  H   UNL     1      44.257 -20.538   6.979  1.00  0.00     0.136 HD
HETATM   31  H   UNL     1      42.999 -19.444   6.616  1.00  0.00     0.136 HD
ENDBRANCH  26  29
ENDBRANCH  23  26
ENDBRANCH  19  20
ENDBRANCH  18  19
ENDBRANCH  15  18
ENDBRANCH  13  14
ENDBRANCH  12  13
ENDBRANCH   2  12
BRANCH   1  32
HETATM   32  C   UNL     1      39.393 -11.373   2.366  1.00  0.00     0.076 A 
HETATM   33  C   UNL     1      38.221 -11.907   1.810  1.00  0.00     0.096 A 
HETATM   34  C   UNL     1      37.124 -11.068   1.635  1.00  0.00     0.039 A 
HETATM   35  C   UNL     1      37.228  -9.712   1.965  1.00  0.00     0.003 A 
HETATM   36  C   UNL     1      38.421  -9.189   2.479  1.00  0.00     0.002 A 
HETATM   37  C   UNL     1      39.520 -10.020   2.681  1.00  0.00     0.033 A 
BRANCH  33  38
HETATM   38  O   UNL     1      38.184 -13.249   1.544  1.00  0.00    -0.349 OA
BRANCH  38  39
HETATM   39  C   UNL     1      37.188 -13.645   0.588  1.00  0.00     0.171 C 
HETATM   40  C   UNL     1      37.839 -13.854  -0.765  1.00  0.00     0.034 C 
ENDBRANCH  38  39
ENDBRANCH  33  38
ENDBRANCH   1  32
BRANCH   6  41
HETATM   41  N   UNL     1      39.650 -12.833   4.746  1.00  0.00    -0.384 N 
HETATM   42  H   UNL     1      38.691 -12.716   4.436  1.00  0.00     0.157 HD
HETATM   43  H   UNL     1      39.846 -12.407   5.645  1.00  0.00     0.157 HD
ENDBRANCH   6  41
TORSDOF 12
ENDMDL
MODEL 10
REMARK VINA RESULT:      -7.7      3.623      5.816
REMARK  12 active torsions:
REMARK  status: ('A' for Active; 'I' for Inactive)
REMARK    1  A    between atoms: C_2  and  O_3 
REMARK    2  A    between atoms: O_3  and  C_4 
REMARK    3  A    between atoms: C_5  and  N_6 
REMARK    4  A    between atoms: C_7  and  S_8 
REMARK    5  A    between atoms: S_8  and  C_9 
REMARK    6  A    between atoms: C_9  and  C_10 
REMARK       I    between atoms: C_10  and  N_11 
REMARK    7  A    between atoms: N_11  and  C_12 
REMARK    8  A    between atoms: C_12  and  C_13 
REMARK    9  A    between atoms: C_13  and  C_14 
REMARK   10  A    between atoms: C_17  and  S_18 
REMARK   11  A    between atoms: S_18  and  N_19 
REMARK   12  A    between atoms: C_28  and  N_29 
ROOT
HETATM    1  N   UNL     1      39.914 -14.266   0.180  1.00  0.00    -0.273 N 
HETATM    2  C   UNL     1      39.153 -14.034   1.284  1.00  0.00     0.177 A 
HETATM    3  N   UNL     1      39.247 -14.707   2.454  1.00  0.00    -0.204 NA
HETATM    4  C   UNL     1      40.208 -15.631   2.416  1.00  0.00     0.162 A 
HETATM    5  C   UNL     1      41.047 -15.911   1.357  1.00  0.00     0.081 A 
HETATM    6  C   UNL     1      40.925 -15.178   0.165  1.00  0.00     0.124 A 
HETATM    7  N   UNL     1      40.551 -16.478   3.429  1.00  0.00    -0.260 N 
HETATM    8  H   UNL     1      40.140 -16.540   4.355  1.00  0.00     0.191 HD
HETATM    9  N   UNL     1      41.557 -17.304   3.109  1.00  0.00    -0.177 NA
HETATM   10  C   UNL     1      41.862 -16.977   1.846  1.00  0.00     0.068 A 
HETATM   11  C   UNL     1      42.936 -17.726   1.143  1.00  0.00     0.073 C 
ENDROOT
BRANCH   2  12
HETATM   12  S   UNL     1      37.909 -12.730   1.314  1.00  0.00    -0.082 SA
BRANCH  12  13
HETATM   13  C   UNL     1      38.876 -11.396   2.095  1.00  0.00     0.185 C 
BRANCH  13  14
HETATM   14  C   UNL     1      38.626 -11.249   3.595  1.00  0.00     0.227 C 
HETATM   15  N   UNL     1      39.413 -12.094   4.349  1.00  0.00    -0.360 N 
HETATM   16  H   UNL     1      40.028 -12.753   3.883  1.00  0.00     0.162 HD
HETATM   17  O   UNL     1      37.838 -10.442   4.085  1.00  0.00    -0.273 OA
BRANCH  15  18
HETATM   18  C   UNL     1      39.527 -12.006   5.796  1.00  0.00     0.127 C 
BRANCH  18  19
HETATM   19  C   UNL     1      40.526 -10.952   6.282  1.00  0.00     0.058 C 
BRANCH  19  20
HETATM   20  C   UNL     1      40.590 -10.915   7.793  1.00  0.00    -0.057 A 
HETATM   21  C   UNL     1      41.780 -10.572   8.453  1.00  0.00     0.009 A 
HETATM   22  C   UNL     1      41.854 -10.607   9.848  1.00  0.00     0.025 A 
HETATM   23  C   UNL     1      40.728 -10.969  10.590  1.00  0.00     0.074 A 
HETATM   24  C   UNL     1      39.533 -11.302   9.949  1.00  0.00     0.025 A 
HETATM   25  C   UNL     1      39.466 -11.270   8.555  1.00  0.00     0.009 A 
BRANCH  23  26
HETATM   26  S   UNL     1      40.849 -11.100  12.352  1.00  0.00     0.239 S 
HETATM   27  O   UNL     1      42.184 -11.522  12.704  1.00  0.00    -0.206 OA
HETATM   28  O   UNL     1      40.215  -9.950  12.949  1.00  0.00    -0.206 OA
BRANCH  26  29
HETATM   29  N   UNL     1      39.848 -12.408  12.678  1.00  0.00    -0.225 NA
HETATM   30  H   UNL     1      39.524 -12.819  11.801  1.00  0.00     0.136 HD
HETATM   31  H   UNL     1      40.336 -13.072  13.280  1.00  0.00     0.136 HD
ENDBRANCH  26  29
ENDBRANCH  23  26
ENDBRANCH  19  20
ENDBRANCH  18  19
ENDBRANCH  15  18
ENDBRANCH  13  14
ENDBRANCH  12  13
ENDBRANCH   2  12
BRANCH   1  32
HETATM   32  C   UNL     1      39.568 -13.625  -1.057  1.00  0.00     0.076 A 
HETATM   33  C   UNL     1      40.275 -12.473  -1.429  1.00  0.00     0.096 A 
HETATM   34  C   UNL     1      39.957 -11.855  -2.636  1.00  0.00     0.039 A 
HETATM   35  C   UNL     1      38.913 -12.361  -3.419  1.00  0.00     0.003 A 
HETATM   36  C   UNL     1      38.190 -13.487  -3.010  1.00  0.00     0.002 A 
HETATM   37  C   UNL     1      38.512 -14.130  -1.817  1.00  0.00     0.033 A 
BRANCH  33  38
HETATM   38  O   UNL     1      41.304 -12.058  -0.627  1.00  0.00    -0.349 OA
BRANCH  38  39
HETATM   39  C   UNL     1      42.573 -11.941  -1.290  1.00  0.00     0.171 C 
HETATM   40  C   UNL     1      43.190 -10.594  -0.967  1.00  0.00     0.034 C 
ENDBRANCH  38  39
ENDBRANCH  33  38
ENDBRANCH   1  32
BRANCH   6  41
HETATM   41  N   UNL     1      41.751 -15.380  -0.940  1.00  0.00    -0.384 N 
HETATM   42  H   UNL     1      42.309 -14.594  -1.256  1.00  0.00     0.157 HD
HETATM   43  H   UNL     1      41.450 -15.997  -1.686  1.00  0.00     0.157 HD
ENDBRANCH   6  41
TORSDOF 12
ENDMDL
