MODEL 1
REMARK VINA RESULT:      -8.4      0.000      0.000
REMARK  9 active torsions:
REMARK  status: ('A' for Active; 'I' for Inactive)
REMARK    1  A    between atoms: C_2  and  O_3 
REMARK    2  A    between atoms: O_3  and  C_4 
REMARK    3  A    between atoms: C_5  and  C_6 
REMARK    4  A    between atoms: N_7  and  C_9 
REMARK    5  A    between atoms: C_9  and  C_10 
REMARK       I    between atoms: C_10  and  N_11 
REMARK    6  A    between atoms: N_11  and  C_12 
REMARK    7  A    between atoms: C_20  and  C_21 
REMARK    8  A    between atoms: C_21  and  O_22 
REMARK    9  A    between atoms: C_28  and  O_29 
ROOT
HETATM    1  C   UNL     1      40.035 -13.039   3.163  1.00  0.00     0.231 C 
HETATM    2  N   UNL     1      40.467 -14.181   4.103  1.00  0.00    -0.054 N 
HETATM    3  H   UNL     1      39.920 -14.958   3.707  1.00  0.00     0.281 HD
HETATM    4  C   UNL     1      39.969 -14.034   5.511  1.00  0.00     0.239 C 
HETATM    5  C   UNL     1      40.346 -12.683   6.088  1.00  0.00     0.066 C 
HETATM    6  C   UNL     1      39.758 -11.563   5.232  1.00  0.00     0.065 C 
HETATM    7  C   UNL     1      40.325 -11.650   3.795  1.00  0.00     0.055 C 
HETATM    8  C   UNL     1      40.045 -10.184   5.849  1.00  0.00     0.038 C 
HETATM    9  C   UNL     1      39.470  -9.054   4.996  1.00  0.00     0.003 C 
HETATM   10  C   UNL     1      39.963  -9.134   3.558  1.00  0.00     0.001 C 
HETATM   11  C   UNL     1      39.727 -10.510   2.938  1.00  0.00     0.010 C 
ENDROOT
BRANCH   2  12
HETATM   12  C   UNL     1      41.926 -14.680   3.994  1.00  0.00     0.338 C 
BRANCH  12  13
HETATM   13  C   UNL     1      41.950 -16.095   3.379  1.00  0.00     0.248 C 
HETATM   14  N   UNL     1      43.259 -16.573   3.272  1.00  0.00    -0.319 N 
HETATM   15  H   UNL     1      44.022 -15.951   3.506  1.00  0.00     0.169 HD
HETATM   16  O   UNL     1      40.926 -16.742   3.190  1.00  0.00    -0.271 OA
BRANCH  14  17
HETATM   17  C   UNL     1      43.509 -17.883   3.623  1.00  0.00     0.094 C 
HETATM   18  S   UNL     1      43.498 -18.890   2.250  1.00  0.00    -0.075 SA
HETATM   19  C   UNL     1      44.117 -20.189   3.144  1.00  0.00    -0.008 C 
HETATM   20  C   UNL     1      44.223 -19.902   4.493  1.00  0.00    -0.026 C 
HETATM   21  C   UNL     1      44.485 -21.491   2.499  1.00  0.00     0.047 C 
HETATM   22  C   UNL     1      44.650 -20.957   5.483  1.00  0.00     0.041 C 
HETATM   23  C   UNL     1      43.809 -18.543   4.799  1.00  0.00     0.080 C 
HETATM   24  C   UNL     1      45.311 -22.165   4.798  1.00  0.00     0.005 C 
HETATM   25  C   UNL     1      44.544 -22.609   3.546  1.00  0.00     0.005 C 
BRANCH  23  26
HETATM   26  C   UNL     1      43.674 -17.984   6.149  1.00  0.00     0.296 C 
HETATM   27  O   UNL     1      42.960 -18.480   7.010  1.00  0.00    -0.259 OA
BRANCH  26  28
HETATM   28  O   UNL     1      44.329 -16.792   6.290  1.00  0.00    -0.322 OA
HETATM   29  C   UNL     1      43.681 -15.873   7.170  1.00  0.00     0.213 C 
ENDBRANCH  26  28
ENDBRANCH  23  26
ENDBRANCH  14  17
ENDBRANCH  12  13
ENDBRANCH   2  12
BRANCH   1  30
HETATM   30  C   UNL     1      40.438 -13.308   1.715  1.00  0.00     0.006 A 
HETATM   31  C   UNL     1      39.695 -14.098   0.812  1.00  0.00     0.077 A 
HETATM   32  C   UNL     1      40.142 -14.268  -0.503  1.00  0.00     0.037 A 
HETATM   33  C   UNL     1      41.325 -13.669  -0.934  1.00  0.00     0.003 A 
HETATM   34  C   UNL     1      42.066 -12.886  -0.060  1.00  0.00     0.001 A 
HETATM   35  C   UNL     1      41.628 -12.704   1.251  1.00  0.00     0.012 A 
BRANCH  31  36
HETATM   36  O   UNL     1      38.510 -14.617   1.263  1.00  0.00    -0.351 OA
BRANCH  36  37
HETATM   37  C   UNL     1      37.321 -14.190   0.587  1.00  0.00     0.171 C 
HETATM   38  C   UNL     1      37.169 -12.696   0.813  1.00  0.00     0.034 C 
ENDBRANCH  36  37
ENDBRANCH  31  36
ENDBRANCH   1  30
BRANCH   6  39
HETATM   39  O   UNL     1      38.342 -11.778   5.183  1.00  0.00    -0.389 OA
HETATM   40  H   UNL     1      38.154 -12.589   4.669  1.00  0.00     0.210 HD
ENDBRANCH   6  39
TORSDOF 9
ENDMDL
MODEL 2
REMARK VINA RESULT:      -8.1      1.325      1.655
REMARK  9 active torsions:
REMARK  status: ('A' for Active; 'I' for Inactive)
REMARK    1  A    between atoms: C_2  and  O_3 
REMARK    2  A    between atoms: O_3  and  C_4 
REMARK    3  A    between atoms: C_5  and  C_6 
REMARK    4  A    between atoms: N_7  and  C_9 
REMARK    5  A    between atoms: C_9  and  C_10 
REMARK       I    between atoms: C_10  and  N_11 
REMARK    6  A    between atoms: N_11  and  C_12 
REMARK    7  A    between atoms: C_20  and  C_21 
REMARK    8  A    between atoms: C_21  and  O_22 
REMARK    9  A    between atoms: C_28  and  O_29 
ROOT
HETATM    1  C   UNL     1      40.718 -12.740   1.488  1.00  0.00     0.231 C 
HETATM    2  N   UNL     1      41.007 -14.045   2.255  1.00  0.00    -0.054 N 
HETATM    3  H   UNL     1      40.545 -14.726   1.635  1.00  0.00     0.281 HD
HETATM    4  C   UNL     1      40.283 -14.158   3.564  1.00  0.00     0.239 C 
HETATM    5  C   UNL     1      40.539 -12.946   4.439  1.00  0.00     0.066 C 
HETATM    6  C   UNL     1      40.083 -11.677   3.725  1.00  0.00     0.065 C 
HETATM    7  C   UNL     1      40.880 -11.500   2.410  1.00  0.00     0.055 C 
HETATM    8  C   UNL     1      40.244 -10.443   4.630  1.00  0.00     0.038 C 
HETATM    9  C   UNL     1      39.799  -9.164   3.922  1.00  0.00     0.003 C 
HETATM   10  C   UNL     1      40.522  -8.979   2.595  1.00  0.00     0.001 C 
HETATM   11  C   UNL     1      40.412 -10.209   1.697  1.00  0.00     0.010 C 
ENDROOT
BRANCH   2  12
HETATM   12  C   UNL     1      42.473 -14.538   2.294  1.00  0.00     0.338 C 
BRANCH  12  13
HETATM   13  C   UNL     1      42.528 -16.040   1.945  1.00  0.00     0.248 C 
HETATM   14  N   UNL     1      43.793 -16.571   2.215  1.00  0.00    -0.319 N 
HETATM   15  H   UNL     1      44.529 -15.942   2.506  1.00  0.00     0.169 HD
HETATM   16  O   UNL     1      41.526 -16.678   1.643  1.00  0.00    -0.271 OA
BRANCH  14  17
HETATM   17  C   UNL     1      43.869 -17.805   2.827  1.00  0.00     0.094 C 
HETATM   18  S   UNL     1      43.934 -19.052   1.669  1.00  0.00    -0.075 SA
HETATM   19  C   UNL     1      44.307 -20.197   2.859  1.00  0.00    -0.008 C 
HETATM   20  C   UNL     1      44.269 -19.667   4.137  1.00  0.00    -0.026 C 
HETATM   21  C   UNL     1      44.626 -21.621   2.517  1.00  0.00     0.047 C 
HETATM   22  C   UNL     1      44.464 -20.541   5.350  1.00  0.00     0.041 C 
HETATM   23  C   UNL     1      43.952 -18.248   4.132  1.00  0.00     0.080 C 
HETATM   24  C   UNL     1      45.086 -21.902   4.994  1.00  0.00     0.005 C 
HETATM   25  C   UNL     1      44.445 -22.520   3.745  1.00  0.00     0.005 C 
BRANCH  23  26
HETATM   26  C   UNL     1      43.703 -17.435   5.327  1.00  0.00     0.296 C 
HETATM   27  O   UNL     1      44.433 -17.448   6.310  1.00  0.00    -0.259 OA
BRANCH  26  28
HETATM   28  O   UNL     1      42.511 -16.768   5.268  1.00  0.00    -0.322 OA
HETATM   29  C   UNL     1      41.365 -17.620   5.304  1.00  0.00     0.213 C 
ENDBRANCH  26  28
ENDBRANCH  23  26
ENDBRANCH  14  17
ENDBRANCH  12  13
ENDBRANCH   2  12
BRANCH   1  30
HETATM   30  C   UNL     1      41.357 -12.738   0.102  1.00  0.00     0.006 A 
HETATM   31  C   UNL     1      40.963 -13.578  -0.961  1.00  0.00     0.077 A 
HETATM   32  C   UNL     1      41.602 -13.485  -2.203  1.00  0.00     0.037 A 
HETATM   33  C   UNL     1      42.636 -12.571  -2.403  1.00  0.00     0.003 A 
HETATM   34  C   UNL     1      43.033 -11.734  -1.369  1.00  0.00     0.001 A 
HETATM   35  C   UNL     1      42.400 -11.814  -0.129  1.00  0.00     0.012 A 
BRANCH  31  36
HETATM   36  O   UNL     1      39.904 -14.418  -0.736  1.00  0.00    -0.351 OA
BRANCH  36  37
HETATM   37  C   UNL     1      38.626 -13.989  -1.222  1.00  0.00     0.171 C 
HETATM   38  C   UNL     1      37.721 -13.775  -0.021  1.00  0.00     0.034 C 
ENDBRANCH  36  37
ENDBRANCH  31  36
ENDBRANCH   1  30
BRANCH   6  39
HETATM   39  O   UNL     1      38.698 -11.855   3.405  1.00  0.00    -0.389 OA
HETATM   40  H   UNL     1      38.619 -12.353   2.567  1.00  0.00     0.210 HD
ENDBRANCH   6  39
TORSDOF 9
ENDMDL
MODEL 3
REMARK VINA RESULT:      -7.9      2.809      4.653
REMARK  9 active torsions:
REMARK  status: ('A' for Active; 'I' for Inactive)
REMARK    1  A    between atoms: C_2  and  O_3 
REMARK    2  A    between atoms: O_3  and  C_4 
REMARK    3  A    between atoms: C_5  and  C_6 
REMARK    4  A    between atoms: N_7  and  C_9 
REMARK    5  A    between atoms: C_9  and  C_10 
REMARK       I    between atoms: C_10  and  N_11 
REMARK    6  A    between atoms: N_11  and  C_12 
REMARK    7  A    between atoms: C_20  and  C_21 
REMARK    8  A    between atoms: C_21  and  O_22 
REMARK    9  A    between atoms: C_28  and  O_29 
ROOT
HETATM    1  C   UNL     1      40.324 -13.028  -1.568  1.00  0.00     0.231 C 
HETATM    2  N   UNL     1      40.651 -13.492  -0.136  1.00  0.00    -0.054 N 
HETATM    3  H   UNL     1      39.705 -13.717   0.203  1.00  0.00     0.281 HD
HETATM    4  C   UNL     1      41.136 -12.394   0.766  1.00  0.00     0.239 C 
HETATM    5  C   UNL     1      42.310 -11.658   0.151  1.00  0.00     0.066 C 
HETATM    6  C   UNL     1      41.908 -11.057  -1.193  1.00  0.00     0.065 C 
HETATM    7  C   UNL     1      41.484 -12.184  -2.165  1.00  0.00     0.055 C 
HETATM    8  C   UNL     1      43.054 -10.224  -1.793  1.00  0.00     0.038 C 
HETATM    9  C   UNL     1      42.667  -9.624  -3.144  1.00  0.00     0.003 C 
HETATM   10  C   UNL     1      42.191 -10.696  -4.115  1.00  0.00     0.001 C 
HETATM   11  C   UNL     1      41.082 -11.565  -3.525  1.00  0.00     0.010 C 
ENDROOT
BRANCH   2  12
HETATM   12  C   UNL     1      41.413 -14.828   0.023  1.00  0.00     0.338 C 
BRANCH  12  13
HETATM   13  C   UNL     1      41.745 -15.066   1.511  1.00  0.00     0.248 C 
HETATM   14  N   UNL     1      41.021 -16.149   2.019  1.00  0.00    -0.319 N 
HETATM   15  H   UNL     1      40.327 -16.586   1.428  1.00  0.00     0.169 HD
HETATM   16  O   UNL     1      42.656 -14.475   2.080  1.00  0.00    -0.271 OA
BRANCH  14  17
HETATM   17  C   UNL     1      41.675 -17.050   2.834  1.00  0.00     0.094 C 
HETATM   18  S   UNL     1      42.460 -18.244   1.908  1.00  0.00    -0.075 SA
HETATM   19  C   UNL     1      43.279 -18.825   3.272  1.00  0.00    -0.008 C 
HETATM   20  C   UNL     1      42.878 -18.199   4.439  1.00  0.00    -0.026 C 
HETATM   21  C   UNL     1      44.311 -19.908   3.176  1.00  0.00     0.047 C 
HETATM   22  C   UNL     1      43.404 -18.641   5.781  1.00  0.00     0.041 C 
HETATM   23  C   UNL     1      41.877 -17.173   4.194  1.00  0.00     0.080 C 
HETATM   24  C   UNL     1      44.662 -19.516   5.655  1.00  0.00     0.005 C 
HETATM   25  C   UNL     1      44.527 -20.565   4.544  1.00  0.00     0.005 C 
BRANCH  23  26
HETATM   26  C   UNL     1      41.155 -16.433   5.235  1.00  0.00     0.296 C 
HETATM   27  O   UNL     1      40.474 -16.977   6.093  1.00  0.00    -0.259 OA
BRANCH  26  28
HETATM   28  O   UNL     1      41.227 -15.078   5.059  1.00  0.00    -0.322 OA
HETATM   29  C   UNL     1      39.960 -14.421   5.079  1.00  0.00     0.213 C 
ENDBRANCH  26  28
ENDBRANCH  23  26
ENDBRANCH  14  17
ENDBRANCH  12  13
ENDBRANCH   2  12
BRANCH   1  30
HETATM   30  C   UNL     1      39.696 -14.143  -2.401  1.00  0.00     0.006 A 
HETATM   31  C   UNL     1      38.338 -14.191  -2.779  1.00  0.00     0.077 A 
HETATM   32  C   UNL     1      37.865 -15.251  -3.562  1.00  0.00     0.037 A 
HETATM   33  C   UNL     1      38.723 -16.272  -3.968  1.00  0.00     0.003 A 
HETATM   34  C   UNL     1      40.062 -16.238  -3.607  1.00  0.00     0.001 A 
HETATM   35  C   UNL     1      40.547 -15.185  -2.834  1.00  0.00     0.012 A 
BRANCH  31  36
HETATM   36  O   UNL     1      37.547 -13.136  -2.407  1.00  0.00    -0.351 OA
BRANCH  36  37
HETATM   37  C   UNL     1      37.250 -12.165  -3.418  1.00  0.00     0.171 C 
HETATM   38  C   UNL     1      37.125 -10.812  -2.740  1.00  0.00     0.034 C 
ENDBRANCH  36  37
ENDBRANCH  31  36
ENDBRANCH   1  30
BRANCH   6  39
HETATM   39  O   UNL     1      40.779 -10.209  -0.949  1.00  0.00    -0.389 OA
HETATM   40  H   UNL     1      39.979 -10.759  -0.833  1.00  0.00     0.210 HD
ENDBRANCH   6  39
TORSDOF 9
ENDMDL
MODEL 4
REMARK VINA RESULT:      -7.8      2.434      5.385
REMARK  9 active torsions:
REMARK  status: ('A' for Active; 'I' for Inactive)
REMARK    1  A    between atoms: C_2  and  O_3 
REMARK    2  A    between atoms: O_3  and  C_4 
REMARK    3  A    between atoms: C_5  and  C_6 
REMARK    4  A    between atoms: N_7  and  C_9 
REMARK    5  A    between atoms: C_9  and  C_10 
REMARK       I    between atoms: C_10  and  N_11 
REMARK    6  A    between atoms: N_11  and  C_12 
REMARK    7  A    between atoms: C_20  and  C_21 
REMARK    8  A    between atoms: C_21  and  O_22 
REMARK    9  A    between atoms: C_28  and  O_29 
ROOT
HETATM    1  C   UNL     1      40.874 -13.100   0.341  1.00  0.00     0.231 C 
HETATM    2  N   UNL     1      40.867 -14.582   0.764  1.00  0.00    -0.054 N 
HETATM    3  H   UNL     1      41.524 -14.548   1.556  1.00  0.00     0.281 HD
HETATM    4  C   UNL     1      41.506 -15.504  -0.232  1.00  0.00     0.239 C 
HETATM    5  C   UNL     1      40.898 -15.329  -1.611  1.00  0.00     0.066 C 
HETATM    6  C   UNL     1      41.072 -13.888  -2.083  1.00  0.00     0.065 C 
HETATM    7  C   UNL     1      40.348 -12.927  -1.110  1.00  0.00     0.055 C 
HETATM    8  C   UNL     1      40.549 -13.707  -3.518  1.00  0.00     0.038 C 
HETATM    9  C   UNL     1      40.710 -12.266  -3.998  1.00  0.00     0.003 C 
HETATM   10  C   UNL     1      40.055 -11.281  -3.039  1.00  0.00     0.001 C 
HETATM   11  C   UNL     1      40.527 -11.470  -1.599  1.00  0.00     0.010 C 
ENDROOT
BRANCH   2  12
HETATM   12  C   UNL     1      39.570 -15.134   1.402  1.00  0.00     0.338 C 
BRANCH  12  13
HETATM   13  C   UNL     1      39.837 -15.529   2.869  1.00  0.00     0.248 C 
HETATM   14  N   UNL     1      40.332 -16.834   2.954  1.00  0.00    -0.319 N 
HETATM   15  H   UNL     1      40.378 -17.390   2.111  1.00  0.00     0.169 HD
HETATM   16  O   UNL     1      39.777 -14.717   3.785  1.00  0.00    -0.271 OA
BRANCH  14  17
HETATM   17  C   UNL     1      41.379 -17.082   3.817  1.00  0.00     0.094 C 
HETATM   18  S   UNL     1      40.958 -16.667   5.414  1.00  0.00    -0.075 SA
HETATM   19  C   UNL     1      42.355 -17.408   6.021  1.00  0.00    -0.008 C 
HETATM   20  C   UNL     1      43.192 -17.865   5.018  1.00  0.00    -0.026 C 
HETATM   21  C   UNL     1      42.616 -17.523   7.492  1.00  0.00     0.047 C 
HETATM   22  C   UNL     1      44.540 -18.460   5.340  1.00  0.00     0.041 C 
HETATM   23  C   UNL     1      42.643 -17.624   3.694  1.00  0.00     0.080 C 
HETATM   24  C   UNL     1      44.666 -18.853   6.821  1.00  0.00     0.005 C 
HETATM   25  C   UNL     1      44.105 -17.773   7.754  1.00  0.00     0.005 C 
BRANCH  23  26
HETATM   26  C   UNL     1      43.349 -17.866   2.431  1.00  0.00     0.296 C 
HETATM   27  O   UNL     1      44.174 -17.090   1.967  1.00  0.00    -0.259 OA
BRANCH  26  28
HETATM   28  O   UNL     1      42.891 -18.977   1.779  1.00  0.00    -0.322 OA
HETATM   29  C   UNL     1      43.620 -20.168   2.075  1.00  0.00     0.213 C 
ENDBRANCH  26  28
ENDBRANCH  23  26
ENDBRANCH  14  17
ENDBRANCH  12  13
ENDBRANCH   2  12
BRANCH   1  30
HETATM   30  C   UNL     1      40.351 -12.188   1.448  1.00  0.00     0.006 A 
HETATM   31  C   UNL     1      41.052 -11.887   2.635  1.00  0.00     0.077 A 
HETATM   32  C   UNL     1      40.490 -11.021   3.581  1.00  0.00     0.037 A 
HETATM   33  C   UNL     1      39.235 -10.454   3.368  1.00  0.00     0.003 A 
HETATM   34  C   UNL     1      38.533 -10.737   2.204  1.00  0.00     0.001 A 
HETATM   35  C   UNL     1      39.084 -11.592   1.252  1.00  0.00     0.012 A 
BRANCH  31  36
HETATM   36  O   UNL     1      42.306 -12.420   2.773  1.00  0.00    -0.351 OA
BRANCH  36  37
HETATM   37  C   UNL     1      42.638 -12.963   4.057  1.00  0.00     0.171 C 
HETATM   38  C   UNL     1      43.605 -14.113   3.839  1.00  0.00     0.034 C 
ENDBRANCH  36  37
ENDBRANCH  31  36
ENDBRANCH   1  30
BRANCH   6  39
HETATM   39  O   UNL     1      42.477 -13.607  -2.048  1.00  0.00    -0.389 OA
HETATM   40  H   UNL     1      42.918 -14.226  -1.433  1.00  0.00     0.210 HD
ENDBRANCH   6  39
TORSDOF 9
ENDMDL
MODEL 5
REMARK VINA RESULT:      -7.7      5.133      8.832
REMARK  9 active torsions:
REMARK  status: ('A' for Active; 'I' for Inactive)
REMARK    1  A    between atoms: C_2  and  O_3 
REMARK    2  A    between atoms: O_3  and  C_4 
REMARK    3  A    between atoms: C_5  and  C_6 
REMARK    4  A    between atoms: N_7  and  C_9 
REMARK    5  A    between atoms: C_9  and  C_10 
REMARK       I    between atoms: C_10  and  N_11 
REMARK    6  A    between atoms: N_11  and  C_12 
REMARK    7  A    between atoms: C_20  and  C_21 
REMARK    8  A    between atoms: C_21  and  O_22 
REMARK    9  A    between atoms: C_28  and  O_29 
ROOT
HETATM    1  C   UNL     1      41.536 -13.281   5.428  1.00  0.00     0.231 C 
HETATM    2  N   UNL     1      41.185 -12.224   6.493  1.00  0.00    -0.054 N 
HETATM    3  H   UNL     1      40.750 -12.824   7.208  1.00  0.00     0.281 HD
HETATM    4  C   UNL     1      40.103 -11.271   6.074  1.00  0.00     0.239 C 
HETATM    5  C   UNL     1      40.432 -10.617   4.746  1.00  0.00     0.066 C 
HETATM    6  C   UNL     1      40.606 -11.680   3.665  1.00  0.00     0.065 C 
HETATM    7  C   UNL     1      41.773 -12.624   4.041  1.00  0.00     0.055 C 
HETATM    8  C   UNL     1      40.846 -11.038   2.288  1.00  0.00     0.038 C 
HETATM    9  C   UNL     1      41.030 -12.093   1.199  1.00  0.00     0.003 C 
HETATM   10  C   UNL     1      42.137 -13.075   1.555  1.00  0.00     0.001 C 
HETATM   11  C   UNL     1      41.943 -13.695   2.937  1.00  0.00     0.010 C 
ENDROOT
BRANCH   2  12
HETATM   12  C   UNL     1      42.358 -11.560   7.252  1.00  0.00     0.338 C 
BRANCH  12  13
HETATM   13  C   UNL     1      41.812 -10.505   8.237  1.00  0.00     0.248 C 
HETATM   14  N   UNL     1      41.269 -11.114   9.372  1.00  0.00    -0.319 N 
HETATM   15  H   UNL     1      41.207 -12.122   9.397  1.00  0.00     0.169 HD
HETATM   16  O   UNL     1      42.009  -9.305   8.084  1.00  0.00    -0.271 OA
BRANCH  14  17
HETATM   17  C   UNL     1      41.548 -10.564  10.607  1.00  0.00     0.094 C 
HETATM   18  S   UNL     1      40.311  -9.496  11.086  1.00  0.00    -0.075 SA
HETATM   19  C   UNL     1      40.956  -9.381  12.648  1.00  0.00    -0.008 C 
HETATM   20  C   UNL     1      42.161 -10.050  12.775  1.00  0.00    -0.026 C 
HETATM   21  C   UNL     1      40.266  -8.616  13.736  1.00  0.00     0.047 C 
HETATM   22  C   UNL     1      42.957  -9.984  14.054  1.00  0.00     0.041 C 
HETATM   23  C   UNL     1      42.552 -10.715  11.543  1.00  0.00     0.080 C 
HETATM   24  C   UNL     1      42.119  -9.474  15.237  1.00  0.00     0.005 C 
HETATM   25  C   UNL     1      41.254  -8.267  14.855  1.00  0.00     0.005 C 
BRANCH  23  26
HETATM   26  C   UNL     1      43.836 -11.387  11.317  1.00  0.00     0.296 C 
HETATM   27  O   UNL     1      44.093 -12.503  11.750  1.00  0.00    -0.259 OA
BRANCH  26  28
HETATM   28  O   UNL     1      44.744 -10.582  10.686  1.00  0.00    -0.322 OA
HETATM   29  C   UNL     1      45.373 -11.188   9.557  1.00  0.00     0.213 C 
ENDBRANCH  26  28
ENDBRANCH  23  26
ENDBRANCH  14  17
ENDBRANCH  12  13
ENDBRANCH   2  12
BRANCH   1  30
HETATM   30  C   UNL     1      42.530 -14.313   5.955  1.00  0.00     0.006 A 
HETATM   31  C   UNL     1      42.237 -15.679   6.148  1.00  0.00     0.077 A 
HETATM   32  C   UNL     1      43.228 -16.549   6.618  1.00  0.00     0.037 A 
HETATM   33  C   UNL     1      44.508 -16.078   6.908  1.00  0.00     0.003 A 
HETATM   34  C   UNL     1      44.813 -14.738   6.720  1.00  0.00     0.001 A 
HETATM   35  C   UNL     1      43.838 -13.863   6.247  1.00  0.00     0.012 A 
BRANCH  31  36
HETATM   36  O   UNL     1      40.985 -16.107   5.793  1.00  0.00    -0.351 OA
BRANCH  36  37
HETATM   37  C   UNL     1      40.894 -17.403   5.188  1.00  0.00     0.171 C 
HETATM   38  C   UNL     1      41.211 -17.249   3.711  1.00  0.00     0.034 C 
ENDBRANCH  36  37
ENDBRANCH  31  36
ENDBRANCH   1  30
BRANCH   6  39
HETATM   39  O   UNL     1      39.391 -12.440   3.631  1.00  0.00    -0.389 OA
HETATM   40  H   UNL     1      38.714 -11.948   3.126  1.00  0.00     0.210 HD
ENDBRANCH   6  39
TORSDOF 9
ENDMDL
MODEL 6
REMARK VINA RESULT:      -7.6      2.594      5.247
REMARK  9 active torsions:
REMARK  status: ('A' for Active; 'I' for Inactive)
REMARK    1  A    between atoms: C_2  and  O_3 
REMARK    2  A    between atoms: O_3  and  C_4 
REMARK    3  A    between atoms: C_5  and  C_6 
REMARK    4  A    between atoms: N_7  and  C_9 
REMARK    5  A    between atoms: C_9  and  C_10 
REMARK       I    between atoms: C_10  and  N_11 
REMARK    6  A    between atoms: N_11  and  C_12 
REMARK    7  A    between atoms: C_20  and  C_21 
REMARK    8  A    between atoms: C_21  and  O_22 
REMARK    9  A    between atoms: C_28  and  O_29 
ROOT
HETATM    1  C   UNL     1      39.727 -13.260  -0.813  1.00  0.00     0.231 C 
HETATM    2  N   UNL     1      40.628 -13.796   0.316  1.00  0.00    -0.054 N 
HETATM    3  H   UNL     1      41.111 -12.929   0.590  1.00  0.00     0.281 HD
HETATM    4  C   UNL     1      41.717 -14.715  -0.156  1.00  0.00     0.239 C 
HETATM    5  C   UNL     1      41.154 -15.851  -0.988  1.00  0.00     0.066 C 
HETATM    6  C   UNL     1      40.409 -15.296  -2.200  1.00  0.00     0.065 C 
HETATM    7  C   UNL     1      39.230 -14.410  -1.730  1.00  0.00     0.055 C 
HETATM    8  C   UNL     1      39.910 -16.430  -3.112  1.00  0.00     0.038 C 
HETATM    9  C   UNL     1      39.155 -15.887  -4.324  1.00  0.00     0.003 C 
HETATM   10  C   UNL     1      38.016 -14.967  -3.906  1.00  0.00     0.001 C 
HETATM   11  C   UNL     1      38.481 -13.857  -2.965  1.00  0.00     0.010 C 
ENDROOT
BRANCH   2  12
HETATM   12  C   UNL     1      39.939 -14.248   1.625  1.00  0.00     0.338 C 
BRANCH  12  13
HETATM   13  C   UNL     1      41.001 -14.713   2.641  1.00  0.00     0.248 C 
HETATM   14  N   UNL     1      40.544 -15.811   3.377  1.00  0.00    -0.319 N 
HETATM   15  H   UNL     1      39.590 -16.117   3.246  1.00  0.00     0.169 HD
HETATM   16  O   UNL     1      42.142 -14.265   2.645  1.00  0.00    -0.271 OA
BRANCH  14  17
HETATM   17  C   UNL     1      41.416 -16.856   3.605  1.00  0.00     0.094 C 
HETATM   18  S   UNL     1      41.566 -17.831   2.217  1.00  0.00    -0.075 SA
HETATM   19  C   UNL     1      42.868 -18.674   2.897  1.00  0.00    -0.008 C 
HETATM   20  C   UNL     1      43.115 -18.302   4.207  1.00  0.00    -0.026 C 
HETATM   21  C   UNL     1      43.631 -19.709   2.128  1.00  0.00     0.047 C 
HETATM   22  C   UNL     1      44.161 -19.007   5.033  1.00  0.00     0.041 C 
HETATM   23  C   UNL     1      42.214 -17.254   4.658  1.00  0.00     0.080 C 
HETATM   24  C   UNL     1      45.129 -19.831   4.168  1.00  0.00     0.005 C 
HETATM   25  C   UNL     1      44.397 -20.631   3.084  1.00  0.00     0.005 C 
BRANCH  23  26
HETATM   26  C   UNL     1      42.131 -16.746   6.032  1.00  0.00     0.296 C 
HETATM   27  O   UNL     1      42.083 -17.475   7.014  1.00  0.00    -0.259 OA
BRANCH  26  28
HETATM   28  O   UNL     1      41.986 -15.387   6.080  1.00  0.00    -0.322 OA
HETATM   29  C   UNL     1      43.220 -14.670   6.098  1.00  0.00     0.213 C 
ENDBRANCH  26  28
ENDBRANCH  23  26
ENDBRANCH  14  17
ENDBRANCH  12  13
ENDBRANCH   2  12
BRANCH   1  30
HETATM   30  C   UNL     1      38.734 -12.218  -0.304  1.00  0.00     0.006 A 
HETATM   31  C   UNL     1      39.006 -10.838  -0.201  1.00  0.00     0.077 A 
HETATM   32  C   UNL     1      38.017  -9.961   0.262  1.00  0.00     0.037 A 
HETATM   33  C   UNL     1      36.760 -10.438   0.631  1.00  0.00     0.003 A 
HETATM   34  C   UNL     1      36.475 -11.792   0.532  1.00  0.00     0.001 A 
HETATM   35  C   UNL     1      37.449 -12.675   0.068  1.00  0.00     0.012 A 
BRANCH  31  36
HETATM   36  O   UNL     1      40.233 -10.407  -0.631  1.00  0.00    -0.351 OA
BRANCH  36  37
HETATM   37  C   UNL     1      41.213 -10.140   0.380  1.00  0.00     0.171 C 
HETATM   38  C   UNL     1      42.585 -10.373  -0.230  1.00  0.00     0.034 C 
ENDBRANCH  36  37
ENDBRANCH  31  36
ENDBRANCH   1  30
BRANCH   6  39
HETATM   39  O   UNL     1      41.340 -14.479  -2.921  1.00  0.00    -0.389 OA
HETATM   40  H   UNL     1      42.115 -14.293  -2.355  1.00  0.00     0.210 HD
ENDBRANCH   6  39
TORSDOF 9
ENDMDL
MODEL 7
REMARK VINA RESULT:      -7.5      1.888      4.231
REMARK  9 active torsions:
REMARK  status: ('A' for Active; 'I' for Inactive)
REMARK    1  A    between atoms: C_2  and  O_3 
REMARK    2  A    between atoms: O_3  and  C_4 
REMARK    3  A    between atoms: C_5  and  C_6 
REMARK    4  A    between atoms: N_7  and  C_9 
REMARK    5  A    between atoms: C_9  and  C_10 
REMARK       I    between atoms: C_10  and  N_11 
REMARK    6  A    between atoms: N_11  and  C_12 
REMARK    7  A    between atoms: C_20  and  C_21 
REMARK    8  A    between atoms: C_21  and  O_22 
REMARK    9  A    between atoms: C_28  and  O_29 
ROOT
HETATM    1  C   UNL     1      41.360 -12.699   2.371  1.00  0.00     0.231 C 
HETATM    2  N   UNL     1      41.690 -14.167   2.040  1.00  0.00    -0.054 N 
HETATM    3  H   UNL     1      42.475 -14.326   2.688  1.00  0.00     0.281 HD
HETATM    4  C   UNL     1      42.270 -14.369   0.670  1.00  0.00     0.239 C 
HETATM    5  C   UNL     1      41.381 -13.758  -0.396  1.00  0.00     0.066 C 
HETATM    6  C   UNL     1      41.209 -12.262  -0.143  1.00  0.00     0.065 C 
HETATM    7  C   UNL     1      40.536 -12.038   1.232  1.00  0.00     0.055 C 
HETATM    8  C   UNL     1      40.390 -11.601  -1.265  1.00  0.00     0.038 C 
HETATM    9  C   UNL     1      40.202 -10.105  -1.019  1.00  0.00     0.003 C 
HETATM   10  C   UNL     1      39.590  -9.837   0.349  1.00  0.00     0.001 C 
HETATM   11  C   UNL     1      40.362 -10.520   1.476  1.00  0.00     0.010 C 
ENDROOT
BRANCH   2  12
HETATM   12  C   UNL     1      40.660 -15.241   2.459  1.00  0.00     0.338 C 
BRANCH  12  13
HETATM   13  C   UNL     1      41.177 -16.641   2.070  1.00  0.00     0.248 C 
HETATM   14  N   UNL     1      42.516 -16.801   2.438  1.00  0.00    -0.319 N 
HETATM   15  H   UNL     1      43.012 -16.005   2.815  1.00  0.00     0.169 HD
HETATM   16  O   UNL     1      40.431 -17.522   1.657  1.00  0.00    -0.271 OA
BRANCH  14  17
HETATM   17  C   UNL     1      42.899 -17.994   3.015  1.00  0.00     0.094 C 
HETATM   18  S   UNL     1      43.319 -19.135   1.823  1.00  0.00    -0.075 SA
HETATM   19  C   UNL     1      43.951 -20.187   2.991  1.00  0.00    -0.008 C 
HETATM   20  C   UNL     1      43.744 -19.733   4.282  1.00  0.00    -0.026 C 
HETATM   21  C   UNL     1      44.642 -21.463   2.617  1.00  0.00     0.047 C 
HETATM   22  C   UNL     1      44.133 -20.571   5.474  1.00  0.00     0.041 C 
HETATM   23  C   UNL     1      43.064 -18.448   4.309  1.00  0.00     0.080 C 
HETATM   24  C   UNL     1      45.099 -21.706   5.098  1.00  0.00     0.005 C 
HETATM   25  C   UNL     1      44.674 -22.424   3.811  1.00  0.00     0.005 C 
BRANCH  23  26
HETATM   26  C   UNL     1      42.581 -17.774   5.518  1.00  0.00     0.296 C 
HETATM   27  O   UNL     1      41.439 -17.347   5.635  1.00  0.00    -0.259 OA
BRANCH  26  28
HETATM   28  O   UNL     1      43.574 -17.567   6.435  1.00  0.00    -0.322 OA
HETATM   29  C   UNL     1      43.107 -17.432   7.778  1.00  0.00     0.213 C 
ENDBRANCH  26  28
ENDBRANCH  23  26
ENDBRANCH  14  17
ENDBRANCH  12  13
ENDBRANCH   2  12
BRANCH   1  30
HETATM   30  C   UNL     1      40.915 -12.526   3.821  1.00  0.00     0.006 A 
HETATM   31  C   UNL     1      41.764 -12.668   4.940  1.00  0.00     0.077 A 
HETATM   32  C   UNL     1      41.261 -12.470   6.231  1.00  0.00     0.037 A 
HETATM   33  C   UNL     1      39.921 -12.139   6.429  1.00  0.00     0.003 A 
HETATM   34  C   UNL     1      39.074 -11.991   5.339  1.00  0.00     0.001 A 
HETATM   35  C   UNL     1      39.564 -12.180   4.049  1.00  0.00     0.012 A 
BRANCH  31  36
HETATM   36  O   UNL     1      43.085 -12.936   4.693  1.00  0.00    -0.351 OA
BRANCH  36  37
HETATM   37  C   UNL     1      43.555 -14.242   5.052  1.00  0.00     0.171 C 
HETATM   38  C   UNL     1      44.428 -14.097   6.287  1.00  0.00     0.034 C 
ENDBRANCH  36  37
ENDBRANCH  31  36
ENDBRANCH   1  30
BRANCH   6  39
HETATM   39  O   UNL     1      42.523 -11.692  -0.113  1.00  0.00    -0.389 OA
HETATM   40  H   UNL     1      42.512 -10.881   0.433  1.00  0.00     0.210 HD
ENDBRANCH   6  39
TORSDOF 9
ENDMDL
MODEL 8
REMARK VINA RESULT:      -7.4      3.026      5.200
REMARK  9 active torsions:
REMARK  status: ('A' for Active; 'I' for Inactive)
REMARK    1  A    between atoms: C_2  and  O_3 
REMARK    2  A    between atoms: O_3  and  C_4 
REMARK    3  A    between atoms: C_5  and  C_6 
REMARK    4  A    between atoms: N_7  and  C_9 
REMARK    5  A    between atoms: C_9  and  C_10 
REMARK       I    between atoms: C_10  and  N_11 
REMARK    6  A    between atoms: N_11  and  C_12 
REMARK    7  A    between atoms: C_20  and  C_21 
REMARK    8  A    between atoms: C_21  and  O_22 
REMARK    9  A    between atoms: C_28  and  O_29 
ROOT
HETATM    1  C   UNL     1      40.286 -13.182  -1.381  1.00  0.00     0.231 C 
HETATM    2  N   UNL     1      40.690 -13.862  -0.059  1.00  0.00    -0.054 N 
HETATM    3  H   UNL     1      39.760 -14.099   0.314  1.00  0.00     0.281 HD
HETATM    4  C   UNL     1      41.286 -12.926   0.952  1.00  0.00     0.239 C 
HETATM    5  C   UNL     1      42.449 -12.151   0.362  1.00  0.00     0.066 C 
HETATM    6  C   UNL     1      41.984 -11.347  -0.849  1.00  0.00     0.065 C 
HETATM    7  C   UNL     1      41.441 -12.304  -1.937  1.00  0.00     0.055 C 
HETATM    8  C   UNL     1      43.124 -10.477  -1.408  1.00  0.00     0.038 C 
HETATM    9  C   UNL     1      42.673  -9.674  -2.627  1.00  0.00     0.003 C 
HETATM   10  C   UNL     1      42.082 -10.575  -3.702  1.00  0.00     0.001 C 
HETATM   11  C   UNL     1      40.977 -11.479  -3.160  1.00  0.00     0.010 C 
ENDROOT
BRANCH   2  12
HETATM   12  C   UNL     1      41.397 -15.234  -0.149  1.00  0.00     0.338 C 
BRANCH  12  13
HETATM   13  C   UNL     1      41.365 -15.930   1.227  1.00  0.00     0.248 C 
HETATM   14  N   UNL     1      42.614 -16.473   1.543  1.00  0.00    -0.319 N 
HETATM   15  H   UNL     1      43.346 -16.440   0.846  1.00  0.00     0.169 HD
HETATM   16  O   UNL     1      40.404 -15.841   1.982  1.00  0.00    -0.271 OA
BRANCH  14  17
HETATM   17  C   UNL     1      43.090 -16.315   2.828  1.00  0.00     0.094 C 
HETATM   18  S   UNL     1      43.261 -14.665   3.212  1.00  0.00    -0.075 SA
HETATM   19  C   UNL     1      43.537 -15.028   4.843  1.00  0.00    -0.008 C 
HETATM   20  C   UNL     1      43.616 -16.390   5.078  1.00  0.00    -0.026 C 
HETATM   21  C   UNL     1      43.685 -13.956   5.880  1.00  0.00     0.047 C 
HETATM   22  C   UNL     1      43.964 -16.926   6.444  1.00  0.00     0.041 C 
HETATM   23  C   UNL     1      43.405 -17.168   3.868  1.00  0.00     0.080 C 
HETATM   24  C   UNL     1      43.808 -15.864   7.544  1.00  0.00     0.005 C 
HETATM   25  C   UNL     1      44.390 -14.508   7.124  1.00  0.00     0.005 C 
BRANCH  23  26
HETATM   26  C   UNL     1      43.563 -18.622   3.761  1.00  0.00     0.296 C 
HETATM   27  O   UNL     1      43.326 -19.390   4.685  1.00  0.00    -0.259 OA
BRANCH  26  28
HETATM   28  O   UNL     1      44.120 -19.003   2.572  1.00  0.00    -0.322 OA
HETATM   29  C   UNL     1      43.502 -20.146   1.980  1.00  0.00     0.213 C 
ENDBRANCH  26  28
ENDBRANCH  23  26
ENDBRANCH  14  17
ENDBRANCH  12  13
ENDBRANCH   2  12
BRANCH   1  30
HETATM   30  C   UNL     1      39.551 -14.141  -2.315  1.00  0.00     0.006 A 
HETATM   31  C   UNL     1      38.164 -14.104  -2.566  1.00  0.00     0.077 A 
HETATM   32  C   UNL     1      37.588 -15.019  -3.456  1.00  0.00     0.037 A 
HETATM   33  C   UNL     1      38.372 -15.977  -4.097  1.00  0.00     0.003 A 
HETATM   34  C   UNL     1      39.740 -16.023  -3.864  1.00  0.00     0.001 A 
HETATM   35  C   UNL     1      40.326 -15.115  -2.984  1.00  0.00     0.012 A 
BRANCH  31  36
HETATM   36  O   UNL     1      37.443 -13.109  -1.960  1.00  0.00    -0.351 OA
BRANCH  36  37
HETATM   37  C   UNL     1      37.173 -11.940  -2.744  1.00  0.00     0.171 C 
HETATM   38  C   UNL     1      37.328 -10.729  -1.840  1.00  0.00     0.034 C 
ENDBRANCH  36  37
ENDBRANCH  31  36
ENDBRANCH   1  30
BRANCH   6  39
HETATM   39  O   UNL     1      40.916 -10.503  -0.402  1.00  0.00    -0.389 OA
HETATM   40  H   UNL     1      40.910 -10.476   0.576  1.00  0.00     0.210 HD
ENDBRANCH   6  39
TORSDOF 9
ENDMDL
MODEL 9
REMARK VINA RESULT:      -7.4      2.740      8.481
REMARK  9 active torsions:
REMARK  status: ('A' for Active; 'I' for Inactive)
REMARK    1  A    between atoms: C_2  and  O_3 
REMARK    2  A    between atoms: O_3  and  C_4 
REMARK    3  A    between atoms: C_5  and  C_6 
REMARK    4  A    between atoms: N_7  and  C_9 
REMARK    5  A    between atoms: C_9  and  C_10 
REMARK       I    between atoms: C_10  and  N_11 
REMARK    6  A    between atoms: N_11  and  C_12 
REMARK    7  A    between atoms: C_20  and  C_21 
REMARK    8  A    between atoms: C_21  and  O_22 
REMARK    9  A    between atoms: C_28  and  O_29 
ROOT
HETATM    1  C   UNL     1      41.633 -15.605   4.767  1.00  0.00     0.231 C 
HETATM    2  N   UNL     1      41.911 -15.504   3.255  1.00  0.00    -0.054 N 
HETATM    3  H   UNL     1      40.960 -15.319   2.908  1.00  0.00     0.281 HD
HETATM    4  C   UNL     1      42.311 -16.803   2.619  1.00  0.00     0.239 C 
HETATM    5  C   UNL     1      43.484 -17.432   3.347  1.00  0.00     0.066 C 
HETATM    6  C   UNL     1      43.123 -17.682   4.809  1.00  0.00     0.065 C 
HETATM    7  C   UNL     1      42.787 -16.340   5.503  1.00  0.00     0.055 C 
HETATM    8  C   UNL     1      44.262 -18.407   5.545  1.00  0.00     0.038 C 
HETATM    9  C   UNL     1      43.916 -18.655   7.013  1.00  0.00     0.003 C 
HETATM   10  C   UNL     1      43.528 -17.365   7.721  1.00  0.00     0.001 C 
HETATM   11  C   UNL     1      42.427 -16.605   6.984  1.00  0.00     0.010 C 
ENDROOT
BRANCH   2  12
HETATM   12  C   UNL     1      42.715 -14.279   2.759  1.00  0.00     0.338 C 
BRANCH  12  13
HETATM   13  C   UNL     1      42.114 -13.761   1.436  1.00  0.00     0.248 C 
HETATM   14  N   UNL     1      41.046 -14.563   1.023  1.00  0.00    -0.319 N 
HETATM   15  H   UNL     1      40.842 -15.404   1.546  1.00  0.00     0.169 HD
HETATM   16  O   UNL     1      42.445 -12.688   0.944  1.00  0.00    -0.271 OA
BRANCH  14  17
HETATM   17  C   UNL     1      39.912 -13.945   0.538  1.00  0.00     0.094 C 
HETATM   18  S   UNL     1      38.980 -13.306   1.811  1.00  0.00    -0.075 SA
HETATM   19  C   UNL     1      37.986 -12.471   0.723  1.00  0.00    -0.008 C 
HETATM   20  C   UNL     1      38.282 -12.763  -0.597  1.00  0.00    -0.026 C 
HETATM   21  C   UNL     1      36.911 -11.537   1.188  1.00  0.00     0.047 C 
HETATM   22  C   UNL     1      37.446 -12.209  -1.724  1.00  0.00     0.041 C 
HETATM   23  C   UNL     1      39.397 -13.688  -0.718  1.00  0.00     0.080 C 
HETATM   24  C   UNL     1      36.564 -11.034  -1.272  1.00  0.00     0.005 C 
HETATM   25  C   UNL     1      35.882 -11.308   0.075  1.00  0.00     0.005 C 
BRANCH  23  26
HETATM   26  C   UNL     1      39.859 -14.295  -1.970  1.00  0.00     0.296 C 
HETATM   27  O   UNL     1      39.101 -14.801  -2.788  1.00  0.00    -0.259 OA
BRANCH  26  28
HETATM   28  O   UNL     1      41.223 -14.344  -2.057  1.00  0.00    -0.322 OA
HETATM   29  C   UNL     1      41.817 -13.153  -2.572  1.00  0.00     0.213 C 
ENDBRANCH  26  28
ENDBRANCH  23  26
ENDBRANCH  14  17
ENDBRANCH  12  13
ENDBRANCH   2  12
BRANCH   1  30
HETATM   30  C   UNL     1      41.089 -14.297   5.337  1.00  0.00     0.006 A 
HETATM   31  C   UNL     1      41.888 -13.256   5.854  1.00  0.00     0.077 A 
HETATM   32  C   UNL     1      41.290 -12.086   6.336  1.00  0.00     0.037 A 
HETATM   33  C   UNL     1      39.904 -11.937   6.319  1.00  0.00     0.003 A 
HETATM   34  C   UNL     1      39.103 -12.950   5.810  1.00  0.00     0.001 A 
HETATM   35  C   UNL     1      39.687 -14.118   5.322  1.00  0.00     0.012 A 
BRANCH  31  36
HETATM   36  O   UNL     1      43.247 -13.422   5.795  1.00  0.00    -0.351 OA
BRANCH  36  37
HETATM   37  C   UNL     1      43.974 -13.214   7.013  1.00  0.00     0.171 C 
HETATM   38  C   UNL     1      45.288 -13.969   6.903  1.00  0.00     0.034 C 
ENDBRANCH  36  37
ENDBRANCH  31  36
ENDBRANCH   1  30
BRANCH   6  39
HETATM   39  O   UNL     1      41.952 -18.508   4.812  1.00  0.00    -0.389 OA
HETATM   40  H   UNL     1      42.040 -19.195   5.503  1.00  0.00     0.210 HD
ENDBRANCH   6  39
TORSDOF 9
ENDMDL
MODEL 10
REMARK VINA RESULT:      -7.4      4.816      9.157
REMARK  9 active torsions:
REMARK  status: ('A' for Active; 'I' for Inactive)
REMARK    1  A    between atoms: C_2  and  O_3 
REMARK    2  A    between atoms: O_3  and  C_4 
REMARK    3  A    between atoms: C_5  and  C_6 
REMARK    4  A    between atoms: N_7  and  C_9 
REMARK    5  A    between atoms: C_9  and  C_10 
REMARK       I    between atoms: C_10  and  N_11 
REMARK    6  A    between atoms: N_11  and  C_12 
REMARK    7  A    between atoms: C_20  and  C_21 
REMARK    8  A    between atoms: C_21  and  O_22 
REMARK    9  A    between atoms: C_28  and  O_29 
ROOT
HETATM    1  C   UNL     1      41.382 -13.247   5.373  1.00  0.00     0.231 C 
HETATM    2  N   UNL     1      40.899 -12.240   6.434  1.00  0.00    -0.054 N 
HETATM    3  H   UNL     1      40.479 -12.884   7.119  1.00  0.00     0.281 HD
HETATM    4  C   UNL     1      39.766 -11.368   5.977  1.00  0.00     0.239 C 
HETATM    5  C   UNL     1      40.104 -10.667   4.675  1.00  0.00     0.066 C 
HETATM    6  C   UNL     1      40.411 -11.695   3.589  1.00  0.00     0.065 C 
HETATM    7  C   UNL     1      41.631 -12.550   4.008  1.00  0.00     0.055 C 
HETATM    8  C   UNL     1      40.664 -11.011   2.234  1.00  0.00     0.038 C 
HETATM    9  C   UNL     1      40.983 -12.030   1.141  1.00  0.00     0.003 C 
HETATM   10  C   UNL     1      42.146 -12.928   1.536  1.00  0.00     0.001 C 
HETATM   11  C   UNL     1      41.937 -13.585   2.899  1.00  0.00     0.010 C 
ENDROOT
BRANCH   2  12
HETATM   12  C   UNL     1      41.978 -11.499   7.257  1.00  0.00     0.338 C 
BRANCH  12  13
HETATM   13  C   UNL     1      41.307 -10.491   8.212  1.00  0.00     0.248 C 
HETATM   14  N   UNL     1      40.719 -11.145   9.299  1.00  0.00    -0.319 N 
HETATM   15  H   UNL     1      40.711 -12.155   9.309  1.00  0.00     0.169 HD
HETATM   16  O   UNL     1      41.447  -9.279   8.087  1.00  0.00    -0.271 OA
BRANCH  14  17
HETATM   17  C   UNL     1      40.879 -10.598  10.556  1.00  0.00     0.094 C 
HETATM   18  S   UNL     1      42.378 -11.049  11.226  1.00  0.00    -0.075 SA
HETATM   19  C   UNL     1      42.191  -9.945  12.497  1.00  0.00    -0.008 C 
HETATM   20  C   UNL     1      40.955  -9.323  12.482  1.00  0.00    -0.026 C 
HETATM   21  C   UNL     1      43.271  -9.711  13.509  1.00  0.00     0.047 C 
HETATM   22  C   UNL     1      40.543  -8.384  13.587  1.00  0.00     0.041 C 
HETATM   23  C   UNL     1      40.140  -9.748  11.356  1.00  0.00     0.080 C 
HETATM   24  C   UNL     1      41.739  -7.916  14.432  1.00  0.00     0.005 C 
HETATM   25  C   UNL     1      42.690  -9.070  14.774  1.00  0.00     0.005 C 
BRANCH  23  26
HETATM   26  C   UNL     1      38.738  -9.378  11.141  1.00  0.00     0.296 C 
HETATM   27  O   UNL     1      37.881  -9.469  12.011  1.00  0.00    -0.259 OA
BRANCH  26  28
HETATM   28  O   UNL     1      38.476  -9.048   9.840  1.00  0.00    -0.322 OA
HETATM   29  C   UNL     1      38.691  -7.669   9.535  1.00  0.00     0.213 C 
ENDBRANCH  26  28
ENDBRANCH  23  26
ENDBRANCH  14  17
ENDBRANCH  12  13
ENDBRANCH   2  12
BRANCH   1  30
HETATM   30  C   UNL     1      42.429 -14.207   5.933  1.00  0.00     0.006 A 
HETATM   31  C   UNL     1      42.216 -15.585   6.149  1.00  0.00     0.077 A 
HETATM   32  C   UNL     1      43.250 -16.384   6.650  1.00  0.00     0.037 A 
HETATM   33  C   UNL     1      44.495 -15.832   6.947  1.00  0.00     0.003 A 
HETATM   34  C   UNL     1      44.723 -14.479   6.736  1.00  0.00     0.001 A 
HETATM   35  C   UNL     1      43.703 -13.674   6.232  1.00  0.00     0.012 A 
BRANCH  31  36
HETATM   36  O   UNL     1      40.996 -16.094   5.787  1.00  0.00    -0.351 OA
BRANCH  36  37
HETATM   37  C   UNL     1      40.997 -17.381   5.157  1.00  0.00     0.171 C 
HETATM   38  C   UNL     1      41.241 -17.170   3.672  1.00  0.00     0.034 C 
ENDBRANCH  36  37
ENDBRANCH  31  36
ENDBRANCH   1  30
BRANCH   6  39
HETATM   39  O   UNL     1      39.264 -12.547   3.486  1.00  0.00    -0.389 OA
HETATM   40  H   UNL     1      38.536 -12.061   3.050  1.00  0.00     0.210 HD
ENDBRANCH   6  39
TORSDOF 9
ENDMDL
