MODEL 1
REMARK VINA RESULT:      -9.7      0.000      0.000
REMARK  5 active torsions:
REMARK  status: ('A' for Active; 'I' for Inactive)
REMARK    1  A    between atoms: O_2  and  C_3 
REMARK    2  A    between atoms: C_3  and  C_4 
REMARK    3  A    between atoms: C_6  and  C_7 
REMARK       I    between atoms: C_7  and  N_8 
REMARK    4  A    between atoms: N_8  and  C_9 
REMARK    5  A    between atoms: C_10  and  O_11 
ROOT
HETATM    1  C   UNL     1      43.960 -15.614   6.531  1.00  0.00     0.071 A 
HETATM    2  C   UNL     1      43.199 -15.332   5.378  1.00  0.00     0.096 A 
HETATM    3  C   UNL     1      43.004 -16.279   4.362  1.00  0.00     0.054 A 
HETATM    4  C   UNL     1      43.635 -17.530   4.491  1.00  0.00     0.014 A 
HETATM    5  C   UNL     1      44.388 -17.776   5.634  1.00  0.00     0.089 A 
HETATM    6  O   UNL     1      44.926 -19.026   5.590  1.00  0.00    -0.309 OA
HETATM    7  C   UNL     1      44.532 -19.590   4.417  1.00  0.00     0.087 A 
HETATM    8  C   UNL     1      43.727 -18.712   3.698  1.00  0.00     0.011 A 
HETATM    9  C   UNL     1      44.882 -20.865   3.980  1.00  0.00     0.038 A 
HETATM   10  C   UNL     1      44.380 -21.261   2.737  1.00  0.00     0.003 A 
HETATM   11  C   UNL     1      43.566 -20.411   1.984  1.00  0.00     0.001 A 
HETATM   12  C   UNL     1      43.228 -19.132   2.451  1.00  0.00     0.015 A 
HETATM   13  C   UNL     1      44.569 -16.863   6.675  1.00  0.00     0.070 A 
ENDROOT
BRANCH   1  14
HETATM   14  N   UNL     1      44.085 -14.570   7.476  1.00  0.00    -0.320 N 
HETATM   15  C   UNL     1      45.016 -13.552   7.486  1.00  0.00     0.256 C 
HETATM   16  O   UNL     1      45.929 -13.392   6.687  1.00  0.00    -0.267 OA
HETATM   17  H   UNL     1      43.327 -14.541   8.149  1.00  0.00     0.169 HD
BRANCH  15  18
HETATM   18  C   UNL     1      44.809 -12.522   8.543  1.00  0.00     0.033 A 
HETATM   19  C   UNL     1      43.599 -11.813   8.533  1.00  0.00     0.026 A 
HETATM   20  C   UNL     1      43.324 -10.852   9.515  1.00  0.00    -0.034 A 
HETATM   21  C   UNL     1      44.285 -10.603  10.504  1.00  0.00     0.009 A 
HETATM   22  C   UNL     1      45.499 -11.293  10.508  1.00  0.00     0.002 A 
HETATM   23  C   UNL     1      45.765 -12.252   9.528  1.00  0.00     0.017 A 
BRANCH  20  24
HETATM   24  C   UNL     1      42.013 -10.109   9.509  1.00  0.00     0.205 C 
BRANCH  24  25
HETATM   25  O   UNL     1      41.497 -10.066  10.836  1.00  0.00    -0.391 OA
HETATM   26  C   UNL     1      40.566 -11.115  11.066  1.00  0.00     0.201 C 
ENDBRANCH  24  25
ENDBRANCH  20  24
ENDBRANCH  15  18
ENDBRANCH   1  14
BRANCH   2  27
HETATM   27  O   UNL     1      42.606 -14.091   5.288  1.00  0.00    -0.354 OA
HETATM   28  C   UNL     1      43.042 -13.404   4.113  1.00  0.00     0.210 C 
ENDBRANCH   2  27
TORSDOF 5
ENDMDL
MODEL 2
REMARK VINA RESULT:      -8.4      1.490      2.522
REMARK  5 active torsions:
REMARK  status: ('A' for Active; 'I' for Inactive)
REMARK    1  A    between atoms: O_2  and  C_3 
REMARK    2  A    between atoms: C_3  and  C_4 
REMARK    3  A    between atoms: C_6  and  C_7 
REMARK       I    between atoms: C_7  and  N_8 
REMARK    4  A    between atoms: N_8  and  C_9 
REMARK    5  A    between atoms: C_10  and  O_11 
ROOT
HETATM    1  C   UNL     1      43.768 -14.681   6.612  1.00  0.00     0.071 A 
HETATM    2  C   UNL     1      43.774 -16.031   7.015  1.00  0.00     0.096 A 
HETATM    3  C   UNL     1      43.751 -17.087   6.091  1.00  0.00     0.054 A 
HETATM    4  C   UNL     1      43.670 -16.768   4.723  1.00  0.00     0.014 A 
HETATM    5  C   UNL     1      43.655 -15.427   4.356  1.00  0.00     0.089 A 
HETATM    6  O   UNL     1      43.571 -15.305   3.003  1.00  0.00    -0.309 OA
HETATM    7  C   UNL     1      43.522 -16.564   2.490  1.00  0.00     0.087 A 
HETATM    8  C   UNL     1      43.585 -17.509   3.508  1.00  0.00     0.011 A 
HETATM    9  C   UNL     1      43.418 -16.877   1.137  1.00  0.00     0.038 A 
HETATM   10  C   UNL     1      43.374 -18.235   0.810  1.00  0.00     0.003 A 
HETATM   11  C   UNL     1      43.437 -19.218   1.802  1.00  0.00     0.001 A 
HETATM   12  C   UNL     1      43.544 -18.872   3.157  1.00  0.00     0.015 A 
HETATM   13  C   UNL     1      43.712 -14.360   5.254  1.00  0.00     0.070 A 
ENDROOT
BRANCH   1  14
HETATM   14  N   UNL     1      43.786 -13.714   7.644  1.00  0.00    -0.320 N 
HETATM   15  C   UNL     1      44.860 -12.962   8.072  1.00  0.00     0.256 C 
HETATM   16  O   UNL     1      46.008 -13.025   7.651  1.00  0.00    -0.267 OA
HETATM   17  H   UNL     1      42.868 -13.504   8.019  1.00  0.00     0.169 HD
BRANCH  15  18
HETATM   18  C   UNL     1      44.535 -11.927   9.094  1.00  0.00     0.033 A 
HETATM   19  C   UNL     1      43.305 -11.264   8.982  1.00  0.00     0.026 A 
HETATM   20  C   UNL     1      42.920 -10.302   9.924  1.00  0.00    -0.034 A 
HETATM   21  C   UNL     1      43.793 -10.005  10.980  1.00  0.00     0.009 A 
HETATM   22  C   UNL     1      45.028 -10.649  11.086  1.00  0.00     0.002 A 
HETATM   23  C   UNL     1      45.403 -11.608  10.145  1.00  0.00     0.017 A 
BRANCH  20  24
HETATM   24  C   UNL     1      41.587  -9.610   9.807  1.00  0.00     0.205 C 
BRANCH  24  25
HETATM   25  O   UNL     1      40.549 -10.554  10.054  1.00  0.00    -0.391 OA
HETATM   26  C   UNL     1      39.801 -10.213  11.213  1.00  0.00     0.201 C 
ENDBRANCH  24  25
ENDBRANCH  20  24
ENDBRANCH  15  18
ENDBRANCH   1  14
BRANCH   2  27
HETATM   27  O   UNL     1      43.844 -16.298   8.366  1.00  0.00    -0.354 OA
HETATM   28  C   UNL     1      43.588 -17.681   8.624  1.00  0.00     0.210 C 
ENDBRANCH   2  27
TORSDOF 5
ENDMDL
MODEL 3
REMARK VINA RESULT:      -8.3      4.871      7.498
REMARK  5 active torsions:
REMARK  status: ('A' for Active; 'I' for Inactive)
REMARK    1  A    between atoms: O_2  and  C_3 
REMARK    2  A    between atoms: C_3  and  C_4 
REMARK    3  A    between atoms: C_6  and  C_7 
REMARK       I    between atoms: C_7  and  N_8 
REMARK    4  A    between atoms: N_8  and  C_9 
REMARK    5  A    between atoms: C_10  and  O_11 
ROOT
HETATM    1  C   UNL     1      42.988 -16.720   1.454  1.00  0.00     0.071 A 
HETATM    2  C   UNL     1      43.270 -16.431   2.804  1.00  0.00     0.096 A 
HETATM    3  C   UNL     1      43.728 -17.411   3.698  1.00  0.00     0.054 A 
HETATM    4  C   UNL     1      43.857 -18.730   3.226  1.00  0.00     0.014 A 
HETATM    5  C   UNL     1      43.562 -18.987   1.892  1.00  0.00     0.089 A 
HETATM    6  O   UNL     1      43.738 -20.308   1.611  1.00  0.00    -0.309 OA
HETATM    7  C   UNL     1      44.138 -20.911   2.763  1.00  0.00     0.087 A 
HETATM    8  C   UNL     1      44.235 -19.982   3.793  1.00  0.00     0.011 A 
HETATM    9  C   UNL     1      44.412 -22.269   2.905  1.00  0.00     0.038 A 
HETATM   10  C   UNL     1      44.804 -22.699   4.175  1.00  0.00     0.003 A 
HETATM   11  C   UNL     1      44.916 -21.798   5.239  1.00  0.00     0.001 A 
HETATM   12  C   UNL     1      44.636 -20.435   5.065  1.00  0.00     0.015 A 
HETATM   13  C   UNL     1      43.138 -18.024   0.975  1.00  0.00     0.070 A 
ENDROOT
BRANCH   1  14
HETATM   14  N   UNL     1      42.527 -15.644   0.661  1.00  0.00    -0.320 N 
HETATM   15  C   UNL     1      41.231 -15.193   0.527  1.00  0.00     0.256 C 
HETATM   16  O   UNL     1      40.234 -15.673   1.052  1.00  0.00    -0.267 OA
HETATM   17  H   UNL     1      43.274 -15.104   0.237  1.00  0.00     0.169 HD
BRANCH  15  18
HETATM   18  C   UNL     1      41.077 -13.950  -0.281  1.00  0.00     0.033 A 
HETATM   19  C   UNL     1      41.718 -12.791   0.179  1.00  0.00     0.026 A 
HETATM   20  C   UNL     1      41.643 -11.595  -0.546  1.00  0.00    -0.034 A 
HETATM   21  C   UNL     1      40.906 -11.573  -1.738  1.00  0.00     0.009 A 
HETATM   22  C   UNL     1      40.250 -12.720  -2.191  1.00  0.00     0.002 A 
HETATM   23  C   UNL     1      40.332 -13.909  -1.464  1.00  0.00     0.017 A 
BRANCH  20  24
HETATM   24  C   UNL     1      42.353 -10.359  -0.055  1.00  0.00     0.205 C 
BRANCH  24  25
HETATM   25  O   UNL     1      43.709 -10.399  -0.490  1.00  0.00    -0.391 OA
HETATM   26  C   UNL     1      44.015  -9.300  -1.337  1.00  0.00     0.201 C 
ENDBRANCH  24  25
ENDBRANCH  20  24
ENDBRANCH  15  18
ENDBRANCH   1  14
BRANCH   2  27
HETATM   27  O   UNL     1      43.121 -15.127   3.227  1.00  0.00    -0.354 OA
HETATM   28  C   UNL     1      42.145 -15.040   4.268  1.00  0.00     0.210 C 
ENDBRANCH   2  27
TORSDOF 5
ENDMDL
MODEL 4
REMARK VINA RESULT:      -8.1      2.070      3.681
REMARK  5 active torsions:
REMARK  status: ('A' for Active; 'I' for Inactive)
REMARK    1  A    between atoms: O_2  and  C_3 
REMARK    2  A    between atoms: C_3  and  C_4 
REMARK    3  A    between atoms: C_6  and  C_7 
REMARK       I    between atoms: C_7  and  N_8 
REMARK    4  A    between atoms: N_8  and  C_9 
REMARK    5  A    between atoms: C_10  and  O_11 
ROOT
HETATM    1  C   UNL     1      42.855 -16.103   4.724  1.00  0.00     0.071 A 
HETATM    2  C   UNL     1      43.450 -16.782   5.806  1.00  0.00     0.096 A 
HETATM    3  C   UNL     1      43.961 -18.083   5.681  1.00  0.00     0.054 A 
HETATM    4  C   UNL     1      43.821 -18.734   4.442  1.00  0.00     0.014 A 
HETATM    5  C   UNL     1      43.220 -18.042   3.395  1.00  0.00     0.089 A 
HETATM    6  O   UNL     1      43.166 -18.820   2.279  1.00  0.00    -0.309 OA
HETATM    7  C   UNL     1      43.722 -20.019   2.600  1.00  0.00     0.087 A 
HETATM    8  C   UNL     1      44.150 -20.021   3.924  1.00  0.00     0.011 A 
HETATM    9  C   UNL     1      43.847 -21.104   1.735  1.00  0.00     0.038 A 
HETATM   10  C   UNL     1      44.443 -22.255   2.258  1.00  0.00     0.003 A 
HETATM   11  C   UNL     1      44.889 -22.298   3.582  1.00  0.00     0.001 A 
HETATM   12  C   UNL     1      44.752 -21.189   4.429  1.00  0.00     0.015 A 
HETATM   13  C   UNL     1      42.736 -16.736   3.485  1.00  0.00     0.070 A 
ENDROOT
BRANCH   1  14
HETATM   14  N   UNL     1      42.375 -14.798   4.985  1.00  0.00    -0.320 N 
HETATM   15  C   UNL     1      42.851 -13.609   4.473  1.00  0.00     0.256 C 
HETATM   16  O   UNL     1      43.805 -13.470   3.719  1.00  0.00    -0.267 OA
HETATM   17  H   UNL     1      41.523 -14.783   5.534  1.00  0.00     0.169 HD
BRANCH  15  18
HETATM   18  C   UNL     1      42.050 -12.405   4.833  1.00  0.00     0.033 A 
HETATM   19  C   UNL     1      41.970 -12.057   6.189  1.00  0.00     0.026 A 
HETATM   20  C   UNL     1      41.260 -10.920   6.596  1.00  0.00    -0.034 A 
HETATM   21  C   UNL     1      40.620 -10.139   5.624  1.00  0.00     0.009 A 
HETATM   22  C   UNL     1      40.681 -10.492   4.274  1.00  0.00     0.002 A 
HETATM   23  C   UNL     1      41.393 -11.625   3.875  1.00  0.00     0.017 A 
BRANCH  20  24
HETATM   24  C   UNL     1      41.197 -10.542   8.054  1.00  0.00     0.205 C 
BRANCH  24  25
HETATM   25  O   UNL     1      42.429  -9.934   8.430  1.00  0.00    -0.391 OA
HETATM   26  C   UNL     1      43.023 -10.603   9.533  1.00  0.00     0.201 C 
ENDBRANCH  24  25
ENDBRANCH  20  24
ENDBRANCH  15  18
ENDBRANCH   1  14
BRANCH   2  27
HETATM   27  O   UNL     1      43.559 -16.111   7.005  1.00  0.00    -0.354 OA
HETATM   28  C   UNL     1      43.367 -17.003   8.105  1.00  0.00     0.210 C 
ENDBRANCH   2  27
TORSDOF 5
ENDMDL
MODEL 5
REMARK VINA RESULT:      -8.1      4.703      8.447
REMARK  5 active torsions:
REMARK  status: ('A' for Active; 'I' for Inactive)
REMARK    1  A    between atoms: O_2  and  C_3 
REMARK    2  A    between atoms: C_3  and  C_4 
REMARK    3  A    between atoms: C_6  and  C_7 
REMARK       I    between atoms: C_7  and  N_8 
REMARK    4  A    between atoms: N_8  and  C_9 
REMARK    5  A    between atoms: C_10  and  O_11 
ROOT
HETATM    1  C   UNL     1      41.530 -16.734   1.328  1.00  0.00     0.071 A 
HETATM    2  C   UNL     1      40.731 -15.814   2.035  1.00  0.00     0.096 A 
HETATM    3  C   UNL     1      40.028 -14.784   1.391  1.00  0.00     0.054 A 
HETATM    4  C   UNL     1      40.177 -14.652  -0.002  1.00  0.00     0.014 A 
HETATM    5  C   UNL     1      40.981 -15.568  -0.672  1.00  0.00     0.089 A 
HETATM    6  O   UNL     1      41.013 -15.289  -2.004  1.00  0.00    -0.309 OA
HETATM    7  C   UNL     1      40.240 -14.188  -2.201  1.00  0.00     0.087 A 
HETATM    8  C   UNL     1      39.693 -13.753  -0.998  1.00  0.00     0.011 A 
HETATM    9  C   UNL     1      40.021 -13.568  -3.429  1.00  0.00     0.038 A 
HETATM   10  C   UNL     1      39.198 -12.439  -3.422  1.00  0.00     0.003 A 
HETATM   11  C   UNL     1      38.626 -11.970  -2.236  1.00  0.00     0.001 A 
HETATM   12  C   UNL     1      38.862 -12.617  -1.014  1.00  0.00     0.015 A 
HETATM   13  C   UNL     1      41.661 -16.621  -0.058  1.00  0.00     0.070 A 
ENDROOT
BRANCH   1  14
HETATM   14  N   UNL     1      42.190 -17.719   2.099  1.00  0.00    -0.320 N 
HETATM   15  C   UNL     1      43.545 -17.969   2.161  1.00  0.00     0.256 C 
HETATM   16  O   UNL     1      44.422 -17.396   1.527  1.00  0.00    -0.267 OA
HETATM   17  H   UNL     1      41.577 -18.210   2.739  1.00  0.00     0.169 HD
BRANCH  15  18
HETATM   18  C   UNL     1      43.950 -18.990   3.169  1.00  0.00     0.033 A 
HETATM   19  C   UNL     1      43.776 -18.672   4.524  1.00  0.00     0.026 A 
HETATM   20  C   UNL     1      44.106 -19.595   5.525  1.00  0.00    -0.034 A 
HETATM   21  C   UNL     1      44.624 -20.842   5.148  1.00  0.00     0.009 A 
HETATM   22  C   UNL     1      44.817 -21.156   3.801  1.00  0.00     0.002 A 
HETATM   23  C   UNL     1      44.483 -20.232   2.809  1.00  0.00     0.017 A 
BRANCH  20  24
HETATM   24  C   UNL     1      43.896 -19.254   6.977  1.00  0.00     0.205 C 
BRANCH  24  25
HETATM   25  O   UNL     1      44.201 -17.877   7.180  1.00  0.00    -0.391 OA
HETATM   26  C   UNL     1      43.318 -17.282   8.119  1.00  0.00     0.201 C 
ENDBRANCH  24  25
ENDBRANCH  20  24
ENDBRANCH  15  18
ENDBRANCH   1  14
BRANCH   2  27
HETATM   27  O   UNL     1      40.620 -15.974   3.400  1.00  0.00    -0.354 OA
HETATM   28  C   UNL     1      40.314 -14.730   4.035  1.00  0.00     0.210 C 
ENDBRANCH   2  27
TORSDOF 5
ENDMDL
MODEL 6
REMARK VINA RESULT:      -8.1      4.203      8.961
REMARK  5 active torsions:
REMARK  status: ('A' for Active; 'I' for Inactive)
REMARK    1  A    between atoms: O_2  and  C_3 
REMARK    2  A    between atoms: C_3  and  C_4 
REMARK    3  A    between atoms: C_6  and  C_7 
REMARK       I    between atoms: C_7  and  N_8 
REMARK    4  A    between atoms: N_8  and  C_9 
REMARK    5  A    between atoms: C_10  and  O_11 
ROOT
HETATM    1  C   UNL     1      40.778 -16.092   2.717  1.00  0.00     0.071 A 
HETATM    2  C   UNL     1      41.145 -14.998   3.527  1.00  0.00     0.096 A 
HETATM    3  C   UNL     1      40.470 -13.769   3.473  1.00  0.00     0.054 A 
HETATM    4  C   UNL     1      39.427 -13.626   2.540  1.00  0.00     0.014 A 
HETATM    5  C   UNL     1      39.095 -14.719   1.746  1.00  0.00     0.089 A 
HETATM    6  O   UNL     1      38.073 -14.403   0.904  1.00  0.00    -0.309 OA
HETATM    7  C   UNL     1      37.746 -13.104   1.142  1.00  0.00     0.087 A 
HETATM    8  C   UNL     1      38.548 -12.575   2.148  1.00  0.00     0.011 A 
HETATM    9  C   UNL     1      36.754 -12.391   0.475  1.00  0.00     0.038 A 
HETATM   10  C   UNL     1      36.575 -11.059   0.860  1.00  0.00     0.003 A 
HETATM   11  C   UNL     1      37.357 -10.488   1.867  1.00  0.00     0.001 A 
HETATM   12  C   UNL     1      38.348 -11.233   2.523  1.00  0.00     0.015 A 
HETATM   13  C   UNL     1      39.728 -15.962   1.806  1.00  0.00     0.070 A 
ENDROOT
BRANCH   1  14
HETATM   14  N   UNL     1      41.545 -17.272   2.864  1.00  0.00    -0.320 N 
HETATM   15  C   UNL     1      42.495 -17.770   1.998  1.00  0.00     0.256 C 
HETATM   16  O   UNL     1      42.822 -17.291   0.920  1.00  0.00    -0.267 OA
HETATM   17  H   UNL     1      41.428 -17.720   3.766  1.00  0.00     0.169 HD
BRANCH  15  18
HETATM   18  C   UNL     1      43.230 -18.968   2.494  1.00  0.00     0.033 A 
HETATM   19  C   UNL     1      43.594 -18.995   3.848  1.00  0.00     0.026 A 
HETATM   20  C   UNL     1      44.259 -20.102   4.389  1.00  0.00    -0.034 A 
HETATM   21  C   UNL     1      44.566 -21.182   3.550  1.00  0.00     0.009 A 
HETATM   22  C   UNL     1      44.223 -21.152   2.196  1.00  0.00     0.002 A 
HETATM   23  C   UNL     1      43.557 -20.047   1.665  1.00  0.00     0.017 A 
BRANCH  20  24
HETATM   24  C   UNL     1      44.627 -20.132   5.850  1.00  0.00     0.205 C 
BRANCH  24  25
HETATM   25  O   UNL     1      44.586 -18.805   6.367  1.00  0.00    -0.391 OA
HETATM   26  C   UNL     1      43.864 -18.745   7.589  1.00  0.00     0.201 C 
ENDBRANCH  24  25
ENDBRANCH  20  24
ENDBRANCH  15  18
ENDBRANCH   1  14
BRANCH   2  27
HETATM   27  O   UNL     1      42.179 -15.179   4.421  1.00  0.00    -0.354 OA
HETATM   28  C   UNL     1      41.721 -15.017   5.766  1.00  0.00     0.210 C 
ENDBRANCH   2  27
TORSDOF 5
ENDMDL
MODEL 7
REMARK VINA RESULT:      -8.0      2.295      3.584
REMARK  5 active torsions:
REMARK  status: ('A' for Active; 'I' for Inactive)
REMARK    1  A    between atoms: O_2  and  C_3 
REMARK    2  A    between atoms: C_3  and  C_4 
REMARK    3  A    between atoms: C_6  and  C_7 
REMARK       I    between atoms: C_7  and  N_8 
REMARK    4  A    between atoms: N_8  and  C_9 
REMARK    5  A    between atoms: C_10  and  O_11 
ROOT
HETATM    1  C   UNL     1      42.438 -15.463   3.800  1.00  0.00     0.071 A 
HETATM    2  C   UNL     1      41.853 -15.932   2.607  1.00  0.00     0.096 A 
HETATM    3  C   UNL     1      42.051 -17.240   2.141  1.00  0.00     0.054 A 
HETATM    4  C   UNL     1      42.906 -18.083   2.876  1.00  0.00     0.014 A 
HETATM    5  C   UNL     1      43.478 -17.589   4.043  1.00  0.00     0.089 A 
HETATM    6  O   UNL     1      44.272 -18.532   4.620  1.00  0.00    -0.309 OA
HETATM    7  C   UNL     1      44.226 -19.635   3.825  1.00  0.00     0.087 A 
HETATM    8  C   UNL     1      43.391 -19.416   2.734  1.00  0.00     0.011 A 
HETATM    9  C   UNL     1      44.916 -20.822   4.056  1.00  0.00     0.038 A 
HETATM   10  C   UNL     1      44.742 -21.841   3.115  1.00  0.00     0.003 A 
HETATM   11  C   UNL     1      43.910 -21.663   2.006  1.00  0.00     0.001 A 
HETATM   12  C   UNL     1      43.226 -20.457   1.800  1.00  0.00     0.015 A 
HETATM   13  C   UNL     1      43.268 -16.304   4.546  1.00  0.00     0.070 A 
ENDROOT
BRANCH   1  14
HETATM   14  N   UNL     1      42.163 -14.121   4.153  1.00  0.00    -0.320 N 
HETATM   15  C   UNL     1      41.201 -13.663   5.028  1.00  0.00     0.256 C 
HETATM   16  O   UNL     1      40.383 -14.344   5.634  1.00  0.00    -0.267 OA
HETATM   17  H   UNL     1      42.834 -13.459   3.780  1.00  0.00     0.169 HD
BRANCH  15  18
HETATM   18  C   UNL     1      41.242 -12.197   5.296  1.00  0.00     0.033 A 
HETATM   19  C   UNL     1      41.503 -11.783   6.610  1.00  0.00     0.026 A 
HETATM   20  C   UNL     1      41.587 -10.422   6.929  1.00  0.00    -0.034 A 
HETATM   21  C   UNL     1      41.396  -9.477   5.911  1.00  0.00     0.009 A 
HETATM   22  C   UNL     1      41.117  -9.884   4.605  1.00  0.00     0.002 A 
HETATM   23  C   UNL     1      41.038 -11.243   4.294  1.00  0.00     0.017 A 
BRANCH  20  24
HETATM   24  C   UNL     1      41.889  -9.986   8.340  1.00  0.00     0.205 C 
BRANCH  24  25
HETATM   25  O   UNL     1      43.158 -10.504   8.725  1.00  0.00    -0.391 OA
HETATM   26  C   UNL     1      43.166 -10.898  10.090  1.00  0.00     0.201 C 
ENDBRANCH  24  25
ENDBRANCH  20  24
ENDBRANCH  15  18
ENDBRANCH   1  14
BRANCH   2  27
HETATM   27  O   UNL     1      41.030 -15.070   1.912  1.00  0.00    -0.354 OA
HETATM   28  C   UNL     1      39.673 -15.516   1.958  1.00  0.00     0.210 C 
ENDBRANCH   2  27
TORSDOF 5
ENDMDL
MODEL 8
REMARK VINA RESULT:      -7.8      5.467      8.422
REMARK  5 active torsions:
REMARK  status: ('A' for Active; 'I' for Inactive)
REMARK    1  A    between atoms: O_2  and  C_3 
REMARK    2  A    between atoms: C_3  and  C_4 
REMARK    3  A    between atoms: C_6  and  C_7 
REMARK       I    between atoms: C_7  and  N_8 
REMARK    4  A    between atoms: N_8  and  C_9 
REMARK    5  A    between atoms: C_10  and  O_11 
ROOT
HETATM    1  C   UNL     1      40.887 -16.256   1.293  1.00  0.00     0.071 A 
HETATM    2  C   UNL     1      40.690 -16.032   2.670  1.00  0.00     0.096 A 
HETATM    3  C   UNL     1      41.412 -16.729   3.652  1.00  0.00     0.054 A 
HETATM    4  C   UNL     1      42.323 -17.714   3.229  1.00  0.00     0.014 A 
HETATM    5  C   UNL     1      42.489 -17.921   1.864  1.00  0.00     0.089 A 
HETATM    6  O   UNL     1      43.400 -18.906   1.639  1.00  0.00    -0.309 OA
HETATM    7  C   UNL     1      43.820 -19.348   2.855  1.00  0.00     0.087 A 
HETATM    8  C   UNL     1      43.191 -18.642   3.875  1.00  0.00     0.011 A 
HETATM    9  C   UNL     1      44.747 -20.367   3.064  1.00  0.00     0.038 A 
HETATM   10  C   UNL     1      45.043 -20.680   4.393  1.00  0.00     0.003 A 
HETATM   11  C   UNL     1      44.435 -19.994   5.449  1.00  0.00     0.001 A 
HETATM   12  C   UNL     1      43.507 -18.971   5.207  1.00  0.00     0.015 A 
HETATM   13  C   UNL     1      41.809 -17.217   0.869  1.00  0.00     0.070 A 
ENDROOT
BRANCH   1  14
HETATM   14  N   UNL     1      40.090 -15.493   0.409  1.00  0.00    -0.320 N 
HETATM   15  C   UNL     1      40.505 -14.489  -0.442  1.00  0.00     0.256 C 
HETATM   16  O   UNL     1      41.644 -14.055  -0.558  1.00  0.00    -0.267 OA
HETATM   17  H   UNL     1      39.132 -15.815   0.347  1.00  0.00     0.169 HD
BRANCH  15  18
HETATM   18  C   UNL     1      39.448 -13.959  -1.350  1.00  0.00     0.033 A 
HETATM   19  C   UNL     1      38.737 -12.826  -0.931  1.00  0.00     0.026 A 
HETATM   20  C   UNL     1      37.752 -12.255  -1.747  1.00  0.00    -0.034 A 
HETATM   21  C   UNL     1      37.480 -12.845  -2.990  1.00  0.00     0.009 A 
HETATM   22  C   UNL     1      38.172 -13.985  -3.404  1.00  0.00     0.002 A 
HETATM   23  C   UNL     1      39.155 -14.546  -2.586  1.00  0.00     0.017 A 
BRANCH  20  24
HETATM   24  C   UNL     1      37.007 -11.025  -1.297  1.00  0.00     0.205 C 
BRANCH  24  25
HETATM   25  O   UNL     1      36.823 -11.082   0.114  1.00  0.00    -0.391 OA
HETATM   26  C   UNL     1      35.457 -11.275   0.453  1.00  0.00     0.201 C 
ENDBRANCH  24  25
ENDBRANCH  20  24
ENDBRANCH  15  18
ENDBRANCH   1  14
BRANCH   2  27
HETATM   27  O   UNL     1      39.781 -15.064   3.040  1.00  0.00    -0.354 OA
HETATM   28  C   UNL     1      40.130 -14.495   4.304  1.00  0.00     0.210 C 
ENDBRANCH   2  27
TORSDOF 5
ENDMDL
MODEL 9
REMARK VINA RESULT:      -7.6      3.862      4.718
REMARK  5 active torsions:
REMARK  status: ('A' for Active; 'I' for Inactive)
REMARK    1  A    between atoms: O_2  and  C_3 
REMARK    2  A    between atoms: C_3  and  C_4 
REMARK    3  A    between atoms: C_6  and  C_7 
REMARK       I    between atoms: C_7  and  N_8 
REMARK    4  A    between atoms: N_8  and  C_9 
REMARK    5  A    between atoms: C_10  and  O_11 
ROOT
HETATM    1  C   UNL     1      41.854 -15.835   3.209  1.00  0.00     0.071 A 
HETATM    2  C   UNL     1      41.476 -16.458   2.003  1.00  0.00     0.096 A 
HETATM    3  C   UNL     1      41.876 -17.763   1.679  1.00  0.00     0.054 A 
HETATM    4  C   UNL     1      42.723 -18.439   2.577  1.00  0.00     0.014 A 
HETATM    5  C   UNL     1      43.088 -17.795   3.754  1.00  0.00     0.089 A 
HETATM    6  O   UNL     1      43.906 -18.589   4.497  1.00  0.00    -0.309 OA
HETATM    7  C   UNL     1      44.082 -19.744   3.802  1.00  0.00     0.087 A 
HETATM    8  C   UNL     1      43.369 -19.709   2.608  1.00  0.00     0.011 A 
HETATM    9  C   UNL     1      44.868 -20.818   4.213  1.00  0.00     0.038 A 
HETATM   10  C   UNL     1      44.927 -21.916   3.351  1.00  0.00     0.003 A 
HETATM   11  C   UNL     1      44.224 -21.924   2.143  1.00  0.00     0.001 A 
HETATM   12  C   UNL     1      43.438 -20.828   1.757  1.00  0.00     0.015 A 
HETATM   13  C   UNL     1      42.674 -16.511   4.115  1.00  0.00     0.070 A 
ENDROOT
BRANCH   1  14
HETATM   14  N   UNL     1      41.388 -14.514   3.410  1.00  0.00    -0.320 N 
HETATM   15  C   UNL     1      42.058 -13.338   3.148  1.00  0.00     0.256 C 
HETATM   16  O   UNL     1      43.200 -13.229   2.721  1.00  0.00    -0.267 OA
HETATM   17  H   UNL     1      40.413 -14.467   3.683  1.00  0.00     0.169 HD
BRANCH  15  18
HETATM   18  C   UNL     1      41.252 -12.099   3.341  1.00  0.00     0.033 A 
HETATM   19  C   UNL     1      40.845 -11.783   4.645  1.00  0.00     0.026 A 
HETATM   20  C   UNL     1      40.112 -10.619   4.906  1.00  0.00    -0.034 A 
HETATM   21  C   UNL     1      39.781  -9.776   3.835  1.00  0.00     0.009 A 
HETATM   22  C   UNL     1      40.167 -10.096   2.531  1.00  0.00     0.002 A 
HETATM   23  C   UNL     1      40.900 -11.257   2.281  1.00  0.00     0.017 A 
BRANCH  20  24
HETATM   24  C   UNL     1      39.698 -10.276   6.313  1.00  0.00     0.205 C 
BRANCH  24  25
HETATM   25  O   UNL     1      38.550  -9.434   6.268  1.00  0.00    -0.391 OA
HETATM   26  C   UNL     1      38.690  -8.318   7.136  1.00  0.00     0.201 C 
ENDBRANCH  24  25
ENDBRANCH  20  24
ENDBRANCH  15  18
ENDBRANCH   1  14
BRANCH   2  27
HETATM   27  O   UNL     1      40.653 -15.757   1.147  1.00  0.00    -0.354 OA
HETATM   28  C   UNL     1      41.327 -15.465  -0.079  1.00  0.00     0.210 C 
ENDBRANCH   2  27
TORSDOF 5
ENDMDL
MODEL 10
REMARK VINA RESULT:      -7.6      4.854      7.908
REMARK  5 active torsions:
REMARK  status: ('A' for Active; 'I' for Inactive)
REMARK    1  A    between atoms: O_2  and  C_3 
REMARK    2  A    between atoms: C_3  and  C_4 
REMARK    3  A    between atoms: C_6  and  C_7 
REMARK       I    between atoms: C_7  and  N_8 
REMARK    4  A    between atoms: N_8  and  C_9 
REMARK    5  A    between atoms: C_10  and  O_11 
ROOT
HETATM    1  C   UNL     1      42.882 -16.454   1.371  1.00  0.00     0.071 A 
HETATM    2  C   UNL     1      43.013 -16.142   2.739  1.00  0.00     0.096 A 
HETATM    3  C   UNL     1      43.438 -17.088   3.684  1.00  0.00     0.054 A 
HETATM    4  C   UNL     1      43.690 -18.399   3.241  1.00  0.00     0.014 A 
HETATM    5  C   UNL     1      43.542 -18.681   1.888  1.00  0.00     0.089 A 
HETATM    6  O   UNL     1      43.821 -19.990   1.640  1.00  0.00    -0.309 OA
HETATM    7  C   UNL     1      44.142 -20.563   2.831  1.00  0.00     0.087 A 
HETATM    8  C   UNL     1      44.083 -19.624   3.856  1.00  0.00     0.011 A 
HETATM    9  C   UNL     1      44.480 -21.902   3.014  1.00  0.00     0.038 A 
HETATM   10  C   UNL     1      44.771 -22.300   4.322  1.00  0.00     0.003 A 
HETATM   11  C   UNL     1      44.725 -21.389   5.381  1.00  0.00     0.001 A 
HETATM   12  C   UNL     1      44.385 -20.046   5.165  1.00  0.00     0.015 A 
HETATM   13  C   UNL     1      43.154 -17.749   0.923  1.00  0.00     0.070 A 
ENDROOT
BRANCH   1  14
HETATM   14  N   UNL     1      42.438 -15.411   0.525  1.00  0.00    -0.320 N 
HETATM   15  C   UNL     1      41.144 -14.969   0.343  1.00  0.00     0.256 C 
HETATM   16  O   UNL     1      40.136 -15.431   0.863  1.00  0.00    -0.267 OA
HETATM   17  H   UNL     1      43.193 -14.887   0.098  1.00  0.00     0.169 HD
BRANCH  15  18
HETATM   18  C   UNL     1      41.008 -13.760  -0.517  1.00  0.00     0.033 A 
HETATM   19  C   UNL     1      39.745 -13.158  -0.599  1.00  0.00     0.026 A 
HETATM   20  C   UNL     1      39.551 -12.000  -1.364  1.00  0.00    -0.034 A 
HETATM   21  C   UNL     1      40.642 -11.458  -2.057  1.00  0.00     0.009 A 
HETATM   22  C   UNL     1      41.899 -12.065  -1.994  1.00  0.00     0.002 A 
HETATM   23  C   UNL     1      42.085 -13.217  -1.227  1.00  0.00     0.017 A 
BRANCH  20  24
HETATM   24  C   UNL     1      38.194 -11.347  -1.430  1.00  0.00     0.205 C 
BRANCH  24  25
HETATM   25  O   UNL     1      37.254 -12.280  -1.956  1.00  0.00    -0.391 OA
HETATM   26  C   UNL     1      37.103 -12.129  -3.360  1.00  0.00     0.201 C 
ENDBRANCH  24  25
ENDBRANCH  20  24
ENDBRANCH  15  18
ENDBRANCH   1  14
BRANCH   2  27
HETATM   27  O   UNL     1      42.747 -14.847   3.131  1.00  0.00    -0.354 OA
HETATM   28  C   UNL     1      43.929 -14.213   3.624  1.00  0.00     0.210 C 
ENDBRANCH   2  27
TORSDOF 5
ENDMDL
