MODEL 1
REMARK VINA RESULT:      -8.9      0.000      0.000
REMARK  6 active torsions:
REMARK  status: ('A' for Active; 'I' for Inactive)
REMARK    1  A    between atoms: O_2  and  C_3 
REMARK    2  A    between atoms: C_6  and  C_7 
REMARK    3  A    between atoms: C_11  and  C_12 
REMARK       I    between atoms: C_12  and  N_13 
REMARK    4  A    between atoms: N_13  and  N_14 
REMARK       I    between atoms: N_14  and  C_15 
REMARK    5  A    between atoms: C_15  and  C_16 
REMARK    6  A    between atoms: C_17  and  C_18 
ROOT
HETATM    1  C   UNL     1      43.672 -14.047   6.997  1.00  0.00     0.288 C 
HETATM    2  N   UNL     1      44.366 -13.778   8.156  1.00  0.00    -0.262 N 
HETATM    3  O   UNL     1      43.146 -13.161   6.327  1.00  0.00    -0.264 OA
HETATM    4  H   UNL     1      44.856 -14.482   8.701  1.00  0.00     0.190 HD
ENDROOT
BRANCH   1   5
HETATM    5  C   UNL     1      43.604 -15.437   6.635  1.00  0.00     0.121 A 
HETATM    6  N   UNL     1      42.991 -16.363   7.430  1.00  0.00    -0.272 N 
HETATM    7  N   UNL     1      43.023 -17.613   6.945  1.00  0.00    -0.174 NA
HETATM    8  H   UNL     1      42.533 -16.194   8.321  1.00  0.00     0.189 HD
HETATM    9  C   UNL     1      43.708 -17.516   5.794  1.00  0.00     0.089 A 
HETATM   10  C   UNL     1      44.076 -16.160   5.558  1.00  0.00     0.071 A 
BRANCH   9  11
HETATM   11  C   UNL     1      43.991 -18.688   4.958  1.00  0.00    -0.005 A 
HETATM   12  C   UNL     1      44.606 -19.823   5.505  1.00  0.00     0.016 A 
HETATM   13  C   UNL     1      44.872 -20.953   4.719  1.00  0.00     0.037 A 
HETATM   14  C   UNL     1      44.527 -20.964   3.369  1.00  0.00     0.068 A 
HETATM   15  C   UNL     1      43.927 -19.832   2.813  1.00  0.00     0.037 A 
HETATM   16  C   UNL     1      43.658 -18.705   3.597  1.00  0.00     0.016 A 
BRANCH  14  17
HETATM   17  O   UNL     1      44.725 -21.994   2.493  1.00  0.00    -0.356 OA
HETATM   18  C   UNL     1      43.938 -21.991   1.309  1.00  0.00     0.210 C 
ENDBRANCH  14  17
ENDBRANCH   9  11
ENDBRANCH   1   5
BRANCH   2  19
HETATM   19  N   UNL     1      44.453 -12.463   8.621  1.00  0.00    -0.267 N 
HETATM   20  C   UNL     1      44.501 -12.264   9.982  1.00  0.00     0.240 C 
HETATM   21  O   UNL     1      44.444 -13.189  10.789  1.00  0.00    -0.271 OA
HETATM   22  H   UNL     1      44.650 -11.740   7.934  1.00  0.00     0.190 HD
BRANCH  20  23
HETATM   23  C   UNL     1      44.610 -10.868  10.476  1.00  0.00     0.089 A 
HETATM   24  C   UNL     1      43.434  -9.908  10.481  1.00  0.00     0.036 A 
HETATM   25  C   UNL     1      44.050 -10.375  11.781  1.00  0.00     0.025 A 
BRANCH  24  26
HETATM   26  C   UNL     1      42.035 -10.338  10.102  1.00  0.00    -0.015 A 
HETATM   27  C   UNL     1      41.591 -10.338   8.769  1.00  0.00     0.123 A 
HETATM   28  F   UNL     1      42.421  -9.926   7.797  1.00  0.00    -0.206 F 
HETATM   29  C   UNL     1      40.311 -10.753   8.410  1.00  0.00     0.043 A 
HETATM   30  C   UNL     1      39.430 -11.194   9.392  1.00  0.00     0.003 A 
HETATM   31  C   UNL     1      39.840 -11.223  10.722  1.00  0.00     0.001 A 
HETATM   32  C   UNL     1      41.129 -10.804  11.070  1.00  0.00     0.011 A 
ENDBRANCH  24  26
ENDBRANCH  20  23
ENDBRANCH   2  19
TORSDOF 6
ENDMDL
MODEL 2
REMARK VINA RESULT:      -8.5      2.499      3.508
REMARK  6 active torsions:
REMARK  status: ('A' for Active; 'I' for Inactive)
REMARK    1  A    between atoms: O_2  and  C_3 
REMARK    2  A    between atoms: C_6  and  C_7 
REMARK    3  A    between atoms: C_11  and  C_12 
REMARK       I    between atoms: C_12  and  N_13 
REMARK    4  A    between atoms: N_13  and  N_14 
REMARK       I    between atoms: N_14  and  C_15 
REMARK    5  A    between atoms: C_15  and  C_16 
REMARK    6  A    between atoms: C_17  and  C_18 
ROOT
HETATM    1  C   UNL     1      40.287 -13.484   5.649  1.00  0.00     0.288 C 
HETATM    2  N   UNL     1      40.828 -12.883   6.764  1.00  0.00    -0.262 N 
HETATM    3  O   UNL     1      39.491 -12.904   4.914  1.00  0.00    -0.264 OA
HETATM    4  H   UNL     1      41.529 -13.317   7.360  1.00  0.00     0.190 HD
ENDROOT
BRANCH   1   5
HETATM    5  C   UNL     1      40.716 -14.837   5.416  1.00  0.00     0.121 A 
HETATM    6  N   UNL     1      40.149 -15.898   6.062  1.00  0.00    -0.272 N 
HETATM    7  N   UNL     1      40.671 -17.088   5.730  1.00  0.00    -0.174 NA
HETATM    8  H   UNL     1      39.396 -15.865   6.744  1.00  0.00     0.189 HD
HETATM    9  C   UNL     1      41.642 -16.801   4.849  1.00  0.00     0.089 A 
HETATM   10  C   UNL     1      41.690 -15.397   4.614  1.00  0.00     0.071 A 
BRANCH   9  11
HETATM   11  C   UNL     1      42.486 -17.845   4.257  1.00  0.00    -0.005 A 
HETATM   12  C   UNL     1      43.372 -18.585   5.055  1.00  0.00     0.016 A 
HETATM   13  C   UNL     1      44.175 -19.592   4.503  1.00  0.00     0.037 A 
HETATM   14  C   UNL     1      44.107 -19.874   3.140  1.00  0.00     0.068 A 
HETATM   15  C   UNL     1      43.239 -19.134   2.336  1.00  0.00     0.037 A 
HETATM   16  C   UNL     1      42.434 -18.130   2.886  1.00  0.00     0.016 A 
BRANCH  14  17
HETATM   17  O   UNL     1      44.828 -20.827   2.476  1.00  0.00    -0.356 OA
HETATM   18  C   UNL     1      44.089 -21.812   1.765  1.00  0.00     0.210 C 
ENDBRANCH  14  17
ENDBRANCH   9  11
ENDBRANCH   1   5
BRANCH   2  19
HETATM   19  N   UNL     1      40.443 -11.584   7.107  1.00  0.00    -0.267 N 
HETATM   20  C   UNL     1      39.516 -11.433   8.113  1.00  0.00     0.240 C 
HETATM   21  O   UNL     1      39.007 -12.389   8.694  1.00  0.00    -0.271 OA
HETATM   22  H   UNL     1      40.989 -10.821   6.718  1.00  0.00     0.190 HD
BRANCH  20  23
HETATM   23  C   UNL     1      39.118 -10.052   8.488  1.00  0.00     0.089 A 
HETATM   24  C   UNL     1      39.740  -9.312   9.659  1.00  0.00     0.036 A 
HETATM   25  C   UNL     1      39.950  -8.826   8.242  1.00  0.00     0.025 A 
BRANCH  24  26
HETATM   26  C   UNL     1      40.898  -9.875  10.452  1.00  0.00    -0.015 A 
HETATM   27  C   UNL     1      40.703 -10.615  11.630  1.00  0.00     0.123 A 
HETATM   28  F   UNL     1      39.456 -10.816  12.085  1.00  0.00    -0.206 F 
HETATM   29  C   UNL     1      41.763 -11.155  12.354  1.00  0.00     0.043 A 
HETATM   30  C   UNL     1      43.067 -10.973  11.905  1.00  0.00     0.003 A 
HETATM   31  C   UNL     1      43.297 -10.258  10.732  1.00  0.00     0.001 A 
HETATM   32  C   UNL     1      42.224  -9.721  10.013  1.00  0.00     0.011 A 
ENDBRANCH  24  26
ENDBRANCH  20  23
ENDBRANCH   2  19
TORSDOF 6
ENDMDL
MODEL 3
REMARK VINA RESULT:      -8.2      2.999      4.205
REMARK  6 active torsions:
REMARK  status: ('A' for Active; 'I' for Inactive)
REMARK    1  A    between atoms: O_2  and  C_3 
REMARK    2  A    between atoms: C_6  and  C_7 
REMARK    3  A    between atoms: C_11  and  C_12 
REMARK       I    between atoms: C_12  and  N_13 
REMARK    4  A    between atoms: N_13  and  N_14 
REMARK       I    between atoms: N_14  and  C_15 
REMARK    5  A    between atoms: C_15  and  C_16 
REMARK    6  A    between atoms: C_17  and  C_18 
ROOT
HETATM    1  C   UNL     1      39.405 -12.905   6.070  1.00  0.00     0.288 C 
HETATM    2  N   UNL     1      39.755 -12.896   7.402  1.00  0.00    -0.262 N 
HETATM    3  O   UNL     1      38.509 -12.192   5.622  1.00  0.00    -0.264 OA
HETATM    4  H   UNL     1      40.526 -13.433   7.791  1.00  0.00     0.190 HD
ENDROOT
BRANCH   1   5
HETATM    5  C   UNL     1      40.159 -13.812   5.247  1.00  0.00     0.121 A 
HETATM    6  N   UNL     1      40.284 -13.634   3.898  1.00  0.00    -0.272 N 
HETATM    7  N   UNL     1      41.016 -14.574   3.284  1.00  0.00    -0.174 NA
HETATM    8  H   UNL     1      39.885 -12.882   3.343  1.00  0.00     0.189 HD
HETATM    9  C   UNL     1      41.369 -15.425   4.261  1.00  0.00     0.089 A 
HETATM   10  C   UNL     1      40.862 -14.970   5.511  1.00  0.00     0.071 A 
BRANCH   9  11
HETATM   11  C   UNL     1      42.167 -16.627   3.992  1.00  0.00    -0.005 A 
HETATM   12  C   UNL     1      41.932 -17.398   2.844  1.00  0.00     0.016 A 
HETATM   13  C   UNL     1      42.695 -18.542   2.572  1.00  0.00     0.037 A 
HETATM   14  C   UNL     1      43.706 -18.935   3.447  1.00  0.00     0.068 A 
HETATM   15  C   UNL     1      43.937 -18.180   4.598  1.00  0.00     0.037 A 
HETATM   16  C   UNL     1      43.179 -17.037   4.871  1.00  0.00     0.016 A 
BRANCH  14  17
HETATM   17  O   UNL     1      44.523 -20.021   3.301  1.00  0.00    -0.356 OA
HETATM   18  C   UNL     1      44.937 -20.677   4.493  1.00  0.00     0.210 C 
ENDBRANCH  14  17
ENDBRANCH   9  11
ENDBRANCH   1   5
BRANCH   2  19
HETATM   19  N   UNL     1      39.053 -12.083   8.296  1.00  0.00    -0.267 N 
HETATM   20  C   UNL     1      39.598 -10.861   8.616  1.00  0.00     0.240 C 
HETATM   21  O   UNL     1      40.676 -10.478   8.167  1.00  0.00    -0.271 OA
HETATM   22  H   UNL     1      38.103 -12.360   8.527  1.00  0.00     0.190 HD
BRANCH  20  23
HETATM   23  C   UNL     1      38.845  -9.989   9.554  1.00  0.00     0.089 A 
HETATM   24  C   UNL     1      39.390  -9.587  10.913  1.00  0.00     0.036 A 
HETATM   25  C   UNL     1      39.172  -8.550   9.834  1.00  0.00     0.025 A 
BRANCH  24  26
HETATM   26  C   UNL     1      40.791  -9.939  11.361  1.00  0.00    -0.015 A 
HETATM   27  C   UNL     1      41.080 -11.146  12.021  1.00  0.00     0.123 A 
HETATM   28  F   UNL     1      40.087 -12.009  12.283  1.00  0.00    -0.206 F 
HETATM   29  C   UNL     1      42.371 -11.486  12.417  1.00  0.00     0.043 A 
HETATM   30  C   UNL     1      43.425 -10.617  12.152  1.00  0.00     0.003 A 
HETATM   31  C   UNL     1      43.178  -9.419  11.486  1.00  0.00     0.001 A 
HETATM   32  C   UNL     1      41.876  -9.089  11.092  1.00  0.00     0.011 A 
ENDBRANCH  24  26
ENDBRANCH  20  23
ENDBRANCH   2  19
TORSDOF 6
ENDMDL
MODEL 4
REMARK VINA RESULT:      -8.0      6.526      9.804
REMARK  6 active torsions:
REMARK  status: ('A' for Active; 'I' for Inactive)
REMARK    1  A    between atoms: O_2  and  C_3 
REMARK    2  A    between atoms: C_6  and  C_7 
REMARK    3  A    between atoms: C_11  and  C_12 
REMARK       I    between atoms: C_12  and  N_13 
REMARK    4  A    between atoms: N_13  and  N_14 
REMARK       I    between atoms: N_14  and  C_15 
REMARK    5  A    between atoms: C_15  and  C_16 
REMARK    6  A    between atoms: C_17  and  C_18 
ROOT
HETATM    1  C   UNL     1      42.885 -14.762   2.632  1.00  0.00     0.288 C 
HETATM    2  N   UNL     1      42.621 -16.009   3.153  1.00  0.00    -0.262 N 
HETATM    3  O   UNL     1      43.768 -14.036   3.083  1.00  0.00    -0.264 OA
HETATM    4  H   UNL     1      41.934 -16.653   2.768  1.00  0.00     0.190 HD
ENDROOT
BRANCH   1   5
HETATM    5  C   UNL     1      42.047 -14.372   1.530  1.00  0.00     0.121 A 
HETATM    6  N   UNL     1      41.809 -13.061   1.229  1.00  0.00    -0.272 N 
HETATM    7  N   UNL     1      41.003 -12.875   0.175  1.00  0.00    -0.174 NA
HETATM    8  H   UNL     1      42.176 -12.248   1.716  1.00  0.00     0.189 HD
HETATM    9  C   UNL     1      40.670 -14.113  -0.224  1.00  0.00     0.089 A 
HETATM   10  C   UNL     1      41.320 -15.080   0.595  1.00  0.00     0.071 A 
BRANCH   9  11
HETATM   11  C   UNL     1      39.762 -14.348  -1.353  1.00  0.00    -0.005 A 
HETATM   12  C   UNL     1      38.435 -13.896  -1.307  1.00  0.00     0.016 A 
HETATM   13  C   UNL     1      37.562 -14.104  -2.383  1.00  0.00     0.037 A 
HETATM   14  C   UNL     1      38.002 -14.773  -3.524  1.00  0.00     0.068 A 
HETATM   15  C   UNL     1      39.318 -15.238  -3.572  1.00  0.00     0.037 A 
HETATM   16  C   UNL     1      40.192 -15.028  -2.500  1.00  0.00     0.016 A 
BRANCH  14  17
HETATM   17  O   UNL     1      37.261 -15.039  -4.640  1.00  0.00    -0.356 OA
HETATM   18  C   UNL     1      36.092 -14.254  -4.838  1.00  0.00     0.210 C 
ENDBRANCH  14  17
ENDBRANCH   9  11
ENDBRANCH   1   5
BRANCH   2  19
HETATM   19  N   UNL     1      43.348 -16.466   4.256  1.00  0.00    -0.267 N 
HETATM   20  C   UNL     1      42.819 -17.504   4.989  1.00  0.00     0.240 C 
HETATM   21  O   UNL     1      41.734 -18.017   4.724  1.00  0.00    -0.271 OA
HETATM   22  H   UNL     1      44.301 -16.128   4.355  1.00  0.00     0.190 HD
BRANCH  20  23
HETATM   23  C   UNL     1      43.600 -18.001   6.151  1.00  0.00     0.089 A 
HETATM   24  C   UNL     1      44.335 -19.329   6.134  1.00  0.00     0.036 A 
HETATM   25  C   UNL     1      45.100 -18.027   6.225  1.00  0.00     0.025 A 
BRANCH  24  26
HETATM   26  C   UNL     1      44.434 -20.186   4.891  1.00  0.00    -0.015 A 
HETATM   27  C   UNL     1      44.561 -21.583   4.959  1.00  0.00     0.123 A 
HETATM   28  F   UNL     1      44.620 -22.184   6.158  1.00  0.00    -0.206 F 
HETATM   29  C   UNL     1      44.631 -22.381   3.819  1.00  0.00     0.043 A 
HETATM   30  C   UNL     1      44.564 -21.791   2.561  1.00  0.00     0.003 A 
HETATM   31  C   UNL     1      44.422 -20.410   2.456  1.00  0.00     0.001 A 
HETATM   32  C   UNL     1      44.352 -19.619   3.608  1.00  0.00     0.011 A 
ENDBRANCH  24  26
ENDBRANCH  20  23
ENDBRANCH   2  19
TORSDOF 6
ENDMDL
MODEL 5
REMARK VINA RESULT:      -8.0      7.410      9.271
REMARK  6 active torsions:
REMARK  status: ('A' for Active; 'I' for Inactive)
REMARK    1  A    between atoms: O_2  and  C_3 
REMARK    2  A    between atoms: C_6  and  C_7 
REMARK    3  A    between atoms: C_11  and  C_12 
REMARK       I    between atoms: C_12  and  N_13 
REMARK    4  A    between atoms: N_13  and  N_14 
REMARK       I    between atoms: N_14  and  C_15 
REMARK    5  A    between atoms: C_15  and  C_16 
REMARK    6  A    between atoms: C_17  and  C_18 
ROOT
HETATM    1  C   UNL     1      41.061 -15.349  -1.063  1.00  0.00     0.288 C 
HETATM    2  N   UNL     1      41.185 -13.996  -0.835  1.00  0.00    -0.262 N 
HETATM    3  O   UNL     1      40.719 -15.801  -2.154  1.00  0.00    -0.264 OA
HETATM    4  H   UNL     1      41.517 -13.595   0.039  1.00  0.00     0.190 HD
ENDROOT
BRANCH   1   5
HETATM    5  C   UNL     1      41.352 -16.188   0.068  1.00  0.00     0.121 A 
HETATM    6  N   UNL     1      40.461 -16.364   1.088  1.00  0.00    -0.272 N 
HETATM    7  N   UNL     1      40.894 -17.174   2.065  1.00  0.00    -0.174 NA
HETATM    8  H   UNL     1      39.536 -15.951   1.167  1.00  0.00     0.189 HD
HETATM    9  C   UNL     1      42.134 -17.528   1.690  1.00  0.00     0.089 A 
HETATM   10  C   UNL     1      42.451 -16.940   0.432  1.00  0.00     0.071 A 
BRANCH   9  11
HETATM   11  C   UNL     1      42.975 -18.402   2.516  1.00  0.00    -0.005 A 
HETATM   12  C   UNL     1      43.170 -18.126   3.878  1.00  0.00     0.016 A 
HETATM   13  C   UNL     1      43.962 -18.959   4.679  1.00  0.00     0.037 A 
HETATM   14  C   UNL     1      44.576 -20.083   4.130  1.00  0.00     0.068 A 
HETATM   15  C   UNL     1      44.398 -20.357   2.773  1.00  0.00     0.037 A 
HETATM   16  C   UNL     1      43.605 -19.529   1.972  1.00  0.00     0.016 A 
BRANCH  14  17
HETATM   17  O   UNL     1      45.367 -20.977   4.795  1.00  0.00    -0.356 OA
HETATM   18  C   UNL     1      44.833 -22.278   5.001  1.00  0.00     0.210 C 
ENDBRANCH  14  17
ENDBRANCH   9  11
ENDBRANCH   1   5
BRANCH   2  19
HETATM   19  N   UNL     1      40.881 -13.091  -1.856  1.00  0.00    -0.267 N 
HETATM   20  C   UNL     1      41.908 -12.674  -2.671  1.00  0.00     0.240 C 
HETATM   21  O   UNL     1      43.069 -13.047  -2.518  1.00  0.00    -0.271 OA
HETATM   22  H   UNL     1      39.897 -12.924  -2.049  1.00  0.00     0.190 HD
BRANCH  20  23
HETATM   23  C   UNL     1      41.583 -11.725  -3.767  1.00  0.00     0.089 A 
HETATM   24  C   UNL     1      41.631 -10.219  -3.584  1.00  0.00     0.036 A 
HETATM   25  C   UNL     1      42.595 -10.911  -4.522  1.00  0.00     0.025 A 
BRANCH  24  26
HETATM   26  C   UNL     1      42.134  -9.572  -2.313  1.00  0.00    -0.015 A 
HETATM   27  C   UNL     1      41.278  -9.278  -1.238  1.00  0.00     0.123 A 
HETATM   28  F   UNL     1      39.970  -9.558  -1.340  1.00  0.00    -0.206 F 
HETATM   29  C   UNL     1      41.738  -8.702  -0.056  1.00  0.00     0.043 A 
HETATM   30  C   UNL     1      43.091  -8.407   0.085  1.00  0.00     0.003 A 
HETATM   31  C   UNL     1      43.970  -8.699  -0.954  1.00  0.00     0.001 A 
HETATM   32  C   UNL     1      43.497  -9.279  -2.136  1.00  0.00     0.011 A 
ENDBRANCH  24  26
ENDBRANCH  20  23
ENDBRANCH   2  19
TORSDOF 6
ENDMDL
MODEL 6
REMARK VINA RESULT:      -8.0      7.234      9.437
REMARK  6 active torsions:
REMARK  status: ('A' for Active; 'I' for Inactive)
REMARK    1  A    between atoms: O_2  and  C_3 
REMARK    2  A    between atoms: C_6  and  C_7 
REMARK    3  A    between atoms: C_11  and  C_12 
REMARK       I    between atoms: C_12  and  N_13 
REMARK    4  A    between atoms: N_13  and  N_14 
REMARK       I    between atoms: N_14  and  C_15 
REMARK    5  A    between atoms: C_15  and  C_16 
REMARK    6  A    between atoms: C_17  and  C_18 
ROOT
HETATM    1  C   UNL     1      41.377 -14.842  -0.068  1.00  0.00     0.288 C 
HETATM    2  N   UNL     1      40.052 -15.180  -0.234  1.00  0.00    -0.262 N 
HETATM    3  O   UNL     1      41.931 -13.999  -0.769  1.00  0.00    -0.264 OA
HETATM    4  H   UNL     1      39.552 -15.834   0.365  1.00  0.00     0.190 HD
ENDROOT
BRANCH   1   5
HETATM    5  C   UNL     1      42.061 -15.553   0.978  1.00  0.00     0.121 A 
HETATM    6  N   UNL     1      42.572 -14.917   2.074  1.00  0.00    -0.272 N 
HETATM    7  N   UNL     1      43.183 -15.729   2.948  1.00  0.00    -0.174 NA
HETATM    8  H   UNL     1      42.531 -13.922   2.274  1.00  0.00     0.189 HD
HETATM    9  C   UNL     1      43.098 -16.951   2.397  1.00  0.00     0.089 A 
HETATM   10  C   UNL     1      42.386 -16.883   1.165  1.00  0.00     0.071 A 
BRANCH   9  11
HETATM   11  C   UNL     1      43.680 -18.135   3.039  1.00  0.00    -0.005 A 
HETATM   12  C   UNL     1      44.051 -18.103   4.392  1.00  0.00     0.016 A 
HETATM   13  C   UNL     1      44.598 -19.230   5.019  1.00  0.00     0.037 A 
HETATM   14  C   UNL     1      44.786 -20.410   4.301  1.00  0.00     0.068 A 
HETATM   15  C   UNL     1      44.432 -20.446   2.951  1.00  0.00     0.037 A 
HETATM   16  C   UNL     1      43.883 -19.322   2.324  1.00  0.00     0.016 A 
BRANCH  14  17
HETATM   17  O   UNL     1      45.303 -21.578   4.787  1.00  0.00    -0.356 OA
HETATM   18  C   UNL     1      44.685 -22.783   4.356  1.00  0.00     0.210 C 
ENDBRANCH  14  17
ENDBRANCH   9  11
ENDBRANCH   1   5
BRANCH   2  19
HETATM   19  N   UNL     1      39.307 -14.580  -1.253  1.00  0.00    -0.267 N 
HETATM   20  C   UNL     1      38.493 -13.523  -0.916  1.00  0.00     0.240 C 
HETATM   21  O   UNL     1      38.383 -13.112   0.237  1.00  0.00    -0.271 OA
HETATM   22  H   UNL     1      39.534 -14.841  -2.208  1.00  0.00     0.190 HD
BRANCH  20  23
HETATM   23  C   UNL     1      37.713 -12.875  -2.001  1.00  0.00     0.089 A 
HETATM   24  C   UNL     1      38.327 -11.873  -2.962  1.00  0.00     0.036 A 
HETATM   25  C   UNL     1      37.834 -13.213  -3.460  1.00  0.00     0.025 A 
BRANCH  24  26
HETATM   26  C   UNL     1      39.805 -11.554  -2.967  1.00  0.00    -0.015 A 
HETATM   27  C   UNL     1      40.361 -10.585  -2.113  1.00  0.00     0.123 A 
HETATM   28  F   UNL     1      39.560  -9.903  -1.280  1.00  0.00    -0.206 F 
HETATM   29  C   UNL     1      41.724 -10.302  -2.097  1.00  0.00     0.043 A 
HETATM   30  C   UNL     1      42.583 -10.998  -2.942  1.00  0.00     0.003 A 
HETATM   31  C   UNL     1      42.070 -11.976  -3.790  1.00  0.00     0.001 A 
HETATM   32  C   UNL     1      40.698 -12.253  -3.796  1.00  0.00     0.011 A 
ENDBRANCH  24  26
ENDBRANCH  20  23
ENDBRANCH   2  19
TORSDOF 6
ENDMDL
MODEL 7
REMARK VINA RESULT:      -7.9      7.608      9.275
REMARK  6 active torsions:
REMARK  status: ('A' for Active; 'I' for Inactive)
REMARK    1  A    between atoms: O_2  and  C_3 
REMARK    2  A    between atoms: C_6  and  C_7 
REMARK    3  A    between atoms: C_11  and  C_12 
REMARK       I    between atoms: C_12  and  N_13 
REMARK    4  A    between atoms: N_13  and  N_14 
REMARK       I    between atoms: N_14  and  C_15 
REMARK    5  A    between atoms: C_15  and  C_16 
REMARK    6  A    between atoms: C_17  and  C_18 
ROOT
HETATM    1  C   UNL     1      41.029 -14.929  -0.761  1.00  0.00     0.288 C 
HETATM    2  N   UNL     1      42.098 -14.622  -1.574  1.00  0.00    -0.262 N 
HETATM    3  O   UNL     1      39.929 -14.399  -0.898  1.00  0.00    -0.264 OA
HETATM    4  H   UNL     1      43.003 -15.083  -1.521  1.00  0.00     0.190 HD
ENDROOT
BRANCH   1   5
HETATM    5  C   UNL     1      41.299 -15.906   0.258  1.00  0.00     0.121 A 
HETATM    6  N   UNL     1      40.351 -16.290   1.164  1.00  0.00    -0.272 N 
HETATM    7  N   UNL     1      40.772 -17.206   2.048  1.00  0.00    -0.174 NA
HETATM    8  H   UNL     1      39.394 -15.955   1.223  1.00  0.00     0.189 HD
HETATM    9  C   UNL     1      42.059 -17.419   1.733  1.00  0.00     0.089 A 
HETATM   10  C   UNL     1      42.423 -16.631   0.603  1.00  0.00     0.071 A 
BRANCH   9  11
HETATM   11  C   UNL     1      42.901 -18.349   2.494  1.00  0.00    -0.005 A 
HETATM   12  C   UNL     1      43.098 -18.171   3.871  1.00  0.00     0.016 A 
HETATM   13  C   UNL     1      43.890 -19.059   4.611  1.00  0.00     0.037 A 
HETATM   14  C   UNL     1      44.504 -20.141   3.982  1.00  0.00     0.068 A 
HETATM   15  C   UNL     1      44.325 -20.318   2.609  1.00  0.00     0.037 A 
HETATM   16  C   UNL     1      43.531 -19.434   1.869  1.00  0.00     0.016 A 
BRANCH  14  17
HETATM   17  O   UNL     1      45.296 -21.080   4.581  1.00  0.00    -0.356 OA
HETATM   18  C   UNL     1      44.661 -21.971   5.488  1.00  0.00     0.210 C 
ENDBRANCH  14  17
ENDBRANCH   9  11
ENDBRANCH   1   5
BRANCH   2  19
HETATM   19  N   UNL     1      41.955 -13.651  -2.569  1.00  0.00    -0.267 N 
HETATM   20  C   UNL     1      42.560 -12.431  -2.368  1.00  0.00     0.240 C 
HETATM   21  O   UNL     1      43.190 -12.165  -1.348  1.00  0.00    -0.271 OA
HETATM   22  H   UNL     1      41.562 -13.952  -3.457  1.00  0.00     0.190 HD
BRANCH  20  23
HETATM   23  C   UNL     1      42.421 -11.405  -3.432  1.00  0.00     0.089 A 
HETATM   24  C   UNL     1      41.158 -10.584  -3.617  1.00  0.00     0.036 A 
HETATM   25  C   UNL     1      42.451  -9.921  -3.198  1.00  0.00     0.025 A 
BRANCH  24  26
HETATM   26  C   UNL     1      39.994 -10.660  -2.655  1.00  0.00    -0.015 A 
HETATM   27  C   UNL     1      38.953 -11.589  -2.818  1.00  0.00     0.123 A 
HETATM   28  F   UNL     1      38.973 -12.426  -3.867  1.00  0.00    -0.206 F 
HETATM   29  C   UNL     1      37.888 -11.680  -1.924  1.00  0.00     0.043 A 
HETATM   30  C   UNL     1      37.842 -10.834  -0.820  1.00  0.00     0.003 A 
HETATM   31  C   UNL     1      38.865  -9.910  -0.618  1.00  0.00     0.001 A 
HETATM   32  C   UNL     1      39.929  -9.830  -1.523  1.00  0.00     0.011 A 
ENDBRANCH  24  26
ENDBRANCH  20  23
ENDBRANCH   2  19
TORSDOF 6
ENDMDL
MODEL 8
REMARK VINA RESULT:      -7.9      8.197     10.549
REMARK  6 active torsions:
REMARK  status: ('A' for Active; 'I' for Inactive)
REMARK    1  A    between atoms: O_2  and  C_3 
REMARK    2  A    between atoms: C_6  and  C_7 
REMARK    3  A    between atoms: C_11  and  C_12 
REMARK       I    between atoms: C_12  and  N_13 
REMARK    4  A    between atoms: N_13  and  N_14 
REMARK       I    between atoms: N_14  and  C_15 
REMARK    5  A    between atoms: C_15  and  C_16 
REMARK    6  A    between atoms: C_17  and  C_18 
ROOT
HETATM    1  C   UNL     1      41.489 -14.432   0.120  1.00  0.00     0.288 C 
HETATM    2  N   UNL     1      41.842 -15.719  -0.220  1.00  0.00    -0.262 N 
HETATM    3  O   UNL     1      42.055 -13.812   1.017  1.00  0.00    -0.264 OA
HETATM    4  H   UNL     1      41.429 -16.237  -0.992  1.00  0.00     0.190 HD
ENDROOT
BRANCH   1   5
HETATM    5  C   UNL     1      40.407 -13.874  -0.645  1.00  0.00     0.121 A 
HETATM    6  N   UNL     1      39.921 -12.619  -0.407  1.00  0.00    -0.272 N 
HETATM    7  N   UNL     1      38.909 -12.258  -1.208  1.00  0.00    -0.174 NA
HETATM    8  H   UNL     1      40.248 -11.963   0.297  1.00  0.00     0.189 HD
HETATM    9  C   UNL     1      38.697 -13.327  -1.993  1.00  0.00     0.089 A 
HETATM   10  C   UNL     1      39.629 -14.357  -1.679  1.00  0.00     0.071 A 
BRANCH   9  11
HETATM   11  C   UNL     1      37.636 -13.347  -3.007  1.00  0.00    -0.005 A 
HETATM   12  C   UNL     1      36.954 -12.170  -3.350  1.00  0.00     0.016 A 
HETATM   13  C   UNL     1      35.946 -12.175  -4.323  1.00  0.00     0.037 A 
HETATM   14  C   UNL     1      35.601 -13.360  -4.970  1.00  0.00     0.068 A 
HETATM   15  C   UNL     1      36.266 -14.539  -4.624  1.00  0.00     0.037 A 
HETATM   16  C   UNL     1      37.274 -14.536  -3.655  1.00  0.00     0.016 A 
BRANCH  14  17
HETATM   17  O   UNL     1      34.646 -13.505  -5.936  1.00  0.00    -0.356 OA
HETATM   18  C   UNL     1      35.044 -13.253  -7.277  1.00  0.00     0.210 C 
ENDBRANCH  14  17
ENDBRANCH   9  11
ENDBRANCH   1   5
BRANCH   2  19
HETATM   19  N   UNL     1      42.852 -16.371   0.493  1.00  0.00    -0.267 N 
HETATM   20  C   UNL     1      42.522 -17.526   1.165  1.00  0.00     0.240 C 
HETATM   21  O   UNL     1      41.381 -17.981   1.178  1.00  0.00    -0.271 OA
HETATM   22  H   UNL     1      43.806 -16.056   0.337  1.00  0.00     0.190 HD
BRANCH  20  23
HETATM   23  C   UNL     1      43.599 -18.227   1.909  1.00  0.00     0.089 A 
HETATM   24  C   UNL     1      43.806 -18.056   3.403  1.00  0.00     0.036 A 
HETATM   25  C   UNL     1      43.380 -19.391   2.834  1.00  0.00     0.025 A 
BRANCH  24  26
HETATM   26  C   UNL     1      42.855 -17.257   4.267  1.00  0.00    -0.015 A 
HETATM   27  C   UNL     1      42.857 -15.852   4.273  1.00  0.00     0.123 A 
HETATM   28  F   UNL     1      43.739 -15.189   3.507  1.00  0.00    -0.206 F 
HETATM   29  C   UNL     1      41.970 -15.109   5.049  1.00  0.00     0.043 A 
HETATM   30  C   UNL     1      41.038 -15.766   5.846  1.00  0.00     0.003 A 
HETATM   31  C   UNL     1      40.997 -17.157   5.854  1.00  0.00     0.001 A 
HETATM   32  C   UNL     1      41.892 -17.892   5.068  1.00  0.00     0.011 A 
ENDBRANCH  24  26
ENDBRANCH  20  23
ENDBRANCH   2  19
TORSDOF 6
ENDMDL
MODEL 9
REMARK VINA RESULT:      -7.7      6.985      9.339
REMARK  6 active torsions:
REMARK  status: ('A' for Active; 'I' for Inactive)
REMARK    1  A    between atoms: O_2  and  C_3 
REMARK    2  A    between atoms: C_6  and  C_7 
REMARK    3  A    between atoms: C_11  and  C_12 
REMARK       I    between atoms: C_12  and  N_13 
REMARK    4  A    between atoms: N_13  and  N_14 
REMARK       I    between atoms: N_14  and  C_15 
REMARK    5  A    between atoms: C_15  and  C_16 
REMARK    6  A    between atoms: C_17  and  C_18 
ROOT
HETATM    1  C   UNL     1      41.724 -14.246   0.695  1.00  0.00     0.288 C 
HETATM    2  N   UNL     1      41.061 -13.140   1.179  1.00  0.00    -0.262 N 
HETATM    3  O   UNL     1      41.803 -14.489  -0.507  1.00  0.00    -0.264 OA
HETATM    4  H   UNL     1      41.025 -12.884   2.162  1.00  0.00     0.190 HD
ENDROOT
BRANCH   1   5
HETATM    5  C   UNL     1      42.306 -15.096   1.698  1.00  0.00     0.121 A 
HETATM    6  N   UNL     1      42.728 -14.611   2.904  1.00  0.00    -0.272 N 
HETATM    7  N   UNL     1      43.250 -15.538   3.719  1.00  0.00    -0.174 NA
HETATM    8  H   UNL     1      42.681 -13.647   3.223  1.00  0.00     0.189 HD
HETATM    9  C   UNL     1      43.197 -16.681   3.015  1.00  0.00     0.089 A 
HETATM   10  C   UNL     1      42.596 -16.445   1.746  1.00  0.00     0.071 A 
BRANCH   9  11
HETATM   11  C   UNL     1      43.706 -17.948   3.553  1.00  0.00    -0.005 A 
HETATM   12  C   UNL     1      43.991 -18.080   4.920  1.00  0.00     0.016 A 
HETATM   13  C   UNL     1      44.468 -19.288   5.447  1.00  0.00     0.037 A 
HETATM   14  C   UNL     1      44.670 -20.385   4.612  1.00  0.00     0.068 A 
HETATM   15  C   UNL     1      44.401 -20.258   3.248  1.00  0.00     0.037 A 
HETATM   16  C   UNL     1      43.923 -19.054   2.721  1.00  0.00     0.016 A 
BRANCH  14  17
HETATM   17  O   UNL     1      45.124 -21.617   4.993  1.00  0.00    -0.356 OA
HETATM   18  C   UNL     1      44.737 -22.721   4.186  1.00  0.00     0.210 C 
ENDBRANCH  14  17
ENDBRANCH   9  11
ENDBRANCH   1   5
BRANCH   2  19
HETATM   19  N   UNL     1      40.420 -12.273   0.289  1.00  0.00    -0.267 N 
HETATM   20  C   UNL     1      39.096 -12.511   0.002  1.00  0.00     0.240 C 
HETATM   21  O   UNL     1      38.476 -13.460   0.475  1.00  0.00    -0.271 OA
HETATM   22  H   UNL     1      40.912 -11.420   0.039  1.00  0.00     0.190 HD
BRANCH  20  23
HETATM   23  C   UNL     1      38.410 -11.580  -0.931  1.00  0.00     0.089 A 
HETATM   24  C   UNL     1      38.175 -11.914  -2.393  1.00  0.00     0.036 A 
HETATM   25  C   UNL     1      37.009 -11.760  -1.442  1.00  0.00     0.025 A 
BRANCH  24  26
HETATM   26  C   UNL     1      38.508 -13.268  -2.980  1.00  0.00    -0.015 A 
HETATM   27  C   UNL     1      39.831 -13.661  -3.241  1.00  0.00     0.123 A 
HETATM   28  F   UNL     1      40.836 -12.809  -2.985  1.00  0.00    -0.206 F 
HETATM   29  C   UNL     1      40.147 -14.914  -3.761  1.00  0.00     0.043 A 
HETATM   30  C   UNL     1      39.129 -15.824  -4.029  1.00  0.00     0.003 A 
HETATM   31  C   UNL     1      37.807 -15.475  -3.768  1.00  0.00     0.001 A 
HETATM   32  C   UNL     1      37.503 -14.213  -3.244  1.00  0.00     0.011 A 
ENDBRANCH  24  26
ENDBRANCH  20  23
ENDBRANCH   2  19
TORSDOF 6
ENDMDL
MODEL 10
REMARK VINA RESULT:      -7.6      7.292      9.154
REMARK  6 active torsions:
REMARK  status: ('A' for Active; 'I' for Inactive)
REMARK    1  A    between atoms: O_2  and  C_3 
REMARK    2  A    between atoms: C_6  and  C_7 
REMARK    3  A    between atoms: C_11  and  C_12 
REMARK       I    between atoms: C_12  and  N_13 
REMARK    4  A    between atoms: N_13  and  N_14 
REMARK       I    between atoms: N_14  and  C_15 
REMARK    5  A    between atoms: C_15  and  C_16 
REMARK    6  A    between atoms: C_17  and  C_18 
ROOT
HETATM    1  C   UNL     1      40.701 -15.036  -0.463  1.00  0.00     0.288 C 
HETATM    2  N   UNL     1      39.432 -14.514  -0.344  1.00  0.00    -0.262 N 
HETATM    3  O   UNL     1      41.468 -14.696  -1.361  1.00  0.00    -0.264 OA
HETATM    4  H   UNL     1      38.796 -14.735   0.418  1.00  0.00     0.190 HD
ENDROOT
BRANCH   1   5
HETATM    5  C   UNL     1      41.057 -16.009   0.534  1.00  0.00     0.121 A 
HETATM    6  N   UNL     1      40.197 -16.373   1.531  1.00  0.00    -0.272 N 
HETATM    7  N   UNL     1      40.690 -17.289   2.377  1.00  0.00    -0.174 NA
HETATM    8  H   UNL     1      39.255 -16.023   1.681  1.00  0.00     0.189 HD
HETATM    9  C   UNL     1      41.937 -17.523   1.939  1.00  0.00     0.089 A 
HETATM   10  C   UNL     1      42.198 -16.748   0.772  1.00  0.00     0.071 A 
BRANCH   9  11
HETATM   11  C   UNL     1      42.837 -18.460   2.621  1.00  0.00    -0.005 A 
HETATM   12  C   UNL     1      43.472 -19.487   1.907  1.00  0.00     0.016 A 
HETATM   13  C   UNL     1      44.342 -20.382   2.545  1.00  0.00     0.037 A 
HETATM   14  C   UNL     1      44.589 -20.265   3.912  1.00  0.00     0.068 A 
HETATM   15  C   UNL     1      43.950 -19.254   4.632  1.00  0.00     0.037 A 
HETATM   16  C   UNL     1      43.084 -18.358   3.996  1.00  0.00     0.016 A 
BRANCH  14  17
HETATM   17  O   UNL     1      45.412 -21.063   4.655  1.00  0.00    -0.356 OA
HETATM   18  C   UNL     1      44.868 -22.293   5.118  1.00  0.00     0.210 C 
ENDBRANCH  14  17
ENDBRANCH   9  11
ENDBRANCH   1   5
BRANCH   2  19
HETATM   19  N   UNL     1      38.971 -13.593  -1.289  1.00  0.00    -0.267 N 
HETATM   20  C   UNL     1      38.640 -12.332  -0.848  1.00  0.00     0.240 C 
HETATM   21  O   UNL     1      38.712 -12.003   0.333  1.00  0.00    -0.271 OA
HETATM   22  H   UNL     1      39.068 -13.846  -2.268  1.00  0.00     0.190 HD
BRANCH  20  23
HETATM   23  C   UNL     1      38.165 -11.348  -1.855  1.00  0.00     0.089 A 
HETATM   24  C   UNL     1      39.068 -10.277  -2.439  1.00  0.00     0.036 A 
HETATM   25  C   UNL     1      38.518 -11.381  -3.315  1.00  0.00     0.025 A 
BRANCH  24  26
HETATM   26  C   UNL     1      40.548 -10.209  -2.136  1.00  0.00    -0.015 A 
HETATM   27  C   UNL     1      41.045  -9.563  -0.992  1.00  0.00     0.123 A 
HETATM   28  F   UNL     1      40.189  -8.966  -0.147  1.00  0.00    -0.206 F 
HETATM   29  C   UNL     1      42.404  -9.515  -0.695  1.00  0.00     0.043 A 
HETATM   30  C   UNL     1      43.317 -10.131  -1.546  1.00  0.00     0.003 A 
HETATM   31  C   UNL     1      42.859 -10.794  -2.681  1.00  0.00     0.001 A 
HETATM   32  C   UNL     1      41.491 -10.837  -2.968  1.00  0.00     0.011 A 
ENDBRANCH  24  26
ENDBRANCH  20  23
ENDBRANCH   2  19
TORSDOF 6
ENDMDL
