MODEL 1
REMARK VINA RESULT:      -8.0      0.000      0.000
REMARK  6 active torsions:
REMARK  status: ('A' for Active; 'I' for Inactive)
REMARK    1  A    between atoms: C_2  and  N_3 
REMARK    2  A    between atoms: C_2  and  C_21 
REMARK       I    between atoms: N_3  and  C_4 
REMARK       I    between atoms: C_4  and  N_5 
REMARK    3  A    between atoms: N_5  and  C_6 
REMARK    4  A    between atoms: C_6  and  C_7 
REMARK    5  A    between atoms: C_10  and  O_11 
REMARK    6  A    between atoms: O_11  and  C_12 
ROOT
HETATM    1  N   UNL     1      39.745 -11.915   8.509  1.00  0.00    -0.332 N 
HETATM    2  C   UNL     1      39.676 -11.968   7.150  1.00  0.00     0.317 C 
HETATM    3  N   UNL     1      39.424 -13.238   6.707  1.00  0.00    -0.339 N 
HETATM    4  O   UNL     1      39.833 -11.004   6.415  1.00  0.00    -0.247 OA
HETATM    5  H   UNL     1      39.330 -12.659   9.051  1.00  0.00     0.165 HD
HETATM    6  H   UNL     1      39.728 -13.978   7.321  1.00  0.00     0.164 HD
ENDROOT
BRANCH   3   7
HETATM    7  C   UNL     1      39.460 -13.513   5.291  1.00  0.00     0.162 C 
BRANCH   7   8
HETATM    8  C   UNL     1      40.228 -14.775   5.008  1.00  0.00    -0.040 A 
HETATM    9  C   UNL     1      40.591 -15.638   6.050  1.00  0.00     0.011 A 
HETATM   10  C   UNL     1      41.317 -16.809   5.791  1.00  0.00     0.037 A 
HETATM   11  C   UNL     1      41.699 -17.124   4.489  1.00  0.00     0.069 A 
HETATM   12  C   UNL     1      41.354 -16.255   3.451  1.00  0.00     0.037 A 
HETATM   13  C   UNL     1      40.627 -15.090   3.704  1.00  0.00     0.011 A 
BRANCH  11  14
HETATM   14  O   UNL     1      42.401 -18.225   4.089  1.00  0.00    -0.346 OA
BRANCH  14  15
HETATM   15  C   UNL     1      43.777 -18.091   3.711  1.00  0.00     0.129 C 
HETATM   16  C   UNL     1      44.676 -18.938   4.623  1.00  0.00     0.032 C 
HETATM   17  C   UNL     1      44.391 -20.434   4.488  1.00  0.00     0.002 C 
HETATM   18  C   UNL     1      44.500 -20.897   3.038  1.00  0.00     0.000 C 
HETATM   19  C   UNL     1      43.616 -20.069   2.113  1.00  0.00     0.002 C 
HETATM   20  C   UNL     1      43.895 -18.573   2.256  1.00  0.00     0.032 C 
ENDBRANCH  14  15
ENDBRANCH  11  14
ENDBRANCH   7   8
ENDBRANCH   3   7
BRANCH   1  21
HETATM   21  C   UNL     1      39.976 -10.667   9.228  1.00  0.00     0.155 C 
HETATM   22  C   UNL     1      38.661  -9.997   9.621  1.00  0.00     0.041 C 
BRANCH  21  23
HETATM   23  C   UNL     1      40.812 -10.970  10.443  1.00  0.00     0.169 A 
HETATM   24  N   UNL     1      40.288 -11.365  11.619  1.00  0.00    -0.156 NA
HETATM   25  N   UNL     1      41.393 -11.511  12.369  1.00  0.00    -0.270 N 
HETATM   26  H   UNL     1      41.307 -11.811  13.333  1.00  0.00     0.190 HD
HETATM   27  C   UNL     1      42.512 -11.214  11.660  1.00  0.00     0.227 A 
HETATM   28  N   UNL     1      42.182 -10.865  10.441  1.00  0.00    -0.223 NA
ENDBRANCH  21  23
ENDBRANCH   1  21
TORSDOF 6
ENDMDL
MODEL 2
REMARK VINA RESULT:      -7.9      2.869      3.857
REMARK  6 active torsions:
REMARK  status: ('A' for Active; 'I' for Inactive)
REMARK    1  A    between atoms: C_2  and  N_3 
REMARK    2  A    between atoms: C_2  and  C_21 
REMARK       I    between atoms: N_3  and  C_4 
REMARK       I    between atoms: C_4  and  N_5 
REMARK    3  A    between atoms: N_5  and  C_6 
REMARK    4  A    between atoms: C_6  and  C_7 
REMARK    5  A    between atoms: C_10  and  O_11 
REMARK    6  A    between atoms: O_11  and  C_12 
ROOT
HETATM    1  N   UNL     1      43.030 -11.595  10.362  1.00  0.00    -0.332 N 
HETATM    2  C   UNL     1      44.049 -12.382   9.920  1.00  0.00     0.317 C 
HETATM    3  N   UNL     1      44.049 -12.489   8.556  1.00  0.00    -0.339 N 
HETATM    4  O   UNL     1      44.857 -12.936  10.652  1.00  0.00    -0.247 OA
HETATM    5  H   UNL     1      42.591 -10.953   9.717  1.00  0.00     0.165 HD
HETATM    6  H   UNL     1      43.152 -12.367   8.113  1.00  0.00     0.164 HD
ENDROOT
BRANCH   3   7
HETATM    7  C   UNL     1      44.970 -13.401   7.918  1.00  0.00     0.162 C 
BRANCH   7   8
HETATM    8  C   UNL     1      44.264 -14.250   6.897  1.00  0.00    -0.040 A 
HETATM    9  C   UNL     1      43.379 -13.673   5.978  1.00  0.00     0.011 A 
HETATM   10  C   UNL     1      42.711 -14.464   5.033  1.00  0.00     0.037 A 
HETATM   11  C   UNL     1      42.910 -15.843   5.006  1.00  0.00     0.069 A 
HETATM   12  C   UNL     1      43.778 -16.422   5.934  1.00  0.00     0.037 A 
HETATM   13  C   UNL     1      44.449 -15.637   6.874  1.00  0.00     0.011 A 
BRANCH  11  14
HETATM   14  O   UNL     1      42.333 -16.733   4.144  1.00  0.00    -0.346 OA
BRANCH  14  15
HETATM   15  C   UNL     1      41.968 -16.308   2.826  1.00  0.00     0.129 C 
HETATM   16  C   UNL     1      43.204 -15.846   2.042  1.00  0.00     0.032 C 
HETATM   17  C   UNL     1      44.201 -16.982   1.811  1.00  0.00     0.002 C 
HETATM   18  C   UNL     1      43.542 -18.176   1.127  1.00  0.00     0.000 C 
HETATM   19  C   UNL     1      42.311 -18.653   1.888  1.00  0.00     0.002 C 
HETATM   20  C   UNL     1      41.319 -17.514   2.127  1.00  0.00     0.032 C 
ENDBRANCH  14  15
ENDBRANCH  11  14
ENDBRANCH   7   8
ENDBRANCH   3   7
BRANCH   1  21
HETATM   21  C   UNL     1      42.831 -11.301  11.776  1.00  0.00     0.155 C 
HETATM   22  C   UNL     1      43.707 -10.136  12.233  1.00  0.00     0.041 C 
BRANCH  21  23
HETATM   23  C   UNL     1      41.372 -10.998  11.994  1.00  0.00     0.169 A 
HETATM   24  N   UNL     1      40.537 -11.827  12.650  1.00  0.00    -0.156 NA
HETATM   25  N   UNL     1      39.382 -11.143  12.593  1.00  0.00    -0.270 N 
HETATM   26  H   UNL     1      38.549 -11.533  13.019  1.00  0.00     0.190 HD
HETATM   27  C   UNL     1      39.537  -9.967  11.933  1.00  0.00     0.227 A 
HETATM   28  N   UNL     1      40.781  -9.844  11.538  1.00  0.00    -0.223 NA
ENDBRANCH  21  23
ENDBRANCH   1  21
TORSDOF 6
ENDMDL
MODEL 3
REMARK VINA RESULT:      -7.9      3.815     10.513
REMARK  6 active torsions:
REMARK  status: ('A' for Active; 'I' for Inactive)
REMARK    1  A    between atoms: C_2  and  N_3 
REMARK    2  A    between atoms: C_2  and  C_21 
REMARK       I    between atoms: N_3  and  C_4 
REMARK       I    between atoms: C_4  and  N_5 
REMARK    3  A    between atoms: N_5  and  C_6 
REMARK    4  A    between atoms: C_6  and  C_7 
REMARK    5  A    between atoms: C_10  and  O_11 
REMARK    6  A    between atoms: O_11  and  C_12 
ROOT
HETATM    1  N   UNL     1      43.819 -15.202   7.355  1.00  0.00    -0.332 N 
HETATM    2  C   UNL     1      44.618 -14.104   7.456  1.00  0.00     0.317 C 
HETATM    3  N   UNL     1      44.343 -13.382   8.586  1.00  0.00    -0.339 N 
HETATM    4  O   UNL     1      45.468 -13.794   6.634  1.00  0.00    -0.247 OA
HETATM    5  H   UNL     1      43.358 -15.551   8.184  1.00  0.00     0.165 HD
HETATM    6  H   UNL     1      43.403 -13.473   8.938  1.00  0.00     0.164 HD
ENDROOT
BRANCH   3   7
HETATM    7  C   UNL     1      44.992 -12.108   8.785  1.00  0.00     0.162 C 
BRANCH   7   8
HETATM    8  C   UNL     1      44.187 -11.234   9.708  1.00  0.00    -0.040 A 
HETATM    9  C   UNL     1      42.924 -10.765   9.324  1.00  0.00     0.011 A 
HETATM   10  C   UNL     1      42.177  -9.940  10.176  1.00  0.00     0.037 A 
HETATM   11  C   UNL     1      42.689  -9.565  11.416  1.00  0.00     0.069 A 
HETATM   12  C   UNL     1      43.956 -10.017  11.792  1.00  0.00     0.037 A 
HETATM   13  C   UNL     1      44.702 -10.842  10.948  1.00  0.00     0.011 A 
BRANCH  11  14
HETATM   14  O   UNL     1      42.076  -8.774  12.346  1.00  0.00    -0.346 OA
BRANCH  14  15
HETATM   15  C   UNL     1      40.916  -9.257  13.034  1.00  0.00     0.129 C 
HETATM   16  C   UNL     1      41.280 -10.428  13.957  1.00  0.00     0.032 C 
HETATM   17  C   UNL     1      42.235 -10.007  15.075  1.00  0.00     0.002 C 
HETATM   18  C   UNL     1      41.676  -8.837  15.880  1.00  0.00     0.000 C 
HETATM   19  C   UNL     1      41.307  -7.662  14.982  1.00  0.00     0.002 C 
HETATM   20  C   UNL     1      40.360  -8.085  13.859  1.00  0.00     0.032 C 
ENDBRANCH  14  15
ENDBRANCH  11  14
ENDBRANCH   7   8
ENDBRANCH   3   7
BRANCH   1  21
HETATM   21  C   UNL     1      43.936 -16.151   6.254  1.00  0.00     0.155 C 
HETATM   22  C   UNL     1      44.784 -17.360   6.645  1.00  0.00     0.041 C 
BRANCH  21  23
HETATM   23  C   UNL     1      42.550 -16.573   5.846  1.00  0.00     0.169 A 
HETATM   24  N   UNL     1      41.454 -15.820   6.068  1.00  0.00    -0.156 NA
HETATM   25  N   UNL     1      40.489 -16.591   5.539  1.00  0.00    -0.270 N 
HETATM   26  H   UNL     1      39.527 -16.272   5.559  1.00  0.00     0.190 HD
HETATM   27  C   UNL     1      40.999 -17.743   5.032  1.00  0.00     0.227 A 
HETATM   28  N   UNL     1      42.298 -17.766   5.212  1.00  0.00    -0.223 NA
ENDBRANCH  21  23
ENDBRANCH   1  21
TORSDOF 6
ENDMDL
MODEL 4
REMARK VINA RESULT:      -7.7      0.715      1.195
REMARK  6 active torsions:
REMARK  status: ('A' for Active; 'I' for Inactive)
REMARK    1  A    between atoms: C_2  and  N_3 
REMARK    2  A    between atoms: C_2  and  C_21 
REMARK       I    between atoms: N_3  and  C_4 
REMARK       I    between atoms: C_4  and  N_5 
REMARK    3  A    between atoms: N_5  and  C_6 
REMARK    4  A    between atoms: C_6  and  C_7 
REMARK    5  A    between atoms: C_10  and  O_11 
REMARK    6  A    between atoms: O_11  and  C_12 
ROOT
HETATM    1  N   UNL     1      40.008 -11.778   8.379  1.00  0.00    -0.332 N 
HETATM    2  C   UNL     1      39.816 -11.895   7.036  1.00  0.00     0.317 C 
HETATM    3  N   UNL     1      39.425 -13.159   6.690  1.00  0.00    -0.339 N 
HETATM    4  O   UNL     1      39.986 -10.986   6.236  1.00  0.00    -0.247 OA
HETATM    5  H   UNL     1      39.583 -12.456   8.996  1.00  0.00     0.165 HD
HETATM    6  H   UNL     1      39.720 -13.890   7.318  1.00  0.00     0.164 HD
ENDROOT
BRANCH   3   7
HETATM    7  C   UNL     1      39.315 -13.508   5.293  1.00  0.00     0.162 C 
BRANCH   7   8
HETATM    8  C   UNL     1      40.108 -14.748   4.985  1.00  0.00    -0.040 A 
HETATM    9  C   UNL     1      40.556 -15.583   6.017  1.00  0.00     0.011 A 
HETATM   10  C   UNL     1      41.306 -16.733   5.734  1.00  0.00     0.037 A 
HETATM   11  C   UNL     1      41.628 -17.054   4.417  1.00  0.00     0.069 A 
HETATM   12  C   UNL     1      41.198 -16.212   3.389  1.00  0.00     0.037 A 
HETATM   13  C   UNL     1      40.447 -15.068   3.666  1.00  0.00     0.011 A 
BRANCH  11  14
HETATM   14  O   UNL     1      42.344 -18.137   3.994  1.00  0.00    -0.346 OA
BRANCH  14  15
HETATM   15  C   UNL     1      43.728 -17.984   3.657  1.00  0.00     0.129 C 
HETATM   16  C   UNL     1      44.621 -18.659   4.708  1.00  0.00     0.032 C 
HETATM   17  C   UNL     1      44.409 -20.172   4.762  1.00  0.00     0.002 C 
HETATM   18  C   UNL     1      44.606 -20.815   3.392  1.00  0.00     0.000 C 
HETATM   19  C   UNL     1      43.729 -20.161   2.331  1.00  0.00     0.002 C 
HETATM   20  C   UNL     1      43.935 -18.646   2.285  1.00  0.00     0.032 C 
ENDBRANCH  14  15
ENDBRANCH  11  14
ENDBRANCH   7   8
ENDBRANCH   3   7
BRANCH   1  21
HETATM   21  C   UNL     1      40.400 -10.520   9.003  1.00  0.00     0.155 C 
HETATM   22  C   UNL     1      39.443 -10.131  10.128  1.00  0.00     0.041 C 
BRANCH  21  23
HETATM   23  C   UNL     1      41.808 -10.667   9.517  1.00  0.00     0.169 A 
HETATM   24  N   UNL     1      42.895 -10.563   8.729  1.00  0.00    -0.156 NA
HETATM   25  N   UNL     1      43.886 -10.757   9.614  1.00  0.00    -0.270 N 
HETATM   26  H   UNL     1      44.850 -10.733   9.300  1.00  0.00     0.190 HD
HETATM   27  C   UNL     1      43.398 -10.967  10.864  1.00  0.00     0.227 A 
HETATM   28  N   UNL     1      42.088 -10.920  10.838  1.00  0.00    -0.223 NA
ENDBRANCH  21  23
ENDBRANCH   1  21
TORSDOF 6
ENDMDL
MODEL 5
REMARK VINA RESULT:      -7.6      4.973      9.035
REMARK  6 active torsions:
REMARK  status: ('A' for Active; 'I' for Inactive)
REMARK    1  A    between atoms: C_2  and  N_3 
REMARK    2  A    between atoms: C_2  and  C_21 
REMARK       I    between atoms: N_3  and  C_4 
REMARK       I    between atoms: C_4  and  N_5 
REMARK    3  A    between atoms: N_5  and  C_6 
REMARK    4  A    between atoms: C_6  and  C_7 
REMARK    5  A    between atoms: C_10  and  O_11 
REMARK    6  A    between atoms: O_11  and  C_12 
ROOT
HETATM    1  N   UNL     1      44.162 -20.483   5.803  1.00  0.00    -0.332 N 
HETATM    2  C   UNL     1      44.403 -19.244   6.314  1.00  0.00     0.317 C 
HETATM    3  N   UNL     1      43.427 -18.862   7.194  1.00  0.00    -0.339 N 
HETATM    4  O   UNL     1      45.366 -18.551   6.015  1.00  0.00    -0.247 OA
HETATM    5  H   UNL     1      43.532 -21.102   6.293  1.00  0.00     0.165 HD
HETATM    6  H   UNL     1      42.523 -19.284   7.045  1.00  0.00     0.164 HD
ENDROOT
BRANCH   3   7
HETATM    7  C   UNL     1      43.439 -17.520   7.725  1.00  0.00     0.162 C 
BRANCH   7   8
HETATM    8  C   UNL     1      42.678 -16.581   6.829  1.00  0.00    -0.040 A 
HETATM    9  C   UNL     1      41.316 -16.784   6.575  1.00  0.00     0.011 A 
HETATM   10  C   UNL     1      40.608 -15.919   5.731  1.00  0.00     0.037 A 
HETATM   11  C   UNL     1      41.256 -14.847   5.121  1.00  0.00     0.069 A 
HETATM   12  C   UNL     1      42.619 -14.654   5.359  1.00  0.00     0.037 A 
HETATM   13  C   UNL     1      43.328 -15.512   6.202  1.00  0.00     0.011 A 
BRANCH  11  14
HETATM   14  O   UNL     1      40.696 -13.925   4.283  1.00  0.00    -0.346 OA
BRANCH  14  15
HETATM   15  C   UNL     1      41.152 -13.829   2.928  1.00  0.00     0.129 C 
HETATM   16  C   UNL     1      40.843 -15.121   2.158  1.00  0.00     0.032 C 
HETATM   17  C   UNL     1      39.341 -15.375   2.034  1.00  0.00     0.002 C 
HETATM   18  C   UNL     1      38.620 -14.185   1.406  1.00  0.00     0.000 C 
HETATM   19  C   UNL     1      38.913 -12.890   2.155  1.00  0.00     0.002 C 
HETATM   20  C   UNL     1      40.416 -12.642   2.286  1.00  0.00     0.032 C 
ENDBRANCH  14  15
ENDBRANCH  11  14
ENDBRANCH   7   8
ENDBRANCH   3   7
BRANCH   1  21
HETATM   21  C   UNL     1      45.073 -21.127   4.864  1.00  0.00     0.155 C 
HETATM   22  C   UNL     1      45.379 -22.565   5.279  1.00  0.00     0.041 C 
BRANCH  21  23
HETATM   23  C   UNL     1      44.449 -21.081   3.494  1.00  0.00     0.169 A 
HETATM   24  N   UNL     1      43.967 -19.951   2.941  1.00  0.00    -0.156 NA
HETATM   25  N   UNL     1      43.532 -20.400   1.752  1.00  0.00    -0.270 N 
HETATM   26  H   UNL     1      43.108 -19.752   1.098  1.00  0.00     0.190 HD
HETATM   27  C   UNL     1      43.749 -21.733   1.619  1.00  0.00     0.227 A 
HETATM   28  N   UNL     1      44.324 -22.197   2.702  1.00  0.00    -0.223 NA
ENDBRANCH  21  23
ENDBRANCH   1  21
TORSDOF 6
ENDMDL
MODEL 6
REMARK VINA RESULT:      -7.5      6.204      8.759
REMARK  6 active torsions:
REMARK  status: ('A' for Active; 'I' for Inactive)
REMARK    1  A    between atoms: C_2  and  N_3 
REMARK    2  A    between atoms: C_2  and  C_21 
REMARK       I    between atoms: N_3  and  C_4 
REMARK       I    between atoms: C_4  and  N_5 
REMARK    3  A    between atoms: N_5  and  C_6 
REMARK    4  A    between atoms: C_6  and  C_7 
REMARK    5  A    between atoms: C_10  and  O_11 
REMARK    6  A    between atoms: O_11  and  C_12 
ROOT
HETATM    1  N   UNL     1      40.965 -13.759  -1.506  1.00  0.00    -0.332 N 
HETATM    2  C   UNL     1      40.608 -13.761  -0.192  1.00  0.00     0.317 C 
HETATM    3  N   UNL     1      41.607 -14.254   0.602  1.00  0.00    -0.339 N 
HETATM    4  O   UNL     1      39.524 -13.380   0.227  1.00  0.00    -0.247 OA
HETATM    5  H   UNL     1      41.944 -13.807  -1.748  1.00  0.00     0.165 HD
HETATM    6  H   UNL     1      42.237 -14.900   0.152  1.00  0.00     0.164 HD
ENDROOT
BRANCH   3   7
HETATM    7  C   UNL     1      41.354 -14.466   2.007  1.00  0.00     0.162 C 
BRANCH   7   8
HETATM    8  C   UNL     1      41.953 -15.765   2.472  1.00  0.00    -0.040 A 
HETATM    9  C   UNL     1      43.168 -16.219   1.942  1.00  0.00     0.011 A 
HETATM   10  C   UNL     1      43.723 -17.436   2.363  1.00  0.00     0.037 A 
HETATM   11  C   UNL     1      43.063 -18.217   3.309  1.00  0.00     0.069 A 
HETATM   12  C   UNL     1      41.843 -17.774   3.824  1.00  0.00     0.037 A 
HETATM   13  C   UNL     1      41.289 -16.561   3.411  1.00  0.00     0.011 A 
BRANCH  11  14
HETATM   14  O   UNL     1      43.484 -19.415   3.813  1.00  0.00    -0.346 OA
BRANCH  14  15
HETATM   15  C   UNL     1      44.837 -19.836   3.606  1.00  0.00     0.129 C 
HETATM   16  C   UNL     1      45.356 -20.615   4.823  1.00  0.00     0.032 C 
HETATM   17  C   UNL     1      44.586 -21.916   5.049  1.00  0.00     0.002 C 
HETATM   18  C   UNL     1      44.592 -22.795   3.801  1.00  0.00     0.000 C 
HETATM   19  C   UNL     1      44.080 -22.042   2.579  1.00  0.00     0.002 C 
HETATM   20  C   UNL     1      44.845 -20.736   2.360  1.00  0.00     0.032 C 
ENDBRANCH  14  15
ENDBRANCH  11  14
ENDBRANCH   7   8
ENDBRANCH   3   7
BRANCH   1  21
HETATM   21  C   UNL     1      40.082 -13.254  -2.551  1.00  0.00     0.155 C 
HETATM   22  C   UNL     1      40.867 -12.528  -3.642  1.00  0.00     0.041 C 
BRANCH  21  23
HETATM   23  C   UNL     1      39.312 -14.415  -3.121  1.00  0.00     0.169 A 
HETATM   24  N   UNL     1      37.988 -14.583  -2.937  1.00  0.00    -0.156 NA
HETATM   25  N   UNL     1      37.766 -15.720  -3.617  1.00  0.00    -0.270 N 
HETATM   26  H   UNL     1      36.828 -16.103  -3.658  1.00  0.00     0.190 HD
HETATM   27  C   UNL     1      38.910 -16.195  -4.172  1.00  0.00     0.227 A 
HETATM   28  N   UNL     1      39.907 -15.397  -3.876  1.00  0.00    -0.223 NA
ENDBRANCH  21  23
ENDBRANCH   1  21
TORSDOF 6
ENDMDL
MODEL 7
REMARK VINA RESULT:      -7.4      5.887      9.023
REMARK  6 active torsions:
REMARK  status: ('A' for Active; 'I' for Inactive)
REMARK    1  A    between atoms: C_2  and  N_3 
REMARK    2  A    between atoms: C_2  and  C_21 
REMARK       I    between atoms: N_3  and  C_4 
REMARK       I    between atoms: C_4  and  N_5 
REMARK    3  A    between atoms: N_5  and  C_6 
REMARK    4  A    between atoms: C_6  and  C_7 
REMARK    5  A    between atoms: C_10  and  O_11 
REMARK    6  A    between atoms: O_11  and  C_12 
ROOT
HETATM    1  N   UNL     1      38.503 -14.351  -1.517  1.00  0.00    -0.332 N 
HETATM    2  C   UNL     1      39.159 -13.976  -0.384  1.00  0.00     0.317 C 
HETATM    3  N   UNL     1      38.750 -14.703   0.700  1.00  0.00    -0.339 N 
HETATM    4  O   UNL     1      40.000 -13.090  -0.338  1.00  0.00    -0.247 OA
HETATM    5  H   UNL     1      38.052 -15.255  -1.546  1.00  0.00     0.165 HD
HETATM    6  H   UNL     1      37.813 -15.071   0.645  1.00  0.00     0.164 HD
ENDROOT
BRANCH   3   7
HETATM    7  C   UNL     1      39.231 -14.345   2.014  1.00  0.00     0.162 C 
BRANCH   7   8
HETATM    8  C   UNL     1      40.135 -15.412   2.564  1.00  0.00    -0.040 A 
HETATM    9  C   UNL     1      40.354 -16.599   1.853  1.00  0.00     0.011 A 
HETATM   10  C   UNL     1      41.186 -17.601   2.369  1.00  0.00     0.037 A 
HETATM   11  C   UNL     1      41.800 -17.434   3.609  1.00  0.00     0.069 A 
HETATM   12  C   UNL     1      41.568 -16.259   4.328  1.00  0.00     0.037 A 
HETATM   13  C   UNL     1      40.743 -15.256   3.815  1.00  0.00     0.011 A 
BRANCH  11  14
HETATM   14  O   UNL     1      42.635 -18.318   4.231  1.00  0.00    -0.346 OA
BRANCH  14  15
HETATM   15  C   UNL     1      44.042 -18.270   3.969  1.00  0.00     0.129 C 
HETATM   16  C   UNL     1      44.808 -19.174   4.945  1.00  0.00     0.032 C 
HETATM   17  C   UNL     1      44.442 -20.649   4.777  1.00  0.00     0.002 C 
HETATM   18  C   UNL     1      44.642 -21.115   3.337  1.00  0.00     0.000 C 
HETATM   19  C   UNL     1      43.890 -20.232   2.349  1.00  0.00     0.002 C 
HETATM   20  C   UNL     1      44.250 -18.756   2.525  1.00  0.00     0.032 C 
ENDBRANCH  14  15
ENDBRANCH  11  14
ENDBRANCH   7   8
ENDBRANCH   3   7
BRANCH   1  21
HETATM   21  C   UNL     1      38.782 -13.746  -2.814  1.00  0.00     0.155 C 
HETATM   22  C   UNL     1      39.932 -14.455  -3.526  1.00  0.00     0.041 C 
BRANCH  21  23
HETATM   23  C   UNL     1      37.523 -13.797  -3.638  1.00  0.00     0.169 A 
HETATM   24  N   UNL     1      37.010 -14.940  -4.133  1.00  0.00    -0.156 NA
HETATM   25  N   UNL     1      35.919 -14.490  -4.772  1.00  0.00    -0.270 N 
HETATM   26  H   UNL     1      35.315 -15.146  -5.254  1.00  0.00     0.190 HD
HETATM   27  C   UNL     1      35.800 -13.142  -4.657  1.00  0.00     0.227 A 
HETATM   28  N   UNL     1      36.799 -12.671  -3.950  1.00  0.00    -0.223 NA
ENDBRANCH  21  23
ENDBRANCH   1  21
TORSDOF 6
ENDMDL
MODEL 8
REMARK VINA RESULT:      -7.4      1.982      2.694
REMARK  6 active torsions:
REMARK  status: ('A' for Active; 'I' for Inactive)
REMARK    1  A    between atoms: C_2  and  N_3 
REMARK    2  A    between atoms: C_2  and  C_21 
REMARK       I    between atoms: N_3  and  C_4 
REMARK       I    between atoms: C_4  and  N_5 
REMARK    3  A    between atoms: N_5  and  C_6 
REMARK    4  A    between atoms: C_6  and  C_7 
REMARK    5  A    between atoms: C_10  and  O_11 
REMARK    6  A    between atoms: O_11  and  C_12 
ROOT
HETATM    1  N   UNL     1      41.632 -11.016   9.248  1.00  0.00    -0.332 N 
HETATM    2  C   UNL     1      41.418 -10.768   7.927  1.00  0.00     0.317 C 
HETATM    3  N   UNL     1      40.505 -11.635   7.392  1.00  0.00    -0.339 N 
HETATM    4  O   UNL     1      41.981  -9.887   7.292  1.00  0.00    -0.247 OA
HETATM    5  H   UNL     1      40.945 -11.546   9.766  1.00  0.00     0.165 HD
HETATM    6  H   UNL     1      40.438 -12.530   7.851  1.00  0.00     0.164 HD
ENDROOT
BRANCH   3   7
HETATM    7  C   UNL     1      40.260 -11.615   5.969  1.00  0.00     0.162 C 
BRANCH   7   8
HETATM    8  C   UNL     1      40.820 -12.846   5.310  1.00  0.00    -0.040 A 
HETATM    9  C   UNL     1      42.041 -12.796   4.626  1.00  0.00     0.011 A 
HETATM   10  C   UNL     1      42.559 -13.938   4.000  1.00  0.00     0.037 A 
HETATM   11  C   UNL     1      41.856 -15.140   4.041  1.00  0.00     0.069 A 
HETATM   12  C   UNL     1      40.630 -15.187   4.708  1.00  0.00     0.037 A 
HETATM   13  C   UNL     1      40.112 -14.052   5.336  1.00  0.00     0.011 A 
BRANCH  11  14
HETATM   14  O   UNL     1      42.238 -16.327   3.484  1.00  0.00    -0.346 OA
BRANCH  14  15
HETATM   15  C   UNL     1      43.630 -16.652   3.391  1.00  0.00     0.129 C 
HETATM   16  C   UNL     1      43.927 -17.978   4.105  1.00  0.00     0.032 C 
HETATM   17  C   UNL     1      43.218 -19.162   3.446  1.00  0.00     0.002 C 
HETATM   18  C   UNL     1      43.553 -19.260   1.961  1.00  0.00     0.000 C 
HETATM   19  C   UNL     1      43.266 -17.953   1.230  1.00  0.00     0.002 C 
HETATM   20  C   UNL     1      43.968 -16.769   1.897  1.00  0.00     0.032 C 
ENDBRANCH  14  15
ENDBRANCH  11  14
ENDBRANCH   7   8
ENDBRANCH   3   7
BRANCH   1  21
HETATM   21  C   UNL     1      42.542 -10.210  10.054  1.00  0.00     0.155 C 
HETATM   22  C   UNL     1      41.972  -9.948  11.447  1.00  0.00     0.041 C 
BRANCH  21  23
HETATM   23  C   UNL     1      43.863 -10.927  10.136  1.00  0.00     0.169 A 
HETATM   24  N   UNL     1      44.139 -11.860  11.069  1.00  0.00    -0.156 NA
HETATM   25  N   UNL     1      45.395 -12.202  10.741  1.00  0.00    -0.270 N 
HETATM   26  H   UNL     1      45.880 -12.908  11.285  1.00  0.00     0.190 HD
HETATM   27  C   UNL     1      45.834 -11.499   9.665  1.00  0.00     0.227 A 
HETATM   28  N   UNL     1      44.892 -10.682   9.259  1.00  0.00    -0.223 NA
ENDBRANCH  21  23
ENDBRANCH   1  21
TORSDOF 6
ENDMDL
MODEL 9
REMARK VINA RESULT:      -7.3      2.864      3.655
REMARK  6 active torsions:
REMARK  status: ('A' for Active; 'I' for Inactive)
REMARK    1  A    between atoms: C_2  and  N_3 
REMARK    2  A    between atoms: C_2  and  C_21 
REMARK       I    between atoms: N_3  and  C_4 
REMARK       I    between atoms: C_4  and  N_5 
REMARK    3  A    between atoms: N_5  and  C_6 
REMARK    4  A    between atoms: C_6  and  C_7 
REMARK    5  A    between atoms: C_10  and  O_11 
REMARK    6  A    between atoms: O_11  and  C_12 
ROOT
HETATM    1  N   UNL     1      43.991 -13.175   6.955  1.00  0.00    -0.332 N 
HETATM    2  C   UNL     1      43.168 -14.218   6.658  1.00  0.00     0.317 C 
HETATM    3  N   UNL     1      42.289 -13.898   5.659  1.00  0.00    -0.339 N 
HETATM    4  O   UNL     1      43.201 -15.303   7.221  1.00  0.00    -0.247 OA
HETATM    5  H   UNL     1      44.107 -12.433   6.280  1.00  0.00     0.165 HD
HETATM    6  H   UNL     1      42.067 -12.918   5.576  1.00  0.00     0.164 HD
ENDROOT
BRANCH   3   7
HETATM    7  C   UNL     1      41.245 -14.832   5.310  1.00  0.00     0.162 C 
BRANCH   7   8
HETATM    8  C   UNL     1      41.822 -16.081   4.702  1.00  0.00    -0.040 A 
HETATM    9  C   UNL     1      42.639 -16.009   3.566  1.00  0.00     0.011 A 
HETATM   10  C   UNL     1      43.168 -17.171   2.989  1.00  0.00     0.037 A 
HETATM   11  C   UNL     1      42.876 -18.420   3.533  1.00  0.00     0.069 A 
HETATM   12  C   UNL     1      42.047 -18.495   4.654  1.00  0.00     0.037 A 
HETATM   13  C   UNL     1      41.521 -17.339   5.235  1.00  0.00     0.011 A 
BRANCH  11  14
HETATM   14  O   UNL     1      43.322 -19.630   3.082  1.00  0.00    -0.346 OA
BRANCH  14  15
HETATM   15  C   UNL     1      44.724 -19.920   3.096  1.00  0.00     0.129 C 
HETATM   16  C   UNL     1      45.246 -20.010   4.537  1.00  0.00     0.032 C 
HETATM   17  C   UNL     1      44.613 -21.167   5.310  1.00  0.00     0.002 C 
HETATM   18  C   UNL     1      44.800 -22.496   4.583  1.00  0.00     0.000 C 
HETATM   19  C   UNL     1      44.289 -22.430   3.149  1.00  0.00     0.002 C 
HETATM   20  C   UNL     1      44.915 -21.266   2.380  1.00  0.00     0.032 C 
ENDBRANCH  14  15
ENDBRANCH  11  14
ENDBRANCH   7   8
ENDBRANCH   3   7
BRANCH   1  21
HETATM   21  C   UNL     1      45.037 -13.273   7.967  1.00  0.00     0.155 C 
HETATM   22  C   UNL     1      46.388 -12.813   7.421  1.00  0.00     0.041 C 
BRANCH  21  23
HETATM   23  C   UNL     1      44.624 -12.445   9.155  1.00  0.00     0.169 A 
HETATM   24  N   UNL     1      44.281 -11.145   9.064  1.00  0.00    -0.156 NA
HETATM   25  N   UNL     1      43.997 -10.854  10.344  1.00  0.00    -0.270 N 
HETATM   26  H   UNL     1      43.699  -9.917  10.590  1.00  0.00     0.190 HD
HETATM   27  C   UNL     1      44.167 -11.937  11.146  1.00  0.00     0.227 A 
HETATM   28  N   UNL     1      44.566 -12.958  10.428  1.00  0.00    -0.223 NA
ENDBRANCH  21  23
ENDBRANCH   1  21
TORSDOF 6
ENDMDL
MODEL 10
REMARK VINA RESULT:      -7.1      4.022     10.468
REMARK  6 active torsions:
REMARK  status: ('A' for Active; 'I' for Inactive)
REMARK    1  A    between atoms: C_2  and  N_3 
REMARK    2  A    between atoms: C_2  and  C_21 
REMARK       I    between atoms: N_3  and  C_4 
REMARK       I    between atoms: C_4  and  N_5 
REMARK    3  A    between atoms: N_5  and  C_6 
REMARK    4  A    between atoms: C_6  and  C_7 
REMARK    5  A    between atoms: C_10  and  O_11 
REMARK    6  A    between atoms: O_11  and  C_12 
ROOT
HETATM    1  N   UNL     1      43.274 -15.240   5.856  1.00  0.00    -0.332 N 
HETATM    2  C   UNL     1      43.960 -14.916   6.986  1.00  0.00     0.317 C 
HETATM    3  N   UNL     1      44.227 -13.575   7.048  1.00  0.00    -0.339 N 
HETATM    4  O   UNL     1      44.307 -15.724   7.836  1.00  0.00    -0.247 OA
HETATM    5  H   UNL     1      42.779 -14.514   5.357  1.00  0.00     0.165 HD
HETATM    6  H   UNL     1      44.283 -13.104   6.158  1.00  0.00     0.164 HD
ENDROOT
BRANCH   3   7
HETATM    7  C   UNL     1      45.071 -13.070   8.104  1.00  0.00     0.162 C 
BRANCH   7   8
HETATM    8  C   UNL     1      44.266 -12.299   9.114  1.00  0.00    -0.040 A 
HETATM    9  C   UNL     1      43.357 -11.316   8.701  1.00  0.00     0.011 A 
HETATM   10  C   UNL     1      42.615 -10.588   9.640  1.00  0.00     0.037 A 
HETATM   11  C   UNL     1      42.782 -10.824  11.003  1.00  0.00     0.069 A 
HETATM   12  C   UNL     1      43.701 -11.791  11.416  1.00  0.00     0.037 A 
HETATM   13  C   UNL     1      44.440 -12.522  10.484  1.00  0.00     0.011 A 
BRANCH  11  14
HETATM   14  O   UNL     1      42.128 -10.197  12.025  1.00  0.00    -0.346 OA
BRANCH  14  15
HETATM   15  C   UNL     1      42.649  -8.973  12.555  1.00  0.00     0.129 C 
HETATM   16  C   UNL     1      41.524  -7.950  12.767  1.00  0.00     0.032 C 
HETATM   17  C   UNL     1      40.510  -8.413  13.813  1.00  0.00     0.002 C 
HETATM   18  C   UNL     1      41.187  -8.755  15.138  1.00  0.00     0.000 C 
HETATM   19  C   UNL     1      42.309  -9.770  14.952  1.00  0.00     0.002 C 
HETATM   20  C   UNL     1      43.317  -9.309  13.898  1.00  0.00     0.032 C 
ENDBRANCH  14  15
ENDBRANCH  11  14
ENDBRANCH   7   8
ENDBRANCH   3   7
BRANCH   1  21
HETATM   21  C   UNL     1      42.845 -16.604   5.570  1.00  0.00     0.155 C 
HETATM   22  C   UNL     1      41.333 -16.759   5.725  1.00  0.00     0.041 C 
BRANCH  21  23
HETATM   23  C   UNL     1      43.284 -16.954   4.173  1.00  0.00     0.169 A 
HETATM   24  N   UNL     1      43.629 -18.202   3.799  1.00  0.00    -0.156 NA
HETATM   25  N   UNL     1      43.930 -18.019   2.503  1.00  0.00    -0.270 N 
HETATM   26  H   UNL     1      44.231 -18.809   1.943  1.00  0.00     0.190 HD
HETATM   27  C   UNL     1      43.770 -16.721   2.137  1.00  0.00     0.227 A 
HETATM   28  N   UNL     1      43.365 -16.020   3.169  1.00  0.00    -0.223 NA
ENDBRANCH  21  23
ENDBRANCH   1  21
TORSDOF 6
ENDMDL
