MODEL 1
REMARK VINA RESULT:      -8.3      0.000      0.000
REMARK  8 active torsions:
REMARK  status: ('A' for Active; 'I' for Inactive)
REMARK    1  A    between atoms: C_2  and  O_3 
REMARK    2  A    between atoms: C_2  and  C_4 
REMARK    3  A    between atoms: C_2  and  C_29 
REMARK    4  A    between atoms: N_11  and  C_13 
REMARK    5  A    between atoms: C_13  and  C_14 
REMARK    6  A    between atoms: C_16  and  S_17 
REMARK    7  A    between atoms: S_17  and  C_18 
REMARK    8  A    between atoms: C_29  and  N_30 
ROOT
HETATM    1  C   UNL     1      43.776 -18.487   6.649  1.00  0.00    -0.022 A 
HETATM    2  C   UNL     1      44.314 -18.586   5.346  1.00  0.00     0.022 A 
HETATM    3  C   UNL     1      44.717 -19.809   4.780  1.00  0.00     0.002 A 
HETATM    4  C   UNL     1      44.550 -20.969   5.529  1.00  0.00     0.076 A 
HETATM    5  O   UNL     1      44.937 -22.190   5.056  1.00  0.00    -0.349 OA
HETATM    6  C   UNL     1      44.127 -22.612   3.953  1.00  0.00     0.203 C 
HETATM    7  C   UNL     1      44.729 -22.162   2.620  1.00  0.00     0.262 C 
HETATM    8  N   UNL     1      44.610 -20.668   2.382  1.00  0.00    -0.059 N 
HETATM    9  H   UNL     1      45.121 -20.488   1.510  1.00  0.00     0.280 HD
HETATM   10  C   UNL     1      45.353 -19.848   3.418  1.00  0.00     0.276 C 
HETATM   11  C   UNL     1      44.037 -20.911   6.819  1.00  0.00     0.038 A 
HETATM   12  C   UNL     1      43.640 -19.686   7.369  1.00  0.00     0.013 A 
ENDROOT
BRANCH   8  13
HETATM   13  C   UNL     1      43.195 -20.202   2.111  1.00  0.00     0.299 C 
BRANCH  13  14
HETATM   14  C   UNL     1      43.089 -18.736   1.896  1.00  0.00     0.080 A 
HETATM   15  O   UNL     1      42.200 -18.067   2.684  1.00  0.00    -0.306 OA
HETATM   16  C   UNL     1      42.286 -16.736   2.373  1.00  0.00     0.120 A 
HETATM   17  C   UNL     1      43.197 -16.571   1.349  1.00  0.00     0.047 A 
HETATM   18  C   UNL     1      43.719 -17.853   1.046  1.00  0.00     0.038 A 
BRANCH  16  19
HETATM   19  S   UNL     1      41.345 -15.511   3.181  1.00  0.00    -0.025 SA
BRANCH  19  20
HETATM   20  C   UNL     1      41.707 -14.197   2.118  1.00  0.00     0.197 A 
HETATM   21  N   UNL     1      40.980 -13.903   0.998  1.00  0.00    -0.322 N 
HETATM   22  C   UNL     1      39.842 -14.598   0.455  1.00  0.00     0.159 C 
HETATM   23  C   UNL     1      41.568 -12.794   0.462  1.00  0.00     0.235 A 
HETATM   24  N   UNL     1      42.576 -12.418   1.219  1.00  0.00    -0.143 NA
HETATM   25  N   UNL     1      42.667 -13.309   2.259  1.00  0.00    -0.123 NA
ENDBRANCH  19  20
ENDBRANCH  16  19
ENDBRANCH  13  14
ENDBRANCH   8  13
BRANCH   1  26
HETATM   26  C   UNL     1      43.327 -17.120   7.206  1.00  0.00     0.105 C 
HETATM   27  C   UNL     1      41.817 -16.892   7.001  1.00  0.00     0.053 C 
BRANCH  26  28
HETATM   28  O   UNL     1      43.571 -17.149   8.620  1.00  0.00    -0.384 OA
HETATM   29  H   UNL     1      43.085 -16.412   9.035  1.00  0.00     0.211 HD
ENDBRANCH  26  28
BRANCH  26  30
HETATM   30  C   UNL     1      44.128 -15.906   6.606  1.00  0.00     0.276 C 
BRANCH  30  31
HETATM   31  N   UNL     1      43.674 -14.513   7.066  1.00  0.00    -0.076 N 
HETATM   32  H   UNL     1      42.912 -14.621   7.744  1.00  0.00     0.279 HD
HETATM   33  C   UNL     1      44.760 -13.724   7.754  1.00  0.00     0.269 C 
HETATM   34  C   UNL     1      43.093 -13.732   5.916  1.00  0.00     0.269 C 
ENDBRANCH  30  31
ENDBRANCH  26  30
ENDBRANCH   1  26
TORSDOF 8
ENDMDL
MODEL 2
REMARK VINA RESULT:      -7.8      3.168      7.170
REMARK  8 active torsions:
REMARK  status: ('A' for Active; 'I' for Inactive)
REMARK    1  A    between atoms: C_2  and  O_3 
REMARK    2  A    between atoms: C_2  and  C_4 
REMARK    3  A    between atoms: C_2  and  C_29 
REMARK    4  A    between atoms: N_11  and  C_13 
REMARK    5  A    between atoms: C_13  and  C_14 
REMARK    6  A    between atoms: C_16  and  S_17 
REMARK    7  A    between atoms: S_17  and  C_18 
REMARK    8  A    between atoms: C_29  and  N_30 
ROOT
HETATM    1  C   UNL     1      41.765 -17.363   2.743  1.00  0.00    -0.022 A 
HETATM    2  C   UNL     1      41.690 -16.805   4.039  1.00  0.00     0.022 A 
HETATM    3  C   UNL     1      42.414 -17.317   5.131  1.00  0.00     0.002 A 
HETATM    4  C   UNL     1      43.257 -18.402   4.913  1.00  0.00     0.076 A 
HETATM    5  O   UNL     1      43.974 -18.968   5.927  1.00  0.00    -0.349 OA
HETATM    6  C   UNL     1      44.995 -18.086   6.411  1.00  0.00     0.203 C 
HETATM    7  C   UNL     1      44.480 -17.224   7.566  1.00  0.00     0.262 C 
HETATM    8  N   UNL     1      43.498 -16.155   7.124  1.00  0.00    -0.059 N 
HETATM    9  H   UNL     1      43.168 -15.712   7.990  1.00  0.00     0.280 HD
HETATM   10  C   UNL     1      42.240 -16.733   6.506  1.00  0.00     0.276 C 
HETATM   11  C   UNL     1      43.347 -18.987   3.655  1.00  0.00     0.038 A 
HETATM   12  C   UNL     1      42.620 -18.465   2.578  1.00  0.00     0.013 A 
ENDROOT
BRANCH   8  13
HETATM   13  C   UNL     1      44.131 -15.033   6.327  1.00  0.00     0.299 C 
BRANCH  13  14
HETATM   14  C   UNL     1      44.809 -14.020   7.174  1.00  0.00     0.080 A 
HETATM   15  O   UNL     1      44.199 -13.702   8.351  1.00  0.00    -0.306 OA
HETATM   16  C   UNL     1      44.996 -12.798   9.004  1.00  0.00     0.120 A 
HETATM   17  C   UNL     1      46.089 -12.508   8.212  1.00  0.00     0.047 A 
HETATM   18  C   UNL     1      45.975 -13.297   7.040  1.00  0.00     0.038 A 
BRANCH  16  19
HETATM   19  S   UNL     1      44.608 -12.156  10.577  1.00  0.00    -0.025 SA
BRANCH  19  20
HETATM   20  C   UNL     1      43.301 -11.131  10.095  1.00  0.00     0.197 A 
HETATM   21  N   UNL     1      42.277 -10.765  10.922  1.00  0.00    -0.322 N 
HETATM   22  C   UNL     1      42.040 -11.154  12.288  1.00  0.00     0.159 C 
HETATM   23  C   UNL     1      41.483  -9.941  10.178  1.00  0.00     0.235 A 
HETATM   24  N   UNL     1      42.000  -9.794   8.978  1.00  0.00    -0.143 NA
HETATM   25  N   UNL     1      43.144 -10.551   8.925  1.00  0.00    -0.123 NA
ENDBRANCH  19  20
ENDBRANCH  16  19
ENDBRANCH  13  14
ENDBRANCH   8  13
BRANCH   1  26
HETATM   26  C   UNL     1      40.967 -16.740   1.579  1.00  0.00     0.105 C 
HETATM   27  C   UNL     1      41.883 -15.956   0.619  1.00  0.00     0.053 C 
BRANCH  26  28
HETATM   28  O   UNL     1      40.397 -17.829   0.838  1.00  0.00    -0.384 OA
HETATM   29  H   UNL     1      40.366 -17.582  -0.105  1.00  0.00     0.211 HD
ENDBRANCH  26  28
BRANCH  26  30
HETATM   30  C   UNL     1      39.786 -15.814   2.053  1.00  0.00     0.276 C 
BRANCH  30  31
HETATM   31  N   UNL     1      39.809 -14.375   1.518  1.00  0.00    -0.076 N 
HETATM   32  H   UNL     1      40.662 -14.242   0.963  1.00  0.00     0.279 HD
HETATM   33  C   UNL     1      38.646 -14.053   0.612  1.00  0.00     0.269 C 
HETATM   34  C   UNL     1      39.896 -13.383   2.649  1.00  0.00     0.269 C 
ENDBRANCH  30  31
ENDBRANCH  26  30
ENDBRANCH   1  26
TORSDOF 8
ENDMDL
MODEL 3
REMARK VINA RESULT:      -7.7      3.310      4.614
REMARK  8 active torsions:
REMARK  status: ('A' for Active; 'I' for Inactive)
REMARK    1  A    between atoms: C_2  and  O_3 
REMARK    2  A    between atoms: C_2  and  C_4 
REMARK    3  A    between atoms: C_2  and  C_29 
REMARK    4  A    between atoms: N_11  and  C_13 
REMARK    5  A    between atoms: C_13  and  C_14 
REMARK    6  A    between atoms: C_16  and  S_17 
REMARK    7  A    between atoms: S_17  and  C_18 
REMARK    8  A    between atoms: C_29  and  N_30 
ROOT
HETATM    1  C   UNL     1      41.826 -14.888   5.293  1.00  0.00    -0.022 A 
HETATM    2  C   UNL     1      42.336 -15.065   3.987  1.00  0.00     0.022 A 
HETATM    3  C   UNL     1      43.134 -16.164   3.623  1.00  0.00     0.002 A 
HETATM    4  C   UNL     1      43.407 -17.128   4.588  1.00  0.00     0.076 A 
HETATM    5  O   UNL     1      44.191 -18.212   4.317  1.00  0.00    -0.349 OA
HETATM    6  C   UNL     1      43.560 -19.106   3.393  1.00  0.00     0.203 C 
HETATM    7  C   UNL     1      43.933 -18.765   1.949  1.00  0.00     0.262 C 
HETATM    8  N   UNL     1      43.286 -17.486   1.449  1.00  0.00    -0.059 N 
HETATM    9  H   UNL     1      43.680 -17.327   0.514  1.00  0.00     0.280 HD
HETATM   10  C   UNL     1      43.713 -16.265   2.239  1.00  0.00     0.276 C 
HETATM   11  C   UNL     1      42.935 -16.983   5.888  1.00  0.00     0.038 A 
HETATM   12  C   UNL     1      42.141 -15.883   6.233  1.00  0.00     0.013 A 
ENDROOT
BRANCH   8  13
HETATM   13  C   UNL     1      41.792 -17.601   1.230  1.00  0.00     0.299 C 
BRANCH  13  14
HETATM   14  C   UNL     1      41.179 -16.361   0.691  1.00  0.00     0.080 A 
HETATM   15  O   UNL     1      41.581 -15.973  -0.553  1.00  0.00    -0.306 OA
HETATM   16  C   UNL     1      40.872 -14.849  -0.889  1.00  0.00     0.120 A 
HETATM   17  C   UNL     1      40.057 -14.499   0.168  1.00  0.00     0.047 A 
HETATM   18  C   UNL     1      40.246 -15.472   1.180  1.00  0.00     0.038 A 
BRANCH  16  19
HETATM   19  S   UNL     1      41.048 -14.044  -2.425  1.00  0.00    -0.025 SA
BRANCH  19  20
HETATM   20  C   UNL     1      39.742 -14.823  -3.249  1.00  0.00     0.197 A 
HETATM   21  N   UNL     1      38.455 -14.363  -3.240  1.00  0.00    -0.322 N 
HETATM   22  C   UNL     1      37.913 -13.218  -2.555  1.00  0.00     0.159 C 
HETATM   23  C   UNL     1      37.751 -15.233  -4.020  1.00  0.00     0.235 A 
HETATM   24  N   UNL     1      38.559 -16.155  -4.496  1.00  0.00    -0.143 NA
HETATM   25  N   UNL     1      39.814 -15.900  -4.001  1.00  0.00    -0.123 NA
ENDBRANCH  19  20
ENDBRANCH  16  19
ENDBRANCH  13  14
ENDBRANCH   8  13
BRANCH   1  26
HETATM   26  C   UNL     1      40.934 -13.674   5.624  1.00  0.00     0.105 C 
HETATM   27  C   UNL     1      39.981 -13.336   4.462  1.00  0.00     0.053 C 
BRANCH  26  28
HETATM   28  O   UNL     1      40.126 -14.048   6.750  1.00  0.00    -0.384 OA
HETATM   29  H   UNL     1      39.713 -13.245   7.118  1.00  0.00     0.211 HD
ENDBRANCH  26  28
BRANCH  26  30
HETATM   30  C   UNL     1      41.748 -12.389   6.026  1.00  0.00     0.276 C 
BRANCH  30  31
HETATM   31  N   UNL     1      41.221 -11.617   7.244  1.00  0.00    -0.076 N 
HETATM   32  H   UNL     1      40.726 -12.270   7.861  1.00  0.00     0.279 HD
HETATM   33  C   UNL     1      42.312 -10.980   8.070  1.00  0.00     0.269 C 
HETATM   34  C   UNL     1      40.199 -10.591   6.828  1.00  0.00     0.269 C 
ENDBRANCH  30  31
ENDBRANCH  26  30
ENDBRANCH   1  26
TORSDOF 8
ENDMDL
MODEL 4
REMARK VINA RESULT:      -7.7      2.755      6.218
REMARK  8 active torsions:
REMARK  status: ('A' for Active; 'I' for Inactive)
REMARK    1  A    between atoms: C_2  and  O_3 
REMARK    2  A    between atoms: C_2  and  C_4 
REMARK    3  A    between atoms: C_2  and  C_29 
REMARK    4  A    between atoms: N_11  and  C_13 
REMARK    5  A    between atoms: C_13  and  C_14 
REMARK    6  A    between atoms: C_16  and  S_17 
REMARK    7  A    between atoms: S_17  and  C_18 
REMARK    8  A    between atoms: C_29  and  N_30 
ROOT
HETATM    1  C   UNL     1      42.682 -17.951   2.987  1.00  0.00    -0.022 A 
HETATM    2  C   UNL     1      42.217 -17.196   4.087  1.00  0.00     0.022 A 
HETATM    3  C   UNL     1      42.457 -17.567   5.422  1.00  0.00     0.002 A 
HETATM    4  C   UNL     1      43.209 -18.713   5.662  1.00  0.00     0.076 A 
HETATM    5  O   UNL     1      43.465 -19.149   6.930  1.00  0.00    -0.349 OA
HETATM    6  C   UNL     1      44.336 -18.255   7.632  1.00  0.00     0.203 C 
HETATM    7  C   UNL     1      43.541 -17.199   8.403  1.00  0.00     0.262 C 
HETATM    8  N   UNL     1      42.889 -16.164   7.505  1.00  0.00    -0.059 N 
HETATM    9  H   UNL     1      42.325 -15.577   8.130  1.00  0.00     0.280 HD
HETATM   10  C   UNL     1      41.875 -16.768   6.555  1.00  0.00     0.276 C 
HETATM   11  C   UNL     1      43.672 -19.490   4.606  1.00  0.00     0.038 A 
HETATM   12  C   UNL     1      43.425 -19.106   3.283  1.00  0.00     0.013 A 
ENDROOT
BRANCH   8  13
HETATM   13  C   UNL     1      43.872 -15.213   6.854  1.00  0.00     0.299 C 
BRANCH  13  14
HETATM   14  C   UNL     1      43.222 -14.208   5.975  1.00  0.00     0.080 A 
HETATM   15  O   UNL     1      42.281 -13.410   6.553  1.00  0.00    -0.306 OA
HETATM   16  C   UNL     1      41.842 -12.526   5.603  1.00  0.00     0.120 A 
HETATM   17  C   UNL     1      42.473 -12.801   4.407  1.00  0.00     0.047 A 
HETATM   18  C   UNL     1      43.366 -13.875   4.645  1.00  0.00     0.038 A 
BRANCH  16  19
HETATM   19  S   UNL     1      40.657 -11.290   5.934  1.00  0.00    -0.025 SA
BRANCH  19  20
HETATM   20  C   UNL     1      41.267 -10.788   7.472  1.00  0.00     0.197 A 
HETATM   21  N   UNL     1      40.556 -10.873   8.636  1.00  0.00    -0.322 N 
HETATM   22  C   UNL     1      39.205 -11.333   8.835  1.00  0.00     0.159 C 
HETATM   23  C   UNL     1      41.392 -10.408   9.610  1.00  0.00     0.235 A 
HETATM   24  N   UNL     1      42.550 -10.082   9.079  1.00  0.00    -0.143 NA
HETATM   25  N   UNL     1      42.467 -10.314   7.729  1.00  0.00    -0.123 NA
ENDBRANCH  19  20
ENDBRANCH  16  19
ENDBRANCH  13  14
ENDBRANCH   8  13
BRANCH   1  26
HETATM   26  C   UNL     1      42.408 -17.478   1.544  1.00  0.00     0.105 C 
HETATM   27  C   UNL     1      43.641 -17.675   0.639  1.00  0.00     0.053 C 
BRANCH  26  28
HETATM   28  O   UNL     1      41.358 -18.309   1.028  1.00  0.00    -0.384 OA
HETATM   29  H   UNL     1      41.292 -19.109   1.582  1.00  0.00     0.211 HD
ENDBRANCH  26  28
BRANCH  26  30
HETATM   30  C   UNL     1      41.924 -15.984   1.455  1.00  0.00     0.276 C 
BRANCH  30  31
HETATM   31  N   UNL     1      40.515 -15.770   0.885  1.00  0.00    -0.076 N 
HETATM   32  H   UNL     1      40.193 -16.647   0.460  1.00  0.00     0.279 HD
HETATM   33  C   UNL     1      39.494 -15.393   1.930  1.00  0.00     0.269 C 
HETATM   34  C   UNL     1      40.536 -14.758  -0.231  1.00  0.00     0.269 C 
ENDBRANCH  30  31
ENDBRANCH  26  30
ENDBRANCH   1  26
TORSDOF 8
ENDMDL
MODEL 5
REMARK VINA RESULT:      -7.7      2.992      7.050
REMARK  8 active torsions:
REMARK  status: ('A' for Active; 'I' for Inactive)
REMARK    1  A    between atoms: C_2  and  O_3 
REMARK    2  A    between atoms: C_2  and  C_4 
REMARK    3  A    between atoms: C_2  and  C_29 
REMARK    4  A    between atoms: N_11  and  C_13 
REMARK    5  A    between atoms: C_13  and  C_14 
REMARK    6  A    between atoms: C_16  and  S_17 
REMARK    7  A    between atoms: S_17  and  C_18 
REMARK    8  A    between atoms: C_29  and  N_30 
ROOT
HETATM    1  C   UNL     1      40.003 -12.638   4.516  1.00  0.00    -0.022 A 
HETATM    2  C   UNL     1      39.726 -13.732   3.666  1.00  0.00     0.022 A 
HETATM    3  C   UNL     1      39.276 -13.573   2.343  1.00  0.00     0.002 A 
HETATM    4  C   UNL     1      39.126 -12.282   1.848  1.00  0.00     0.076 A 
HETATM    5  O   UNL     1      38.673 -12.047   0.582  1.00  0.00    -0.349 OA
HETATM    6  C   UNL     1      39.619 -12.472  -0.407  1.00  0.00     0.203 C 
HETATM    7  C   UNL     1      39.363 -13.920  -0.831  1.00  0.00     0.262 C 
HETATM    8  N   UNL     1      39.735 -14.933   0.236  1.00  0.00    -0.059 N 
HETATM    9  H   UNL     1      39.438 -15.843  -0.135  1.00  0.00     0.280 HD
HETATM   10  C   UNL     1      38.923 -14.771   1.506  1.00  0.00     0.276 C 
HETATM   11  C   UNL     1      39.376 -11.180   2.658  1.00  0.00     0.038 A 
HETATM   12  C   UNL     1      39.824 -11.355   3.973  1.00  0.00     0.013 A 
ENDROOT
BRANCH   8  13
HETATM   13  C   UNL     1      41.227 -15.068   0.458  1.00  0.00     0.299 C 
BRANCH  13  14
HETATM   14  C   UNL     1      41.608 -16.329   1.143  1.00  0.00     0.080 A 
HETATM   15  O   UNL     1      42.644 -16.254   2.027  1.00  0.00    -0.306 OA
HETATM   16  C   UNL     1      42.807 -17.495   2.585  1.00  0.00     0.120 A 
HETATM   17  C   UNL     1      41.902 -18.367   2.015  1.00  0.00     0.047 A 
HETATM   18  C   UNL     1      41.126 -17.620   1.094  1.00  0.00     0.038 A 
BRANCH  16  19
HETATM   19  S   UNL     1      44.004 -17.833   3.807  1.00  0.00    -0.025 SA
BRANCH  19  20
HETATM   20  C   UNL     1      43.037 -17.460   5.191  1.00  0.00     0.197 A 
HETATM   21  N   UNL     1      43.442 -17.671   6.479  1.00  0.00    -0.322 N 
HETATM   22  C   UNL     1      44.670 -18.253   6.954  1.00  0.00     0.159 C 
HETATM   23  C   UNL     1      42.417 -17.223   7.262  1.00  0.00     0.235 A 
HETATM   24  N   UNL     1      41.456 -16.745   6.501  1.00  0.00    -0.143 NA
HETATM   25  N   UNL     1      41.846 -16.903   5.195  1.00  0.00    -0.123 NA
ENDBRANCH  19  20
ENDBRANCH  16  19
ENDBRANCH  13  14
ENDBRANCH   8  13
BRANCH   1  26
HETATM   26  C   UNL     1      40.520 -12.875   5.950  1.00  0.00     0.105 C 
HETATM   27  C   UNL     1      39.799 -11.972   6.969  1.00  0.00     0.053 C 
BRANCH  26  28
HETATM   28  O   UNL     1      40.206 -14.236   6.284  1.00  0.00    -0.384 OA
HETATM   29  H   UNL     1      40.035 -14.290   7.242  1.00  0.00     0.211 HD
ENDBRANCH  26  28
BRANCH  26  30
HETATM   30  C   UNL     1      42.076 -12.694   6.095  1.00  0.00     0.276 C 
BRANCH  30  31
HETATM   31  N   UNL     1      42.932 -13.895   5.671  1.00  0.00    -0.076 N 
HETATM   32  H   UNL     1      42.360 -14.746   5.727  1.00  0.00     0.279 HD
HETATM   33  C   UNL     1      43.436 -13.804   4.252  1.00  0.00     0.269 C 
HETATM   34  C   UNL     1      44.074 -14.106   6.631  1.00  0.00     0.269 C 
ENDBRANCH  30  31
ENDBRANCH  26  30
ENDBRANCH   1  26
TORSDOF 8
ENDMDL
MODEL 6
REMARK VINA RESULT:      -7.5      3.096      6.243
REMARK  8 active torsions:
REMARK  status: ('A' for Active; 'I' for Inactive)
REMARK    1  A    between atoms: C_2  and  O_3 
REMARK    2  A    between atoms: C_2  and  C_4 
REMARK    3  A    between atoms: C_2  and  C_29 
REMARK    4  A    between atoms: N_11  and  C_13 
REMARK    5  A    between atoms: C_13  and  C_14 
REMARK    6  A    between atoms: C_16  and  S_17 
REMARK    7  A    between atoms: S_17  and  C_18 
REMARK    8  A    between atoms: C_29  and  N_30 
ROOT
HETATM    1  C   UNL     1      43.387 -16.491   6.396  1.00  0.00    -0.022 A 
HETATM    2  C   UNL     1      42.048 -16.213   6.039  1.00  0.00     0.022 A 
HETATM    3  C   UNL     1      41.579 -14.908   5.802  1.00  0.00     0.002 A 
HETATM    4  C   UNL     1      42.483 -13.855   5.898  1.00  0.00     0.076 A 
HETATM    5  O   UNL     1      42.097 -12.560   5.704  1.00  0.00    -0.349 OA
HETATM    6  C   UNL     1      41.733 -12.314   4.340  1.00  0.00     0.203 C 
HETATM    7  C   UNL     1      40.238 -12.551   4.115  1.00  0.00     0.262 C 
HETATM    8  N   UNL     1      39.850 -14.017   4.154  1.00  0.00    -0.059 N 
HETATM    9  H   UNL     1      38.826 -14.031   4.079  1.00  0.00     0.280 HD
HETATM   10  C   UNL     1      40.127 -14.661   5.498  1.00  0.00     0.276 C 
HETATM   11  C   UNL     1      43.805 -14.087   6.260  1.00  0.00     0.038 A 
HETATM   12  C   UNL     1      44.256 -15.391   6.493  1.00  0.00     0.013 A 
ENDROOT
BRANCH   8  13
HETATM   13  C   UNL     1      40.342 -14.813   2.964  1.00  0.00     0.299 C 
BRANCH  13  14
HETATM   14  C   UNL     1      39.682 -14.433   1.689  1.00  0.00     0.080 A 
HETATM   15  O   UNL     1      40.495 -13.989   0.689  1.00  0.00    -0.306 OA
HETATM   16  C   UNL     1      39.712 -13.741  -0.407  1.00  0.00     0.120 A 
HETATM   17  C   UNL     1      38.393 -13.982  -0.081  1.00  0.00     0.047 A 
HETATM   18  C   UNL     1      38.371 -14.434   1.262  1.00  0.00     0.038 A 
BRANCH  16  19
HETATM   19  S   UNL     1      40.361 -13.193  -1.930  1.00  0.00    -0.025 SA
BRANCH  19  20
HETATM   20  C   UNL     1      39.805 -14.508  -2.907  1.00  0.00     0.197 A 
HETATM   21  N   UNL     1      38.593 -14.526  -3.538  1.00  0.00    -0.322 N 
HETATM   22  C   UNL     1      37.546 -13.538  -3.506  1.00  0.00     0.159 C 
HETATM   23  C   UNL     1      38.553 -15.709  -4.218  1.00  0.00     0.235 A 
HETATM   24  N   UNL     1      39.680 -16.363  -4.034  1.00  0.00    -0.143 NA
HETATM   25  N   UNL     1      40.466 -15.607  -3.200  1.00  0.00    -0.123 NA
ENDBRANCH  19  20
ENDBRANCH  16  19
ENDBRANCH  13  14
ENDBRANCH   8  13
BRANCH   1  26
HETATM   26  C   UNL     1      43.849 -17.946   6.618  1.00  0.00     0.105 C 
HETATM   27  C   UNL     1      45.381 -18.040   6.757  1.00  0.00     0.053 C 
BRANCH  26  28
HETATM   28  O   UNL     1      43.276 -18.378   7.862  1.00  0.00    -0.384 OA
HETATM   29  H   UNL     1      42.884 -19.261   7.734  1.00  0.00     0.211 HD
ENDBRANCH  26  28
BRANCH  26  30
HETATM   30  C   UNL     1      43.361 -18.936   5.497  1.00  0.00     0.276 C 
BRANCH  30  31
HETATM   31  N   UNL     1      44.348 -19.185   4.348  1.00  0.00    -0.076 N 
HETATM   32  H   UNL     1      45.202 -18.643   4.522  1.00  0.00     0.279 HD
HETATM   33  C   UNL     1      44.769 -20.628   4.218  1.00  0.00     0.269 C 
HETATM   34  C   UNL     1      43.794 -18.671   3.044  1.00  0.00     0.269 C 
ENDBRANCH  30  31
ENDBRANCH  26  30
ENDBRANCH   1  26
TORSDOF 8
ENDMDL
MODEL 7
REMARK VINA RESULT:      -7.4      3.281      7.398
REMARK  8 active torsions:
REMARK  status: ('A' for Active; 'I' for Inactive)
REMARK    1  A    between atoms: C_2  and  O_3 
REMARK    2  A    between atoms: C_2  and  C_4 
REMARK    3  A    between atoms: C_2  and  C_29 
REMARK    4  A    between atoms: N_11  and  C_13 
REMARK    5  A    between atoms: C_13  and  C_14 
REMARK    6  A    between atoms: C_16  and  S_17 
REMARK    7  A    between atoms: S_17  and  C_18 
REMARK    8  A    between atoms: C_29  and  N_30 
ROOT
HETATM    1  C   UNL     1      43.596 -18.100   4.138  1.00  0.00    -0.022 A 
HETATM    2  C   UNL     1      43.592 -16.699   4.324  1.00  0.00     0.022 A 
HETATM    3  C   UNL     1      42.921 -15.818   3.457  1.00  0.00     0.002 A 
HETATM    4  C   UNL     1      42.211 -16.357   2.389  1.00  0.00     0.076 A 
HETATM    5  O   UNL     1      41.554 -15.565   1.493  1.00  0.00    -0.349 OA
HETATM    6  C   UNL     1      40.433 -14.903   2.092  1.00  0.00     0.203 C 
HETATM    7  C   UNL     1      40.833 -13.538   2.655  1.00  0.00     0.262 C 
HETATM    8  N   UNL     1      41.689 -13.632   3.905  1.00  0.00    -0.059 N 
HETATM    9  H   UNL     1      41.957 -12.666   4.126  1.00  0.00     0.280 HD
HETATM   10  C   UNL     1      43.011 -14.331   3.658  1.00  0.00     0.276 C 
HETATM   11  C   UNL     1      42.203 -17.729   2.165  1.00  0.00     0.038 A 
HETATM   12  C   UNL     1      42.875 -18.593   3.037  1.00  0.00     0.013 A 
ENDROOT
BRANCH   8  13
HETATM   13  C   UNL     1      40.938 -14.121   5.126  1.00  0.00     0.299 C 
BRANCH  13  14
HETATM   14  C   UNL     1      40.491 -13.023   6.020  1.00  0.00     0.080 A 
HETATM   15  O   UNL     1      41.426 -12.092   6.357  1.00  0.00    -0.306 OA
HETATM   16  C   UNL     1      40.813 -11.146   7.136  1.00  0.00     0.120 A 
HETATM   17  C   UNL     1      39.496 -11.511   7.332  1.00  0.00     0.047 A 
HETATM   18  C   UNL     1      39.284 -12.712   6.610  1.00  0.00     0.038 A 
BRANCH  16  19
HETATM   19  S   UNL     1      41.643  -9.744   7.754  1.00  0.00    -0.025 SA
BRANCH  19  20
HETATM   20  C   UNL     1      42.540 -10.535   9.004  1.00  0.00     0.197 A 
HETATM   21  N   UNL     1      42.044 -10.789  10.251  1.00  0.00    -0.322 N 
HETATM   22  C   UNL     1      40.756 -10.444  10.795  1.00  0.00     0.159 C 
HETATM   23  C   UNL     1      43.042 -11.442  10.915  1.00  0.00     0.235 A 
HETATM   24  N   UNL     1      44.075 -11.599  10.116  1.00  0.00    -0.143 NA
HETATM   25  N   UNL     1      43.760 -11.019   8.913  1.00  0.00    -0.123 NA
ENDBRANCH  19  20
ENDBRANCH  16  19
ENDBRANCH  13  14
ENDBRANCH   8  13
BRANCH   1  26
HETATM   26  C   UNL     1      44.328 -19.018   5.138  1.00  0.00     0.105 C 
HETATM   27  C   UNL     1      45.206 -18.208   6.113  1.00  0.00     0.053 C 
BRANCH  26  28
HETATM   28  O   UNL     1      43.316 -19.676   5.915  1.00  0.00    -0.384 OA
HETATM   29  H   UNL     1      42.521 -19.787   5.361  1.00  0.00     0.211 HD
ENDBRANCH  26  28
BRANCH  26  30
HETATM   30  C   UNL     1      45.200 -20.130   4.447  1.00  0.00     0.276 C 
BRANCH  30  31
HETATM   31  N   UNL     1      44.540 -21.510   4.312  1.00  0.00    -0.076 N 
HETATM   32  H   UNL     1      43.579 -21.454   4.670  1.00  0.00     0.279 HD
HETATM   33  C   UNL     1      44.443 -21.994   2.886  1.00  0.00     0.269 C 
HETATM   34  C   UNL     1      45.241 -22.527   5.175  1.00  0.00     0.269 C 
ENDBRANCH  30  31
ENDBRANCH  26  30
ENDBRANCH   1  26
TORSDOF 8
ENDMDL
MODEL 8
REMARK VINA RESULT:      -7.4      3.115      5.910
REMARK  8 active torsions:
REMARK  status: ('A' for Active; 'I' for Inactive)
REMARK    1  A    between atoms: C_2  and  O_3 
REMARK    2  A    between atoms: C_2  and  C_4 
REMARK    3  A    between atoms: C_2  and  C_29 
REMARK    4  A    between atoms: N_11  and  C_13 
REMARK    5  A    between atoms: C_13  and  C_14 
REMARK    6  A    between atoms: C_16  and  S_17 
REMARK    7  A    between atoms: S_17  and  C_18 
REMARK    8  A    between atoms: C_29  and  N_30 
ROOT
HETATM    1  C   UNL     1      43.997 -18.680   3.896  1.00  0.00    -0.022 A 
HETATM    2  C   UNL     1      43.672 -17.306   3.831  1.00  0.00     0.022 A 
HETATM    3  C   UNL     1      43.246 -16.679   2.647  1.00  0.00     0.002 A 
HETATM    4  C   UNL     1      43.116 -17.456   1.500  1.00  0.00     0.076 A 
HETATM    5  O   UNL     1      42.729 -16.915   0.308  1.00  0.00    -0.349 OA
HETATM    6  C   UNL     1      41.365 -16.477   0.342  1.00  0.00     0.203 C 
HETATM    7  C   UNL     1      41.264 -15.013   0.776  1.00  0.00     0.262 C 
HETATM    8  N   UNL     1      41.569 -14.801   2.247  1.00  0.00    -0.059 N 
HETATM    9  H   UNL     1      41.552 -13.784   2.386  1.00  0.00     0.280 HD
HETATM   10  C   UNL     1      42.984 -15.199   2.616  1.00  0.00     0.276 C 
HETATM   11  C   UNL     1      43.439 -18.808   1.520  1.00  0.00     0.038 A 
HETATM   12  C   UNL     1      43.862 -19.417   2.707  1.00  0.00     0.013 A 
ENDROOT
BRANCH   8  13
HETATM   13  C   UNL     1      40.503 -15.342   3.177  1.00  0.00     0.299 C 
BRANCH  13  14
HETATM   14  C   UNL     1      40.322 -14.524   4.403  1.00  0.00     0.080 A 
HETATM   15  O   UNL     1      40.137 -13.186   4.222  1.00  0.00    -0.306 OA
HETATM   16  C   UNL     1      39.941 -12.620   5.454  1.00  0.00     0.120 A 
HETATM   17  C   UNL     1      40.052 -13.599   6.421  1.00  0.00     0.047 A 
HETATM   18  C   UNL     1      40.289 -14.824   5.748  1.00  0.00     0.038 A 
BRANCH  16  19
HETATM   19  S   UNL     1      39.622 -10.921   5.677  1.00  0.00    -0.025 SA
BRANCH  19  20
HETATM   20  C   UNL     1      40.720 -10.646   6.985  1.00  0.00     0.197 A 
HETATM   21  N   UNL     1      40.351 -10.654   8.300  1.00  0.00    -0.322 N 
HETATM   22  C   UNL     1      39.040 -10.840   8.867  1.00  0.00     0.159 C 
HETATM   23  C   UNL     1      41.499 -10.429   9.003  1.00  0.00     0.235 A 
HETATM   24  N   UNL     1      42.511 -10.314   8.170  1.00  0.00    -0.143 NA
HETATM   25  N   UNL     1      42.017 -10.443   6.897  1.00  0.00    -0.123 NA
ENDBRANCH  19  20
ENDBRANCH  16  19
ENDBRANCH  13  14
ENDBRANCH   8  13
BRANCH   1  26
HETATM   26  C   UNL     1      44.434 -19.316   5.231  1.00  0.00     0.105 C 
HETATM   27  C   UNL     1      44.679 -20.831   5.084  1.00  0.00     0.053 C 
BRANCH  26  28
HETATM   28  O   UNL     1      45.684 -18.710   5.590  1.00  0.00    -0.384 OA
HETATM   29  H   UNL     1      45.809 -17.908   5.049  1.00  0.00     0.211 HD
ENDBRANCH  26  28
BRANCH  26  30
HETATM   30  C   UNL     1      43.422 -19.059   6.408  1.00  0.00     0.276 C 
BRANCH  30  31
HETATM   31  N   UNL     1      43.878 -18.052   7.474  1.00  0.00    -0.076 N 
HETATM   32  H   UNL     1      44.764 -17.631   7.174  1.00  0.00     0.279 HD
HETATM   33  C   UNL     1      42.906 -16.917   7.683  1.00  0.00     0.269 C 
HETATM   34  C   UNL     1      44.175 -18.748   8.777  1.00  0.00     0.269 C 
ENDBRANCH  30  31
ENDBRANCH  26  30
ENDBRANCH   1  26
TORSDOF 8
ENDMDL
MODEL 9
REMARK VINA RESULT:      -7.3      2.959      5.927
REMARK  8 active torsions:
REMARK  status: ('A' for Active; 'I' for Inactive)
REMARK    1  A    between atoms: C_2  and  O_3 
REMARK    2  A    between atoms: C_2  and  C_4 
REMARK    3  A    between atoms: C_2  and  C_29 
REMARK    4  A    between atoms: N_11  and  C_13 
REMARK    5  A    between atoms: C_13  and  C_14 
REMARK    6  A    between atoms: C_16  and  S_17 
REMARK    7  A    between atoms: S_17  and  C_18 
REMARK    8  A    between atoms: C_29  and  N_30 
ROOT
HETATM    1  C   UNL     1      42.560 -16.936   4.845  1.00  0.00    -0.022 A 
HETATM    2  C   UNL     1      41.736 -17.190   3.725  1.00  0.00     0.022 A 
HETATM    3  C   UNL     1      40.764 -16.279   3.274  1.00  0.00     0.002 A 
HETATM    4  C   UNL     1      40.632 -15.068   3.947  1.00  0.00     0.076 A 
HETATM    5  O   UNL     1      39.696 -14.144   3.582  1.00  0.00    -0.349 OA
HETATM    6  C   UNL     1      39.991 -13.568   2.303  1.00  0.00     0.203 C 
HETATM    7  C   UNL     1      39.320 -14.353   1.175  1.00  0.00     0.262 C 
HETATM    8  N   UNL     1      39.958 -15.707   0.924  1.00  0.00    -0.059 N 
HETATM    9  H   UNL     1      39.369 -16.160   0.215  1.00  0.00     0.280 HD
HETATM   10  C   UNL     1      39.863 -16.630   2.123  1.00  0.00     0.276 C 
HETATM   11  C   UNL     1      41.415 -14.788   5.061  1.00  0.00     0.038 A 
HETATM   12  C   UNL     1      42.378 -15.705   5.497  1.00  0.00     0.013 A 
ENDROOT
BRANCH   8  13
HETATM   13  C   UNL     1      41.335 -15.630   0.300  1.00  0.00     0.299 C 
BRANCH  13  14
HETATM   14  C   UNL     1      41.319 -15.127  -1.098  1.00  0.00     0.080 A 
HETATM   15  O   UNL     1      41.818 -13.875  -1.300  1.00  0.00    -0.306 OA
HETATM   16  C   UNL     1      41.764 -13.616  -2.645  1.00  0.00     0.120 A 
HETATM   17  C   UNL     1      41.182 -14.691  -3.286  1.00  0.00     0.047 A 
HETATM   18  C   UNL     1      40.903 -15.666  -2.296  1.00  0.00     0.038 A 
BRANCH  16  19
HETATM   19  S   UNL     1      42.345 -12.131  -3.348  1.00  0.00    -0.025 SA
BRANCH  19  20
HETATM   20  C   UNL     1      42.453 -11.208  -1.889  1.00  0.00     0.197 A 
HETATM   21  N   UNL     1      41.397 -10.549  -1.327  1.00  0.00    -0.322 N 
HETATM   22  C   UNL     1      40.044 -10.441  -1.808  1.00  0.00     0.159 C 
HETATM   23  C   UNL     1      41.887  -9.977  -0.189  1.00  0.00     0.235 A 
HETATM   24  N   UNL     1      43.158 -10.287  -0.050  1.00  0.00    -0.143 NA
HETATM   25  N   UNL     1      43.516 -11.057  -1.128  1.00  0.00    -0.123 NA
ENDBRANCH  19  20
ENDBRANCH  16  19
ENDBRANCH  13  14
ENDBRANCH   8  13
BRANCH   1  26
HETATM   26  C   UNL     1      43.628 -17.963   5.277  1.00  0.00     0.105 C 
HETATM   27  C   UNL     1      44.629 -17.354   6.278  1.00  0.00     0.053 C 
BRANCH  26  28
HETATM   28  O   UNL     1      42.934 -19.023   5.952  1.00  0.00    -0.384 OA
HETATM   29  H   UNL     1      43.292 -19.876   5.642  1.00  0.00     0.211 HD
ENDBRANCH  26  28
BRANCH  26  30
HETATM   30  C   UNL     1      44.412 -18.597   4.069  1.00  0.00     0.276 C 
BRANCH  30  31
HETATM   31  N   UNL     1      43.986 -20.016   3.666  1.00  0.00    -0.076 N 
HETATM   32  H   UNL     1      43.126 -20.259   4.170  1.00  0.00     0.279 HD
HETATM   33  C   UNL     1      43.684 -20.159   2.195  1.00  0.00     0.269 C 
HETATM   34  C   UNL     1      45.015 -21.028   4.101  1.00  0.00     0.269 C 
ENDBRANCH  30  31
ENDBRANCH  26  30
ENDBRANCH   1  26
TORSDOF 8
ENDMDL
MODEL 10
REMARK VINA RESULT:      -7.2      3.201      6.532
REMARK  8 active torsions:
REMARK  status: ('A' for Active; 'I' for Inactive)
REMARK    1  A    between atoms: C_2  and  O_3 
REMARK    2  A    between atoms: C_2  and  C_4 
REMARK    3  A    between atoms: C_2  and  C_29 
REMARK    4  A    between atoms: N_11  and  C_13 
REMARK    5  A    between atoms: C_13  and  C_14 
REMARK    6  A    between atoms: C_16  and  S_17 
REMARK    7  A    between atoms: S_17  and  C_18 
REMARK    8  A    between atoms: C_29  and  N_30 
ROOT
HETATM    1  C   UNL     1      41.765 -16.414   1.035  1.00  0.00    -0.022 A 
HETATM    2  C   UNL     1      41.320 -16.550   2.369  1.00  0.00     0.022 A 
HETATM    3  C   UNL     1      41.895 -17.458   3.275  1.00  0.00     0.002 A 
HETATM    4  C   UNL     1      42.966 -18.233   2.841  1.00  0.00     0.076 A 
HETATM    5  O   UNL     1      43.563 -19.152   3.656  1.00  0.00    -0.349 OA
HETATM    6  C   UNL     1      44.265 -18.526   4.736  1.00  0.00     0.203 C 
HETATM    7  C   UNL     1      43.365 -18.365   5.962  1.00  0.00     0.262 C 
HETATM    8  N   UNL     1      42.298 -17.300   5.788  1.00  0.00    -0.059 N 
HETATM    9  H   UNL     1      41.717 -17.353   6.633  1.00  0.00     0.280 HD
HETATM   10  C   UNL     1      41.334 -17.616   4.661  1.00  0.00     0.276 C 
HETATM   11  C   UNL     1      43.424 -18.138   1.532  1.00  0.00     0.038 A 
HETATM   12  C   UNL     1      42.840 -17.228   0.643  1.00  0.00     0.013 A 
ENDROOT
BRANCH   8  13
HETATM   13  C   UNL     1      42.840 -15.887   5.772  1.00  0.00     0.299 C 
BRANCH  13  14
HETATM   14  C   UNL     1      41.779 -14.849   5.814  1.00  0.00     0.080 A 
HETATM   15  O   UNL     1      42.196 -13.552   5.871  1.00  0.00    -0.306 OA
HETATM   16  C   UNL     1      41.082 -12.754   5.852  1.00  0.00     0.120 A 
HETATM   17  C   UNL     1      39.957 -13.553   5.833  1.00  0.00     0.047 A 
HETATM   18  C   UNL     1      40.401 -14.898   5.801  1.00  0.00     0.038 A 
BRANCH  16  19
HETATM   19  S   UNL     1      41.165 -11.013   5.867  1.00  0.00    -0.025 SA
BRANCH  19  20
HETATM   20  C   UNL     1      40.293 -10.750   7.337  1.00  0.00     0.197 A 
HETATM   21  N   UNL     1      40.889 -10.588   8.556  1.00  0.00    -0.322 N 
HETATM   22  C   UNL     1      42.290 -10.635   8.886  1.00  0.00     0.159 C 
HETATM   23  C   UNL     1      39.869 -10.380   9.437  1.00  0.00     0.235 A 
HETATM   24  N   UNL     1      38.721 -10.390   8.795  1.00  0.00    -0.143 NA
HETATM   25  N   UNL     1      38.990 -10.631   7.471  1.00  0.00    -0.123 NA
ENDBRANCH  19  20
ENDBRANCH  16  19
ENDBRANCH  13  14
ENDBRANCH   8  13
BRANCH   1  26
HETATM   26  C   UNL     1      41.110 -15.381   0.095  1.00  0.00     0.105 C 
HETATM   27  C   UNL     1      41.021 -15.906  -1.351  1.00  0.00     0.053 C 
BRANCH  26  28
HETATM   28  O   UNL     1      39.768 -15.184   0.565  1.00  0.00    -0.384 OA
HETATM   29  H   UNL     1      39.583 -15.841   1.262  1.00  0.00     0.211 HD
ENDBRANCH  26  28
BRANCH  26  30
HETATM   30  C   UNL     1      41.830 -13.981   0.103  1.00  0.00     0.276 C 
BRANCH  30  31
HETATM   31  N   UNL     1      41.299 -12.962   1.122  1.00  0.00    -0.076 N 
HETATM   32  H   UNL     1      40.349 -13.235   1.398  1.00  0.00     0.279 HD
HETATM   33  C   UNL     1      42.117 -12.895   2.387  1.00  0.00     0.269 C 
HETATM   34  C   UNL     1      41.168 -11.597   0.496  1.00  0.00     0.269 C 
ENDBRANCH  30  31
ENDBRANCH  26  30
ENDBRANCH   1  26
TORSDOF 8
ENDMDL
