MODEL 1
REMARK VINA RESULT:      -8.6      0.000      0.000
REMARK  5 active torsions:
REMARK  status: ('A' for Active; 'I' for Inactive)
REMARK    1  A    between atoms: C_2  and  N_3 
REMARK    2  A    between atoms: C_6  and  C_7 
REMARK    3  A    between atoms: C_7  and  N_8 
REMARK    4  A    between atoms: C_11  and  O_12 
REMARK    5  A    between atoms: C_13  and  N_14 
ROOT
HETATM    1  N   UNL     1      42.097 -14.812   3.238  1.00  0.00    -0.065 N 
HETATM    2  H   UNL     1      42.655 -15.560   2.802  1.00  0.00     0.280 HD
HETATM    3  C   UNL     1      40.644 -15.247   3.280  1.00  0.00     0.268 C 
HETATM    4  C   UNL     1      40.136 -15.495   1.849  1.00  0.00     0.174 C 
HETATM    5  C   UNL     1      40.369 -14.230   0.989  1.00  0.00     0.220 C 
HETATM    6  C   UNL     1      41.827 -13.778   1.004  1.00  0.00     0.063 C 
HETATM    7  C   UNL     1      42.305 -13.550   2.441  1.00  0.00     0.237 C 
ENDROOT
BRANCH   1   8
HETATM    8  C   UNL     1      42.707 -14.718   4.644  1.00  0.00     0.276 C 
BRANCH   8   9
HETATM    9  C   UNL     1      43.296 -16.021   5.032  1.00  0.00     0.004 A 
HETATM   10  C   UNL     1      43.847 -16.386   6.274  1.00  0.00     0.149 A 
HETATM   11  N   UNL     1      44.195 -17.667   6.318  1.00  0.00    -0.180 NA
HETATM   12  N   UNL     1      43.972 -18.153   5.073  1.00  0.00    -0.245 N 
HETATM   13  C   UNL     1      43.422 -17.168   4.268  1.00  0.00     0.129 A 
BRANCH  12  14
HETATM   14  C   UNL     1      44.221 -19.516   4.752  1.00  0.00     0.058 A 
HETATM   15  C   UNL     1      44.297 -19.902   3.402  1.00  0.00     0.034 A 
HETATM   16  C   UNL     1      44.571 -21.228   3.063  1.00  0.00     0.044 A 
HETATM   17  C   UNL     1      44.768 -22.166   4.068  1.00  0.00     0.116 A 
HETATM   18  C   UNL     1      44.688 -21.805   5.408  1.00  0.00     0.044 A 
HETATM   19  F   UNL     1      45.041 -23.436   3.745  1.00  0.00    -0.206 F 
HETATM   20  C   UNL     1      44.411 -20.479   5.756  1.00  0.00     0.034 A 
ENDBRANCH  12  14
ENDBRANCH   8   9
ENDBRANCH   1   8
BRANCH   4  21
HETATM   21  O   UNL     1      38.740 -15.777   1.795  1.00  0.00    -0.392 OA
HETATM   22  H   UNL     1      38.592 -16.738   1.658  1.00  0.00     0.210 HD
ENDBRANCH   4  21
BRANCH   5  23
HETATM   23  N   UNL     1      39.817 -14.470  -0.436  1.00  0.00    -0.064 N 
HETATM   24  H   UNL     1      39.314 -15.371  -0.328  1.00  0.00     0.280 HD
HETATM   25  C   UNL     1      38.740 -13.468  -0.811  1.00  0.00     0.235 C 
HETATM   26  C   UNL     1      37.944 -13.889  -2.043  1.00  0.00     0.028 C 
HETATM   27  C   UNL     1      38.714 -13.718  -3.347  1.00  0.00     0.002 C 
HETATM   28  C   UNL     1      39.585 -14.907  -3.735  1.00  0.00     0.002 C 
HETATM   29  C   UNL     1      40.326 -15.611  -2.604  1.00  0.00     0.028 C 
HETATM   30  C   UNL     1      40.861 -14.689  -1.520  1.00  0.00     0.235 C 
ENDBRANCH   5  23
TORSDOF 5
ENDMDL
MODEL 2
REMARK VINA RESULT:      -8.4      6.215      9.345
REMARK  5 active torsions:
REMARK  status: ('A' for Active; 'I' for Inactive)
REMARK    1  A    between atoms: C_2  and  N_3 
REMARK    2  A    between atoms: C_6  and  C_7 
REMARK    3  A    between atoms: C_7  and  N_8 
REMARK    4  A    between atoms: C_11  and  O_12 
REMARK    5  A    between atoms: C_13  and  N_14 
ROOT
HETATM    1  N   UNL     1      41.357 -12.794   5.678  1.00  0.00    -0.065 N 
HETATM    2  H   UNL     1      42.057 -12.874   6.429  1.00  0.00     0.280 HD
HETATM    3  C   UNL     1      40.287 -13.847   5.895  1.00  0.00     0.268 C 
HETATM    4  C   UNL     1      40.921 -15.248   5.856  1.00  0.00     0.174 C 
HETATM    5  C   UNL     1      41.695 -15.431   4.529  1.00  0.00     0.220 C 
HETATM    6  C   UNL     1      42.730 -14.332   4.305  1.00  0.00     0.063 C 
HETATM    7  C   UNL     1      42.069 -12.952   4.359  1.00  0.00     0.237 C 
ENDROOT
BRANCH   1   8
HETATM    8  C   UNL     1      40.812 -11.373   5.878  1.00  0.00     0.276 C 
BRANCH   8   9
HETATM    9  C   UNL     1      40.728 -11.059   7.324  1.00  0.00     0.004 A 
HETATM   10  C   UNL     1      39.605 -11.155   8.166  1.00  0.00     0.149 A 
HETATM   11  N   UNL     1      39.899 -10.894   9.435  1.00  0.00    -0.180 NA
HETATM   12  N   UNL     1      41.202 -10.525   9.444  1.00  0.00    -0.245 N 
HETATM   13  C   UNL     1      41.733 -10.618   8.166  1.00  0.00     0.129 A 
BRANCH  12  14
HETATM   14  C   UNL     1      41.870 -10.186  10.653  1.00  0.00     0.058 A 
HETATM   15  C   UNL     1      42.500 -11.197  11.398  1.00  0.00     0.034 A 
HETATM   16  C   UNL     1      43.189 -10.882  12.572  1.00  0.00     0.044 A 
HETATM   17  C   UNL     1      43.247  -9.562  12.999  1.00  0.00     0.116 A 
HETATM   18  C   UNL     1      42.622  -8.550  12.279  1.00  0.00     0.044 A 
HETATM   19  F   UNL     1      43.915  -9.256  14.118  1.00  0.00    -0.206 F 
HETATM   20  C   UNL     1      41.928  -8.857  11.105  1.00  0.00     0.034 A 
ENDBRANCH  12  14
ENDBRANCH   8   9
ENDBRANCH   1   8
BRANCH   4  21
HETATM   21  O   UNL     1      39.959 -16.297   5.919  1.00  0.00    -0.392 OA
HETATM   22  H   UNL     1      40.406 -17.164   6.027  1.00  0.00     0.210 HD
ENDBRANCH   4  21
BRANCH   5  23
HETATM   23  N   UNL     1      42.295 -16.856   4.477  1.00  0.00    -0.064 N 
HETATM   24  H   UNL     1      41.490 -17.444   4.768  1.00  0.00     0.280 HD
HETATM   25  C   UNL     1      42.604 -17.298   3.058  1.00  0.00     0.235 C 
HETATM   26  C   UNL     1      42.855 -18.798   2.948  1.00  0.00     0.028 C 
HETATM   27  C   UNL     1      44.213 -19.225   3.494  1.00  0.00     0.002 C 
HETATM   28  C   UNL     1      44.235 -19.521   4.989  1.00  0.00     0.002 C 
HETATM   29  C   UNL     1      43.409 -18.601   5.882  1.00  0.00     0.028 C 
HETATM   30  C   UNL     1      43.413 -17.138   5.468  1.00  0.00     0.235 C 
ENDBRANCH   5  23
TORSDOF 5
ENDMDL
MODEL 3
REMARK VINA RESULT:      -8.1      2.323      3.345
REMARK  5 active torsions:
REMARK  status: ('A' for Active; 'I' for Inactive)
REMARK    1  A    between atoms: C_2  and  N_3 
REMARK    2  A    between atoms: C_6  and  C_7 
REMARK    3  A    between atoms: C_7  and  N_8 
REMARK    4  A    between atoms: C_11  and  O_12 
REMARK    5  A    between atoms: C_13  and  N_14 
ROOT
HETATM    1  N   UNL     1      42.812 -14.673   6.224  1.00  0.00    -0.065 N 
HETATM    2  H   UNL     1      42.436 -13.844   6.705  1.00  0.00     0.280 HD
HETATM    3  C   UNL     1      43.541 -14.223   4.973  1.00  0.00     0.268 C 
HETATM    4  C   UNL     1      42.563 -13.492   4.037  1.00  0.00     0.174 C 
HETATM    5  C   UNL     1      41.348 -14.403   3.741  1.00  0.00     0.220 C 
HETATM    6  C   UNL     1      40.661 -14.888   5.015  1.00  0.00     0.063 C 
HETATM    7  C   UNL     1      41.663 -15.602   5.927  1.00  0.00     0.237 C 
ENDROOT
BRANCH   1   8
HETATM    8  C   UNL     1      43.775 -15.257   7.269  1.00  0.00     0.276 C 
BRANCH   8   9
HETATM    9  C   UNL     1      43.863 -16.728   7.114  1.00  0.00     0.004 A 
HETATM   10  C   UNL     1      43.586 -17.717   8.075  1.00  0.00     0.149 A 
HETATM   11  N   UNL     1      43.666 -18.946   7.576  1.00  0.00    -0.180 NA
HETATM   12  N   UNL     1      44.094 -18.799   6.299  1.00  0.00    -0.245 N 
HETATM   13  C   UNL     1      44.221 -17.453   5.991  1.00  0.00     0.129 A 
BRANCH  12  14
HETATM   14  C   UNL     1      44.280 -19.920   5.444  1.00  0.00     0.058 A 
HETATM   15  C   UNL     1      44.358 -19.720   4.055  1.00  0.00     0.034 A 
HETATM   16  C   UNL     1      44.573 -20.802   3.198  1.00  0.00     0.044 A 
HETATM   17  C   UNL     1      44.707 -22.078   3.727  1.00  0.00     0.116 A 
HETATM   18  C   UNL     1      44.625 -22.297   5.097  1.00  0.00     0.044 A 
HETATM   19  F   UNL     1      44.923 -23.116   2.909  1.00  0.00    -0.206 F 
HETATM   20  C   UNL     1      44.408 -21.219   5.962  1.00  0.00     0.034 A 
ENDBRANCH  12  14
ENDBRANCH   8   9
ENDBRANCH   1   8
BRANCH   4  21
HETATM   21  O   UNL     1      43.142 -13.155   2.779  1.00  0.00    -0.392 OA
HETATM   22  H   UNL     1      42.476 -13.243   2.064  1.00  0.00     0.210 HD
ENDBRANCH   4  21
BRANCH   5  23
HETATM   23  N   UNL     1      40.390 -13.679   2.767  1.00  0.00    -0.064 N 
HETATM   24  H   UNL     1      41.049 -13.232   2.100  1.00  0.00     0.280 HD
HETATM   25  C   UNL     1      39.586 -14.651   1.923  1.00  0.00     0.235 C 
HETATM   26  C   UNL     1      38.910 -13.981   0.730  1.00  0.00     0.028 C 
HETATM   27  C   UNL     1      37.697 -13.142   1.117  1.00  0.00     0.002 C 
HETATM   28  C   UNL     1      38.015 -11.703   1.507  1.00  0.00     0.002 C 
HETATM   29  C   UNL     1      39.278 -11.479   2.332  1.00  0.00     0.028 C 
HETATM   30  C   UNL     1      39.562 -12.554   3.369  1.00  0.00     0.235 C 
ENDBRANCH   5  23
TORSDOF 5
ENDMDL
MODEL 4
REMARK VINA RESULT:      -8.1      5.828      8.861
REMARK  5 active torsions:
REMARK  status: ('A' for Active; 'I' for Inactive)
REMARK    1  A    between atoms: C_2  and  N_3 
REMARK    2  A    between atoms: C_6  and  C_7 
REMARK    3  A    between atoms: C_7  and  N_8 
REMARK    4  A    between atoms: C_11  and  O_12 
REMARK    5  A    between atoms: C_13  and  N_14 
ROOT
HETATM    1  N   UNL     1      40.565 -12.800   4.809  1.00  0.00    -0.065 N 
HETATM    2  H   UNL     1      40.082 -12.960   3.914  1.00  0.00     0.280 HD
HETATM    3  C   UNL     1      42.026 -12.504   4.530  1.00  0.00     0.268 C 
HETATM    4  C   UNL     1      42.670 -13.702   3.810  1.00  0.00     0.174 C 
HETATM    5  C   UNL     1      42.457 -14.987   4.645  1.00  0.00     0.220 C 
HETATM    6  C   UNL     1      40.985 -15.237   4.960  1.00  0.00     0.063 C 
HETATM    7  C   UNL     1      40.372 -14.025   5.667  1.00  0.00     0.237 C 
ENDROOT
BRANCH   1   8
HETATM    8  C   UNL     1      39.830 -11.575   5.372  1.00  0.00     0.276 C 
BRANCH   8   9
HETATM    9  C   UNL     1      40.704 -10.851   6.324  1.00  0.00     0.004 A 
HETATM   10  C   UNL     1      41.374  -9.630   6.126  1.00  0.00     0.149 A 
HETATM   11  N   UNL     1      41.993  -9.207   7.222  1.00  0.00    -0.180 NA
HETATM   12  N   UNL     1      41.828 -10.188   8.141  1.00  0.00    -0.245 N 
HETATM   13  C   UNL     1      41.043 -11.204   7.618  1.00  0.00     0.129 A 
BRANCH  12  14
HETATM   14  C   UNL     1      42.353 -10.070   9.458  1.00  0.00     0.058 A 
HETATM   15  C   UNL     1      43.535 -10.753   9.792  1.00  0.00     0.034 A 
HETATM   16  C   UNL     1      44.085 -10.626  11.069  1.00  0.00     0.044 A 
HETATM   17  C   UNL     1      43.456  -9.821  12.009  1.00  0.00     0.116 A 
HETATM   18  C   UNL     1      42.282  -9.145  11.700  1.00  0.00     0.044 A 
HETATM   19  F   UNL     1      43.988  -9.690  13.231  1.00  0.00    -0.206 F 
HETATM   20  C   UNL     1      41.722  -9.268  10.424  1.00  0.00     0.034 A 
ENDBRANCH  12  14
ENDBRANCH   8   9
ENDBRANCH   1   8
BRANCH   4  21
HETATM   21  O   UNL     1      44.076 -13.555   3.632  1.00  0.00    -0.392 OA
HETATM   22  H   UNL     1      44.272 -12.737   3.126  1.00  0.00     0.210 HD
ENDBRANCH   4  21
BRANCH   5  23
HETATM   23  N   UNL     1      43.142 -16.178   3.937  1.00  0.00    -0.064 N 
HETATM   24  H   UNL     1      44.134 -15.872   3.900  1.00  0.00     0.280 HD
HETATM   25  C   UNL     1      43.156 -17.428   4.799  1.00  0.00     0.235 C 
HETATM   26  C   UNL     1      44.120 -18.492   4.282  1.00  0.00     0.028 C 
HETATM   27  C   UNL     1      43.609 -19.218   3.043  1.00  0.00     0.002 C 
HETATM   28  C   UNL     1      43.947 -18.539   1.720  1.00  0.00     0.002 C 
HETATM   29  C   UNL     1      43.861 -17.017   1.691  1.00  0.00     0.028 C 
HETATM   30  C   UNL     1      42.716 -16.426   2.498  1.00  0.00     0.235 C 
ENDBRANCH   5  23
TORSDOF 5
ENDMDL
MODEL 5
REMARK VINA RESULT:      -7.8      2.155      2.368
REMARK  5 active torsions:
REMARK  status: ('A' for Active; 'I' for Inactive)
REMARK    1  A    between atoms: C_2  and  N_3 
REMARK    2  A    between atoms: C_6  and  C_7 
REMARK    3  A    between atoms: C_7  and  N_8 
REMARK    4  A    between atoms: C_11  and  O_12 
REMARK    5  A    between atoms: C_13  and  N_14 
ROOT
HETATM    1  N   UNL     1      41.141 -14.371   2.514  1.00  0.00    -0.065 N 
HETATM    2  H   UNL     1      41.973 -14.854   2.146  1.00  0.00     0.280 HD
HETATM    3  C   UNL     1      39.962 -14.670   1.608  1.00  0.00     0.268 C 
HETATM    4  C   UNL     1      40.259 -14.164   0.186  1.00  0.00     0.174 C 
HETATM    5  C   UNL     1      40.623 -12.661   0.234  1.00  0.00     0.220 C 
HETATM    6  C   UNL     1      41.777 -12.375   1.192  1.00  0.00     0.063 C 
HETATM    7  C   UNL     1      41.454 -12.899   2.595  1.00  0.00     0.237 C 
ENDROOT
BRANCH   1   8
HETATM    8  C   UNL     1      40.972 -15.005   3.902  1.00  0.00     0.276 C 
BRANCH   8   9
HETATM    9  C   UNL     1      41.976 -16.079   4.096  1.00  0.00     0.004 A 
HETATM   10  C   UNL     1      42.994 -16.145   5.064  1.00  0.00     0.149 A 
HETATM   11  N   UNL     1      43.656 -17.296   5.025  1.00  0.00    -0.180 NA
HETATM   12  N   UNL     1      43.153 -17.976   3.968  1.00  0.00    -0.245 N 
HETATM   13  C   UNL     1      42.124 -17.255   3.382  1.00  0.00     0.129 A 
BRANCH  12  14
HETATM   14  C   UNL     1      43.621 -19.276   3.628  1.00  0.00     0.058 A 
HETATM   15  C   UNL     1      43.333 -19.801   2.357  1.00  0.00     0.034 A 
HETATM   16  C   UNL     1      43.809 -21.062   1.991  1.00  0.00     0.044 A 
HETATM   17  C   UNL     1      44.568 -21.796   2.892  1.00  0.00     0.116 A 
HETATM   18  C   UNL     1      44.855 -21.297   4.157  1.00  0.00     0.044 A 
HETATM   19  F   UNL     1      45.034 -23.000   2.540  1.00  0.00    -0.206 F 
HETATM   20  C   UNL     1      44.381 -20.036   4.533  1.00  0.00     0.034 A 
ENDBRANCH  12  14
ENDBRANCH   8   9
ENDBRANCH   1   8
BRANCH   4  21
HETATM   21  O   UNL     1      39.144 -14.289  -0.694  1.00  0.00    -0.392 OA
HETATM   22  H   UNL     1      38.317 -14.407  -0.180  1.00  0.00     0.210 HD
ENDBRANCH   4  21
BRANCH   5  23
HETATM   23  N   UNL     1      40.879 -12.149  -1.202  1.00  0.00    -0.064 N 
HETATM   24  H   UNL     1      40.045 -12.497  -1.712  1.00  0.00     0.280 HD
HETATM   25  C   UNL     1      40.787 -10.636  -1.297  1.00  0.00     0.235 C 
HETATM   26  C   UNL     1      40.682 -10.140  -2.736  1.00  0.00     0.028 C 
HETATM   27  C   UNL     1      42.000 -10.218  -3.499  1.00  0.00     0.002 C 
HETATM   28  C   UNL     1      42.265 -11.557  -4.179  1.00  0.00     0.002 C 
HETATM   29  C   UNL     1      41.858 -12.808  -3.409  1.00  0.00     0.028 C 
HETATM   30  C   UNL     1      42.090 -12.738  -1.907  1.00  0.00     0.235 C 
ENDBRANCH   5  23
TORSDOF 5
ENDMDL
MODEL 6
REMARK VINA RESULT:      -7.8      1.399      1.943
REMARK  5 active torsions:
REMARK  status: ('A' for Active; 'I' for Inactive)
REMARK    1  A    between atoms: C_2  and  N_3 
REMARK    2  A    between atoms: C_6  and  C_7 
REMARK    3  A    between atoms: C_7  and  N_8 
REMARK    4  A    between atoms: C_11  and  O_12 
REMARK    5  A    between atoms: C_13  and  N_14 
ROOT
HETATM    1  N   UNL     1      41.905 -13.814   2.123  1.00  0.00    -0.065 N 
HETATM    2  H   UNL     1      42.375 -14.372   1.396  1.00  0.00     0.280 HD
HETATM    3  C   UNL     1      40.580 -14.472   2.462  1.00  0.00     0.268 C 
HETATM    4  C   UNL     1      39.693 -14.527   1.206  1.00  0.00     0.174 C 
HETATM    5  C   UNL     1      39.534 -13.104   0.619  1.00  0.00     0.220 C 
HETATM    6  C   UNL     1      40.879 -12.440   0.336  1.00  0.00     0.063 C 
HETATM    7  C   UNL     1      41.741 -12.410   1.601  1.00  0.00     0.237 C 
ENDROOT
BRANCH   1   8
HETATM    8  C   UNL     1      42.896 -13.887   3.294  1.00  0.00     0.276 C 
BRANCH   8   9
HETATM    9  C   UNL     1      43.097 -15.298   3.703  1.00  0.00     0.004 A 
HETATM   10  C   UNL     1      42.856 -15.875   4.963  1.00  0.00     0.149 A 
HETATM   11  N   UNL     1      43.045 -17.190   4.963  1.00  0.00    -0.180 NA
HETATM   12  N   UNL     1      43.510 -17.496   3.728  1.00  0.00    -0.245 N 
HETATM   13  C   UNL     1      43.550 -16.357   2.938  1.00  0.00     0.129 A 
BRANCH  12  14
HETATM   14  C   UNL     1      43.811 -18.836   3.357  1.00  0.00     0.058 A 
HETATM   15  C   UNL     1      44.510 -19.658   4.257  1.00  0.00     0.034 A 
HETATM   16  C   UNL     1      44.789 -20.986   3.928  1.00  0.00     0.044 A 
HETATM   17  C   UNL     1      44.372 -21.490   2.703  1.00  0.00     0.116 A 
HETATM   18  C   UNL     1      43.687 -20.689   1.797  1.00  0.00     0.044 A 
HETATM   19  F   UNL     1      44.629 -22.766   2.389  1.00  0.00    -0.206 F 
HETATM   20  C   UNL     1      43.406 -19.358   2.118  1.00  0.00     0.034 A 
ENDBRANCH  12  14
ENDBRANCH   8   9
ENDBRANCH   1   8
BRANCH   4  21
HETATM   21  O   UNL     1      38.379 -15.010   1.474  1.00  0.00    -0.392 OA
HETATM   22  H   UNL     1      38.285 -15.233   2.425  1.00  0.00     0.210 HD
ENDBRANCH   4  21
BRANCH   5  23
HETATM   23  N   UNL     1      38.607 -13.159  -0.617  1.00  0.00    -0.064 N 
HETATM   24  H   UNL     1      37.784 -13.678  -0.253  1.00  0.00     0.280 HD
HETATM   25  C   UNL     1      38.067 -11.791  -0.992  1.00  0.00     0.235 C 
HETATM   26  C   UNL     1      36.894 -11.865  -1.965  1.00  0.00     0.028 C 
HETATM   27  C   UNL     1      37.311 -12.212  -3.389  1.00  0.00     0.002 C 
HETATM   28  C   UNL     1      37.403 -13.706  -3.680  1.00  0.00     0.002 C 
HETATM   29  C   UNL     1      37.981 -14.585  -2.577  1.00  0.00     0.028 C 
HETATM   30  C   UNL     1      39.130 -13.961  -1.799  1.00  0.00     0.235 C 
ENDBRANCH   5  23
TORSDOF 5
ENDMDL
MODEL 7
REMARK VINA RESULT:      -7.8      5.365      8.474
REMARK  5 active torsions:
REMARK  status: ('A' for Active; 'I' for Inactive)
REMARK    1  A    between atoms: C_2  and  N_3 
REMARK    2  A    between atoms: C_6  and  C_7 
REMARK    3  A    between atoms: C_7  and  N_8 
REMARK    4  A    between atoms: C_11  and  O_12 
REMARK    5  A    between atoms: C_13  and  N_14 
ROOT
HETATM    1  N   UNL     1      41.564 -12.729   4.375  1.00  0.00    -0.065 N 
HETATM    2  H   UNL     1      42.341 -12.743   5.050  1.00  0.00     0.280 HD
HETATM    3  C   UNL     1      40.524 -13.746   4.805  1.00  0.00     0.268 C 
HETATM    4  C   UNL     1      41.151 -15.150   4.831  1.00  0.00     0.174 C 
HETATM    5  C   UNL     1      41.777 -15.465   3.452  1.00  0.00     0.220 C 
HETATM    6  C   UNL     1      42.781 -14.402   3.013  1.00  0.00     0.063 C 
HETATM    7  C   UNL     1      42.129 -13.017   3.008  1.00  0.00     0.237 C 
ENDROOT
BRANCH   1   8
HETATM    8  C   UNL     1      41.042 -11.290   4.497  1.00  0.00     0.276 C 
BRANCH   8   9
HETATM    9  C   UNL     1      41.436 -10.715   5.805  1.00  0.00     0.004 A 
HETATM   10  C   UNL     1      41.566  -9.357   6.149  1.00  0.00     0.149 A 
HETATM   11  N   UNL     1      41.837  -9.185   7.438  1.00  0.00    -0.180 NA
HETATM   12  N   UNL     1      41.987 -10.428   7.954  1.00  0.00    -0.245 N 
HETATM   13  C   UNL     1      41.747 -11.382   6.977  1.00  0.00     0.129 A 
BRANCH  12  14
HETATM   14  C   UNL     1      42.271 -10.632   9.333  1.00  0.00     0.058 A 
HETATM   15  C   UNL     1      43.608 -10.757   9.748  1.00  0.00     0.034 A 
HETATM   16  C   UNL     1      43.912 -10.926  11.101  1.00  0.00     0.044 A 
HETATM   17  C   UNL     1      42.885 -10.971  12.034  1.00  0.00     0.116 A 
HETATM   18  C   UNL     1      41.556 -10.857  11.641  1.00  0.00     0.044 A 
HETATM   19  F   UNL     1      43.175 -11.123  13.332  1.00  0.00    -0.206 F 
HETATM   20  C   UNL     1      41.243 -10.690  10.288  1.00  0.00     0.034 A 
ENDBRANCH  12  14
ENDBRANCH   8   9
ENDBRANCH   1   8
BRANCH   4  21
HETATM   21  O   UNL     1      40.202 -16.180   5.097  1.00  0.00    -0.392 OA
HETATM   22  H   UNL     1      39.345 -15.790   5.372  1.00  0.00     0.210 HD
ENDBRANCH   4  21
BRANCH   5  23
HETATM   23  N   UNL     1      42.368 -16.894   3.470  1.00  0.00    -0.064 N 
HETATM   24  H   UNL     1      41.566 -17.460   3.810  1.00  0.00     0.280 HD
HETATM   25  C   UNL     1      42.648 -17.419   2.074  1.00  0.00     0.235 C 
HETATM   26  C   UNL     1      42.890 -18.925   2.045  1.00  0.00     0.028 C 
HETATM   27  C   UNL     1      44.256 -19.327   2.590  1.00  0.00     0.002 C 
HETATM   28  C   UNL     1      44.304 -19.538   4.099  1.00  0.00     0.002 C 
HETATM   29  C   UNL     1      43.500 -18.563   4.953  1.00  0.00     0.028 C 
HETATM   30  C   UNL     1      43.504 -17.126   4.455  1.00  0.00     0.235 C 
ENDBRANCH   5  23
TORSDOF 5
ENDMDL
MODEL 8
REMARK VINA RESULT:      -7.8      5.199      7.724
REMARK  5 active torsions:
REMARK  status: ('A' for Active; 'I' for Inactive)
REMARK    1  A    between atoms: C_2  and  N_3 
REMARK    2  A    between atoms: C_6  and  C_7 
REMARK    3  A    between atoms: C_7  and  N_8 
REMARK    4  A    between atoms: C_11  and  O_12 
REMARK    5  A    between atoms: C_13  and  N_14 
ROOT
HETATM    1  N   UNL     1      40.987 -12.912   5.624  1.00  0.00    -0.065 N 
HETATM    2  H   UNL     1      41.433 -13.536   6.311  1.00  0.00     0.280 HD
HETATM    3  C   UNL     1      41.664 -11.556   5.685  1.00  0.00     0.268 C 
HETATM    4  C   UNL     1      41.506 -10.960   7.094  1.00  0.00     0.174 C 
HETATM    5  C   UNL     1      40.006 -10.909   7.472  1.00  0.00     0.220 C 
HETATM    6  C   UNL     1      39.331 -12.274   7.353  1.00  0.00     0.063 C 
HETATM    7  C   UNL     1      39.515 -12.843   5.943  1.00  0.00     0.237 C 
ENDROOT
BRANCH   1   8
HETATM    8  C   UNL     1      41.260 -13.629   4.294  1.00  0.00     0.276 C 
BRANCH   8   9
HETATM    9  C   UNL     1      41.957 -14.913   4.542  1.00  0.00     0.004 A 
HETATM   10  C   UNL     1      42.357 -15.455   5.776  1.00  0.00     0.149 A 
HETATM   11  N   UNL     1      42.868 -16.675   5.652  1.00  0.00    -0.180 NA
HETATM   12  N   UNL     1      42.906 -16.926   4.322  1.00  0.00    -0.245 N 
HETATM   13  C   UNL     1      42.354 -15.866   3.620  1.00  0.00     0.129 A 
BRANCH  12  14
HETATM   14  C   UNL     1      43.386 -18.165   3.813  1.00  0.00     0.058 A 
HETATM   15  C   UNL     1      42.998 -18.576   2.526  1.00  0.00     0.034 A 
HETATM   16  C   UNL     1      43.482 -19.773   1.993  1.00  0.00     0.044 A 
HETATM   17  C   UNL     1      44.349 -20.556   2.743  1.00  0.00     0.116 A 
HETATM   18  C   UNL     1      44.737 -20.169   4.021  1.00  0.00     0.044 A 
HETATM   19  F   UNL     1      44.823 -21.698   2.231  1.00  0.00    -0.206 F 
HETATM   20  C   UNL     1      44.255 -18.974   4.563  1.00  0.00     0.034 A 
ENDBRANCH  12  14
ENDBRANCH   8   9
ENDBRANCH   1   8
BRANCH   4  21
HETATM   21  O   UNL     1      42.000  -9.627   7.194  1.00  0.00    -0.392 OA
HETATM   22  H   UNL     1      42.981  -9.629   7.225  1.00  0.00     0.210 HD
ENDBRANCH   4  21
BRANCH   5  23
HETATM   23  N   UNL     1      39.851 -10.271   8.872  1.00  0.00    -0.064 N 
HETATM   24  H   UNL     1      40.682  -9.650   8.924  1.00  0.00     0.280 HD
HETATM   25  C   UNL     1      38.661  -9.331   8.946  1.00  0.00     0.235 C 
HETATM   26  C   UNL     1      38.693  -8.432  10.178  1.00  0.00     0.028 C 
HETATM   27  C   UNL     1      38.336  -9.164  11.468  1.00  0.00     0.002 C 
HETATM   28  C   UNL     1      39.511  -9.842  12.163  1.00  0.00     0.002 C 
HETATM   29  C   UNL     1      40.537 -10.524  11.265  1.00  0.00     0.028 C 
HETATM   30  C   UNL     1      39.955 -11.228  10.049  1.00  0.00     0.235 C 
ENDBRANCH   5  23
TORSDOF 5
ENDMDL
MODEL 9
REMARK VINA RESULT:      -7.8      2.346      2.990
REMARK  5 active torsions:
REMARK  status: ('A' for Active; 'I' for Inactive)
REMARK    1  A    between atoms: C_2  and  N_3 
REMARK    2  A    between atoms: C_6  and  C_7 
REMARK    3  A    between atoms: C_7  and  N_8 
REMARK    4  A    between atoms: C_11  and  O_12 
REMARK    5  A    between atoms: C_13  and  N_14 
ROOT
HETATM    1  N   UNL     1      40.353 -14.168   2.384  1.00  0.00    -0.065 N 
HETATM    2  H   UNL     1      39.463 -13.650   2.393  1.00  0.00     0.280 HD
HETATM    3  C   UNL     1      41.497 -13.171   2.381  1.00  0.00     0.268 C 
HETATM    4  C   UNL     1      41.410 -12.285   1.126  1.00  0.00     0.174 C 
HETATM    5  C   UNL     1      41.374 -13.176  -0.138  1.00  0.00     0.220 C 
HETATM    6  C   UNL     1      40.249 -14.207  -0.091  1.00  0.00     0.063 C 
HETATM    7  C   UNL     1      40.359 -15.065   1.173  1.00  0.00     0.237 C 
ENDROOT
BRANCH   1   8
HETATM    8  C   UNL     1      40.291 -14.963   3.696  1.00  0.00     0.276 C 
BRANCH   8   9
HETATM    9  C   UNL     1      41.443 -15.891   3.783  1.00  0.00     0.004 A 
HETATM   10  C   UNL     1      42.636 -15.723   4.509  1.00  0.00     0.149 A 
HETATM   11  N   UNL     1      43.419 -16.794   4.453  1.00  0.00    -0.180 NA
HETATM   12  N   UNL     1      42.806 -17.656   3.609  1.00  0.00    -0.245 N 
HETATM   13  C   UNL     1      41.595 -17.130   3.185  1.00  0.00     0.129 A 
BRANCH  12  14
HETATM   14  C   UNL     1      43.360 -18.935   3.319  1.00  0.00     0.058 A 
HETATM   15  C   UNL     1      42.992 -19.590   2.131  1.00  0.00     0.034 A 
HETATM   16  C   UNL     1      43.548 -20.831   1.811  1.00  0.00     0.044 A 
HETATM   17  C   UNL     1      44.465 -21.415   2.674  1.00  0.00     0.116 A 
HETATM   18  C   UNL     1      44.833 -20.785   3.858  1.00  0.00     0.044 A 
HETATM   19  F   UNL     1      45.006 -22.599   2.365  1.00  0.00    -0.206 F 
HETATM   20  C   UNL     1      44.280 -19.544   4.187  1.00  0.00     0.034 A 
ENDBRANCH  12  14
ENDBRANCH   8   9
ENDBRANCH   1   8
BRANCH   4  21
HETATM   21  O   UNL     1      42.526 -11.411   0.982  1.00  0.00    -0.392 OA
HETATM   22  H   UNL     1      43.295 -11.755   1.486  1.00  0.00     0.210 HD
ENDBRANCH   4  21
BRANCH   5  23
HETATM   23  N   UNL     1      41.329 -12.279  -1.397  1.00  0.00    -0.064 N 
HETATM   24  H   UNL     1      41.185 -11.335  -0.990  1.00  0.00     0.280 HD
HETATM   25  C   UNL     1      42.675 -12.198  -2.094  1.00  0.00     0.235 C 
HETATM   26  C   UNL     1      42.748 -11.062  -3.109  1.00  0.00     0.028 C 
HETATM   27  C   UNL     1      41.976 -11.349  -4.393  1.00  0.00     0.002 C 
HETATM   28  C   UNL     1      40.502 -10.965  -4.350  1.00  0.00     0.002 C 
HETATM   29  C   UNL     1      39.761 -11.236  -3.045  1.00  0.00     0.028 C 
HETATM   30  C   UNL     1      40.160 -12.522  -2.339  1.00  0.00     0.235 C 
ENDBRANCH   5  23
TORSDOF 5
ENDMDL
MODEL 10
REMARK VINA RESULT:      -7.6      2.706      3.768
REMARK  5 active torsions:
REMARK  status: ('A' for Active; 'I' for Inactive)
REMARK    1  A    between atoms: C_2  and  N_3 
REMARK    2  A    between atoms: C_6  and  C_7 
REMARK    3  A    between atoms: C_7  and  N_8 
REMARK    4  A    between atoms: C_11  and  O_12 
REMARK    5  A    between atoms: C_13  and  N_14 
ROOT
HETATM    1  N   UNL     1      40.260 -14.501   0.383  1.00  0.00    -0.065 N 
HETATM    2  H   UNL     1      40.983 -13.899   0.801  1.00  0.00     0.280 HD
HETATM    3  C   UNL     1      40.856 -15.228  -0.807  1.00  0.00     0.268 C 
HETATM    4  C   UNL     1      41.335 -14.206  -1.853  1.00  0.00     0.174 C 
HETATM    5  C   UNL     1      40.166 -13.268  -2.235  1.00  0.00     0.220 C 
HETATM    6  C   UNL     1      39.545 -12.587  -1.017  1.00  0.00     0.063 C 
HETATM    7  C   UNL     1      39.089 -13.630   0.007  1.00  0.00     0.237 C 
ENDROOT
BRANCH   1   8
HETATM    8  C   UNL     1      39.922 -15.463   1.532  1.00  0.00     0.276 C 
BRANCH   8   9
HETATM    9  C   UNL     1      41.169 -15.988   2.139  1.00  0.00     0.004 A 
HETATM   10  C   UNL     1      42.229 -15.257   2.705  1.00  0.00     0.149 A 
HETATM   11  N   UNL     1      43.150 -16.041   3.254  1.00  0.00    -0.180 NA
HETATM   12  N   UNL     1      42.767 -17.310   2.976  1.00  0.00    -0.245 N 
HETATM   13  C   UNL     1      41.559 -17.306   2.295  1.00  0.00     0.129 A 
BRANCH  12  14
HETATM   14  C   UNL     1      43.519 -18.430   3.429  1.00  0.00     0.058 A 
HETATM   15  C   UNL     1      44.043 -18.425   4.733  1.00  0.00     0.034 A 
HETATM   16  C   UNL     1      44.757 -19.526   5.209  1.00  0.00     0.044 A 
HETATM   17  C   UNL     1      44.948 -20.628   4.386  1.00  0.00     0.116 A 
HETATM   18  C   UNL     1      44.444 -20.647   3.090  1.00  0.00     0.044 A 
HETATM   19  F   UNL     1      45.623 -21.689   4.844  1.00  0.00    -0.206 F 
HETATM   20  C   UNL     1      43.730 -19.547   2.604  1.00  0.00     0.034 A 
ENDBRANCH  12  14
ENDBRANCH   8   9
ENDBRANCH   1   8
BRANCH   4  21
HETATM   21  O   UNL     1      41.786 -14.814  -3.060  1.00  0.00    -0.392 OA
HETATM   22  H   UNL     1      41.024 -15.021  -3.643  1.00  0.00     0.210 HD
ENDBRANCH   4  21
BRANCH   5  23
HETATM   23  N   UNL     1      40.641 -12.270  -3.317  1.00  0.00    -0.064 N 
HETATM   24  H   UNL     1      40.836 -12.895  -4.123  1.00  0.00     0.280 HD
HETATM   25  C   UNL     1      39.521 -11.362  -3.793  1.00  0.00     0.235 C 
HETATM   26  C   UNL     1      39.865 -10.627  -5.085  1.00  0.00     0.028 C 
HETATM   27  C   UNL     1      40.856  -9.486  -4.885  1.00  0.00     0.002 C 
HETATM   28  C   UNL     1      42.323  -9.895  -4.948  1.00  0.00     0.002 C 
HETATM   29  C   UNL     1      42.691 -11.226  -4.302  1.00  0.00     0.028 C 
HETATM   30  C   UNL     1      41.941 -11.541  -3.017  1.00  0.00     0.235 C 
ENDBRANCH   5  23
TORSDOF 5
ENDMDL
