MODEL 1
REMARK VINA RESULT:      -7.7      0.000      0.000
REMARK  4 active torsions:
REMARK  status: ('A' for Active; 'I' for Inactive)
REMARK    1  A    between atoms: N_2  and  C_4 
REMARK    2  A    between atoms: C_4  and  C_5 
REMARK    3  A    between atoms: C_8  and  C_9 
REMARK       I    between atoms: C_9  and  N_10 
REMARK    4  A    between atoms: N_10  and  C_11 
ROOT
HETATM    1  C   UNL     1      44.853 -13.617   7.623  1.00  0.00     0.269 C 
HETATM    2  N   UNL     1      43.999 -14.691   7.770  1.00  0.00    -0.153 N 
HETATM    3  O   UNL     1      45.775 -13.491   6.826  1.00  0.00    -0.267 OA
HETATM    4  H   UNL     1      43.423 -14.771   8.593  1.00  0.00     0.187 HD
ENDROOT
BRANCH   1   5
HETATM    5  C   UNL     1      44.621 -12.487   8.564  1.00  0.00     0.032 A 
HETATM    6  C   UNL     1      43.442 -11.742   8.433  1.00  0.00     0.017 A 
HETATM    7  C   UNL     1      43.114 -10.766   9.376  1.00  0.00     0.010 A 
HETATM    8  C   UNL     1      43.954 -10.531  10.474  1.00  0.00    -0.033 A 
HETATM    9  C   UNL     1      45.150 -11.259  10.586  1.00  0.00     0.010 A 
HETATM   10  C   UNL     1      45.481 -12.235   9.640  1.00  0.00     0.017 A 
BRANCH   8  11
HETATM   11  C   UNL     1      43.534  -9.575  11.560  1.00  0.00     0.272 C 
BRANCH  11  12
HETATM   12  N   UNL     1      43.289 -10.264  12.887  1.00  0.00    -0.075 N 
HETATM   13  C   UNL     1      42.066 -11.143  12.884  1.00  0.00     0.269 C 
HETATM   14  H   UNL     1      44.090 -10.886  13.046  1.00  0.00     0.279 HD
HETATM   15  C   UNL     1      43.258  -9.284  14.024  1.00  0.00     0.269 C 
ENDBRANCH  11  12
ENDBRANCH   8  11
ENDBRANCH   1   5
BRANCH   2  16
HETATM   16  C   UNL     1      43.917 -15.670   6.809  1.00  0.00     0.708 A 
HETATM   17  N   UNL     1      44.261 -16.932   6.902  1.00  0.00    -0.062 NA
HETATM   18  C   UNL     1      44.063 -17.477   5.659  1.00  0.00     0.103 A 
HETATM   19  C   UNL     1      43.579 -16.521   4.775  1.00  0.00     0.078 A 
HETATM   20  C   UNL     1      44.286 -18.782   5.205  1.00  0.00     0.034 A 
HETATM   21  N   UNL     1      43.482 -15.384   5.537  1.00  0.00    -0.187 N 
HETATM   22  C   UNL     1      43.298 -16.788   3.435  1.00  0.00     0.032 A 
HETATM   23  H   UNL     1      43.153 -14.491   5.208  1.00  0.00     0.184 HD
HETATM   24  C   UNL     1      43.531 -18.097   2.995  1.00  0.00     0.002 A 
HETATM   25  C   UNL     1      44.015 -19.080   3.863  1.00  0.00     0.002 A 
ENDBRANCH   2  16
TORSDOF 4
ENDMDL
MODEL 2
REMARK VINA RESULT:      -7.4      7.334      9.718
REMARK  4 active torsions:
REMARK  status: ('A' for Active; 'I' for Inactive)
REMARK    1  A    between atoms: N_2  and  C_4 
REMARK    2  A    between atoms: C_4  and  C_5 
REMARK    3  A    between atoms: C_8  and  C_9 
REMARK       I    between atoms: C_9  and  N_10 
REMARK    4  A    between atoms: N_10  and  C_11 
ROOT
HETATM    1  C   UNL     1      41.306 -17.130   2.152  1.00  0.00     0.269 C 
HETATM    2  N   UNL     1      40.565 -16.338   3.007  1.00  0.00    -0.153 N 
HETATM    3  O   UNL     1      41.266 -17.159   0.928  1.00  0.00    -0.267 OA
HETATM    4  H   UNL     1      40.529 -16.552   3.991  1.00  0.00     0.187 HD
ENDROOT
BRANCH   1   5
HETATM    5  C   UNL     1      42.256 -18.065   2.814  1.00  0.00     0.032 A 
HETATM    6  C   UNL     1      42.954 -18.981   2.016  1.00  0.00     0.017 A 
HETATM    7  C   UNL     1      43.956 -19.781   2.569  1.00  0.00     0.010 A 
HETATM    8  C   UNL     1      44.285 -19.665   3.927  1.00  0.00    -0.033 A 
HETATM    9  C   UNL     1      43.564 -18.766   4.731  1.00  0.00     0.010 A 
HETATM   10  C   UNL     1      42.558 -17.966   4.177  1.00  0.00     0.017 A 
BRANCH   8  11
HETATM   11  C   UNL     1      45.455 -20.429   4.492  1.00  0.00     0.272 C 
BRANCH  11  12
HETATM   12  N   UNL     1      45.043 -21.726   5.158  1.00  0.00    -0.075 N 
HETATM   13  C   UNL     1      44.549 -22.763   4.184  1.00  0.00     0.269 C 
HETATM   14  H   UNL     1      45.890 -22.117   5.588  1.00  0.00     0.279 HD
HETATM   15  C   UNL     1      44.053 -21.493   6.262  1.00  0.00     0.269 C 
ENDBRANCH  11  12
ENDBRANCH   8  11
ENDBRANCH   1   5
BRANCH   2  16
HETATM   16  C   UNL     1      39.862 -15.253   2.540  1.00  0.00     0.708 A 
HETATM   17  N   UNL     1      39.956 -14.001   2.918  1.00  0.00    -0.062 NA
HETATM   18  C   UNL     1      38.996 -13.316   2.217  1.00  0.00     0.103 A 
HETATM   19  C   UNL     1      38.293 -14.173   1.380  1.00  0.00     0.078 A 
HETATM   20  C   UNL     1      38.658 -11.957   2.251  1.00  0.00     0.034 A 
HETATM   21  N   UNL     1      38.874 -15.397   1.596  1.00  0.00    -0.187 N 
HETATM   22  C   UNL     1      37.247 -13.755   0.556  1.00  0.00     0.032 A 
HETATM   23  H   UNL     1      38.609 -16.255   1.139  1.00  0.00     0.184 HD
HETATM   24  C   UNL     1      36.918 -12.394   0.606  1.00  0.00     0.002 A 
HETATM   25  C   UNL     1      37.610 -11.508   1.436  1.00  0.00     0.002 A 
ENDBRANCH   2  16
TORSDOF 4
ENDMDL
MODEL 3
REMARK VINA RESULT:      -7.3      7.435      9.923
REMARK  4 active torsions:
REMARK  status: ('A' for Active; 'I' for Inactive)
REMARK    1  A    between atoms: N_2  and  C_4 
REMARK    2  A    between atoms: C_4  and  C_5 
REMARK    3  A    between atoms: C_8  and  C_9 
REMARK       I    between atoms: C_9  and  N_10 
REMARK    4  A    between atoms: N_10  and  C_11 
ROOT
HETATM    1  C   UNL     1      41.380 -16.871   1.629  1.00  0.00     0.269 C 
HETATM    2  N   UNL     1      41.824 -15.866   0.792  1.00  0.00    -0.153 N 
HETATM    3  O   UNL     1      40.224 -17.213   1.848  1.00  0.00    -0.267 OA
HETATM    4  H   UNL     1      42.774 -15.538   0.856  1.00  0.00     0.187 HD
ENDROOT
BRANCH   1   5
HETATM    5  C   UNL     1      42.447 -17.611   2.356  1.00  0.00     0.032 A 
HETATM    6  C   UNL     1      42.770 -17.206   3.657  1.00  0.00     0.017 A 
HETATM    7  C   UNL     1      43.661 -17.953   4.430  1.00  0.00     0.010 A 
HETATM    8  C   UNL     1      44.233 -19.126   3.917  1.00  0.00    -0.033 A 
HETATM    9  C   UNL     1      43.929 -19.514   2.601  1.00  0.00     0.010 A 
HETATM   10  C   UNL     1      43.038 -18.764   1.825  1.00  0.00     0.017 A 
BRANCH   8  11
HETATM   11  C   UNL     1      45.087 -20.002   4.796  1.00  0.00     0.272 C 
BRANCH  11  12
HETATM   12  N   UNL     1      44.343 -21.213   5.321  1.00  0.00    -0.075 N 
HETATM   13  C   UNL     1      43.814 -21.026   6.719  1.00  0.00     0.269 C 
HETATM   14  H   UNL     1      43.521 -21.336   4.717  1.00  0.00     0.279 HD
HETATM   15  C   UNL     1      45.166 -22.463   5.208  1.00  0.00     0.269 C 
ENDBRANCH  11  12
ENDBRANCH   8  11
ENDBRANCH   1   5
BRANCH   2  16
HETATM   16  C   UNL     1      40.987 -15.294  -0.136  1.00  0.00     0.708 A 
HETATM   17  N   UNL     1      41.174 -15.164  -1.428  1.00  0.00    -0.062 NA
HETATM   18  C   UNL     1      40.098 -14.460  -1.902  1.00  0.00     0.103 A 
HETATM   19  C   UNL     1      39.219 -14.150  -0.871  1.00  0.00     0.078 A 
HETATM   20  C   UNL     1      39.804 -14.036  -3.204  1.00  0.00     0.034 A 
HETATM   21  N   UNL     1      39.804 -14.705   0.239  1.00  0.00    -0.187 N 
HETATM   22  C   UNL     1      38.041 -13.426  -1.058  1.00  0.00     0.032 A 
HETATM   23  H   UNL     1      39.425 -14.674   1.172  1.00  0.00     0.184 HD
HETATM   24  C   UNL     1      37.766 -13.006  -2.365  1.00  0.00     0.002 A 
HETATM   25  C   UNL     1      38.629 -13.305  -3.423  1.00  0.00     0.002 A 
ENDBRANCH   2  16
TORSDOF 4
ENDMDL
MODEL 4
REMARK VINA RESULT:      -7.2      1.856      8.967
REMARK  4 active torsions:
REMARK  status: ('A' for Active; 'I' for Inactive)
REMARK    1  A    between atoms: N_2  and  C_4 
REMARK    2  A    between atoms: C_4  and  C_5 
REMARK    3  A    between atoms: C_8  and  C_9 
REMARK       I    between atoms: C_9  and  N_10 
REMARK    4  A    between atoms: N_10  and  C_11 
ROOT
HETATM    1  C   UNL     1      44.130 -13.188   7.823  1.00  0.00     0.269 C 
HETATM    2  N   UNL     1      43.207 -12.167   7.931  1.00  0.00    -0.153 N 
HETATM    3  O   UNL     1      45.079 -13.427   8.560  1.00  0.00    -0.267 OA
HETATM    4  H   UNL     1      42.605 -11.944   7.155  1.00  0.00     0.187 HD
ENDROOT
BRANCH   1   5
HETATM    5  C   UNL     1      43.944 -14.092   6.654  1.00  0.00     0.032 A 
HETATM    6  C   UNL     1      44.114 -15.469   6.845  1.00  0.00     0.017 A 
HETATM    7  C   UNL     1      43.814 -16.367   5.818  1.00  0.00     0.010 A 
HETATM    8  C   UNL     1      43.325 -15.901   4.590  1.00  0.00    -0.033 A 
HETATM    9  C   UNL     1      43.183 -14.517   4.393  1.00  0.00     0.010 A 
HETATM   10  C   UNL     1      43.487 -13.617   5.420  1.00  0.00     0.017 A 
BRANCH   8  11
HETATM   11  C   UNL     1      42.875 -16.876   3.532  1.00  0.00     0.272 C 
BRANCH  11  12
HETATM   12  N   UNL     1      44.025 -17.648   2.918  1.00  0.00    -0.075 N 
HETATM   13  C   UNL     1      44.183 -17.403   1.440  1.00  0.00     0.269 C 
HETATM   14  H   UNL     1      44.883 -17.298   3.361  1.00  0.00     0.279 HD
HETATM   15  C   UNL     1      43.935 -19.115   3.225  1.00  0.00     0.269 C 
ENDBRANCH  11  12
ENDBRANCH   8  11
ENDBRANCH   1   5
BRANCH   2  16
HETATM   16  C   UNL     1      43.090 -11.436   9.089  1.00  0.00     0.708 A 
HETATM   17  N   UNL     1      42.809 -10.161   9.221  1.00  0.00    -0.062 NA
HETATM   18  C   UNL     1      42.885  -9.888  10.562  1.00  0.00     0.103 A 
HETATM   19  C   UNL     1      43.218 -11.031  11.279  1.00  0.00     0.078 A 
HETATM   20  C   UNL     1      42.691  -8.682  11.246  1.00  0.00     0.034 A 
HETATM   21  N   UNL     1      43.329 -12.003  10.318  1.00  0.00    -0.187 N 
HETATM   22  C   UNL     1      43.378 -11.049  12.665  1.00  0.00     0.032 A 
HETATM   23  H   UNL     1      43.556 -12.969  10.491  1.00  0.00     0.184 HD
HETATM   24  C   UNL     1      43.186  -9.833  13.332  1.00  0.00     0.002 A 
HETATM   25  C   UNL     1      42.847  -8.668  12.638  1.00  0.00     0.002 A 
ENDBRANCH   2  16
TORSDOF 4
ENDMDL
MODEL 5
REMARK VINA RESULT:      -7.1      3.388      4.894
REMARK  4 active torsions:
REMARK  status: ('A' for Active; 'I' for Inactive)
REMARK    1  A    between atoms: N_2  and  C_4 
REMARK    2  A    between atoms: C_4  and  C_5 
REMARK    3  A    between atoms: C_8  and  C_9 
REMARK       I    between atoms: C_9  and  N_10 
REMARK    4  A    between atoms: N_10  and  C_11 
ROOT
HETATM    1  C   UNL     1      41.603 -16.428   4.819  1.00  0.00     0.269 C 
HETATM    2  N   UNL     1      42.415 -16.618   3.718  1.00  0.00    -0.153 N 
HETATM    3  O   UNL     1      41.053 -17.281   5.505  1.00  0.00    -0.267 OA
HETATM    4  H   UNL     1      42.633 -15.845   3.111  1.00  0.00     0.187 HD
ENDROOT
BRANCH   1   5
HETATM    5  C   UNL     1      41.366 -15.008   5.196  1.00  0.00     0.032 A 
HETATM    6  C   UNL     1      40.048 -14.592   5.427  1.00  0.00     0.017 A 
HETATM    7  C   UNL     1      39.787 -13.312   5.919  1.00  0.00     0.010 A 
HETATM    8  C   UNL     1      40.843 -12.433   6.202  1.00  0.00    -0.033 A 
HETATM    9  C   UNL     1      42.161 -12.843   5.942  1.00  0.00     0.010 A 
HETATM   10  C   UNL     1      42.423 -14.125   5.446  1.00  0.00     0.017 A 
BRANCH   8  11
HETATM   11  C   UNL     1      40.568 -11.104   6.858  1.00  0.00     0.272 C 
BRANCH  11  12
HETATM   12  N   UNL     1      40.731 -11.147   8.363  1.00  0.00    -0.075 N 
HETATM   13  C   UNL     1      39.473 -10.784   9.108  1.00  0.00     0.269 C 
HETATM   14  H   UNL     1      40.938 -12.123   8.608  1.00  0.00     0.279 HD
HETATM   15  C   UNL     1      41.897 -10.319   8.820  1.00  0.00     0.269 C 
ENDBRANCH  11  12
ENDBRANCH   8  11
ENDBRANCH   1   5
BRANCH   2  16
HETATM   16  C   UNL     1      42.937 -17.856   3.425  1.00  0.00     0.708 A 
HETATM   17  N   UNL     1      42.763 -18.576   2.343  1.00  0.00    -0.062 NA
HETATM   18  C   UNL     1      43.421 -19.759   2.560  1.00  0.00     0.103 A 
HETATM   19  C   UNL     1      44.022 -19.765   3.813  1.00  0.00     0.078 A 
HETATM   20  C   UNL     1      43.542 -20.884   1.734  1.00  0.00     0.034 A 
HETATM   21  N   UNL     1      43.708 -18.537   4.336  1.00  0.00    -0.187 N 
HETATM   22  C   UNL     1      44.750 -20.847   4.309  1.00  0.00     0.032 A 
HETATM   23  H   UNL     1      43.995 -18.200   5.241  1.00  0.00     0.184 HD
HETATM   24  C   UNL     1      44.857 -21.965   3.474  1.00  0.00     0.002 A 
HETATM   25  C   UNL     1      44.266 -21.987   2.207  1.00  0.00     0.002 A 
ENDBRANCH   2  16
TORSDOF 4
ENDMDL
MODEL 6
REMARK VINA RESULT:      -7.1      5.740      8.811
REMARK  4 active torsions:
REMARK  status: ('A' for Active; 'I' for Inactive)
REMARK    1  A    between atoms: N_2  and  C_4 
REMARK    2  A    between atoms: C_4  and  C_5 
REMARK    3  A    between atoms: C_8  and  C_9 
REMARK       I    between atoms: C_9  and  N_10 
REMARK    4  A    between atoms: N_10  and  C_11 
ROOT
HETATM    1  C   UNL     1      42.412 -17.371   1.513  1.00  0.00     0.269 C 
HETATM    2  N   UNL     1      41.223 -16.679   1.392  1.00  0.00    -0.153 N 
HETATM    3  O   UNL     1      43.294 -17.502   0.674  1.00  0.00    -0.267 OA
HETATM    4  H   UNL     1      40.486 -16.818   2.065  1.00  0.00     0.187 HD
ENDROOT
BRANCH   1   5
HETATM    5  C   UNL     1      42.625 -18.044   2.823  1.00  0.00     0.032 A 
HETATM    6  C   UNL     1      43.696 -18.940   2.944  1.00  0.00     0.017 A 
HETATM    7  C   UNL     1      44.022 -19.488   4.186  1.00  0.00     0.010 A 
HETATM    8  C   UNL     1      43.290 -19.136   5.329  1.00  0.00    -0.033 A 
HETATM    9  C   UNL     1      42.200 -18.260   5.199  1.00  0.00     0.010 A 
HETATM   10  C   UNL     1      41.870 -17.713   3.954  1.00  0.00     0.017 A 
BRANCH   8  11
HETATM   11  C   UNL     1      43.726 -19.621   6.688  1.00  0.00     0.272 C 
BRANCH  11  12
HETATM   12  N   UNL     1      44.451 -18.558   7.487  1.00  0.00    -0.075 N 
HETATM   13  C   UNL     1      43.521 -17.626   8.219  1.00  0.00     0.269 C 
HETATM   14  H   UNL     1      44.990 -19.050   8.210  1.00  0.00     0.279 HD
HETATM   15  C   UNL     1      45.433 -17.801   6.641  1.00  0.00     0.269 C 
ENDBRANCH  11  12
ENDBRANCH   8  11
ENDBRANCH   1   5
BRANCH   2  16
HETATM   16  C   UNL     1      41.017 -15.794   0.360  1.00  0.00     0.708 A 
HETATM   17  N   UNL     1      40.490 -14.594   0.411  1.00  0.00    -0.062 NA
HETATM   18  C   UNL     1      40.429 -14.147  -0.883  1.00  0.00     0.103 A 
HETATM   19  C   UNL     1      40.937 -15.100  -1.757  1.00  0.00     0.078 A 
HETATM   20  C   UNL     1      39.941 -12.937  -1.394  1.00  0.00     0.034 A 
HETATM   21  N   UNL     1      41.316 -16.132  -0.938  1.00  0.00    -0.187 N 
HETATM   22  C   UNL     1      40.989 -14.922  -3.141  1.00  0.00     0.032 A 
HETATM   23  H   UNL     1      41.737 -16.994  -1.245  1.00  0.00     0.184 HD
HETATM   24  C   UNL     1      40.492 -13.710  -3.635  1.00  0.00     0.002 A 
HETATM   25  C   UNL     1      39.978 -12.732  -2.779  1.00  0.00     0.002 A 
ENDBRANCH   2  16
TORSDOF 4
ENDMDL
MODEL 7
REMARK VINA RESULT:      -7.0      2.017      9.082
REMARK  4 active torsions:
REMARK  status: ('A' for Active; 'I' for Inactive)
REMARK    1  A    between atoms: N_2  and  C_4 
REMARK    2  A    between atoms: C_4  and  C_5 
REMARK    3  A    between atoms: C_8  and  C_9 
REMARK       I    between atoms: C_9  and  N_10 
REMARK    4  A    between atoms: N_10  and  C_11 
ROOT
HETATM    1  C   UNL     1      43.910 -15.776   6.942  1.00  0.00     0.269 C 
HETATM    2  N   UNL     1      44.500 -14.587   6.560  1.00  0.00    -0.153 N 
HETATM    3  O   UNL     1      43.661 -16.162   8.077  1.00  0.00    -0.267 OA
HETATM    4  H   UNL     1      44.847 -14.473   5.621  1.00  0.00     0.187 HD
ENDROOT
BRANCH   1   5
HETATM    5  C   UNL     1      43.553 -16.695   5.827  1.00  0.00     0.032 A 
HETATM    6  C   UNL     1      43.521 -16.181   4.525  1.00  0.00     0.017 A 
HETATM    7  C   UNL     1      43.330 -17.031   3.433  1.00  0.00     0.010 A 
HETATM    8  C   UNL     1      43.182 -18.412   3.629  1.00  0.00    -0.033 A 
HETATM    9  C   UNL     1      43.186 -18.920   4.938  1.00  0.00     0.010 A 
HETATM   10  C   UNL     1      43.374 -18.068   6.032  1.00  0.00     0.017 A 
BRANCH   8  11
HETATM   11  C   UNL     1      43.112 -19.342   2.445  1.00  0.00     0.272 C 
BRANCH  11  12
HETATM   12  N   UNL     1      43.824 -20.657   2.687  1.00  0.00    -0.075 N 
HETATM   13  C   UNL     1      45.310 -20.501   2.880  1.00  0.00     0.269 C 
HETATM   14  H   UNL     1      43.458 -21.031   3.571  1.00  0.00     0.279 HD
HETATM   15  C   UNL     1      43.512 -21.663   1.618  1.00  0.00     0.269 C 
ENDBRANCH  11  12
ENDBRANCH   8  11
ENDBRANCH   1   5
BRANCH   2  16
HETATM   16  C   UNL     1      44.628 -13.542   7.444  1.00  0.00     0.708 A 
HETATM   17  N   UNL     1      45.713 -13.113   8.043  1.00  0.00    -0.062 NA
HETATM   18  C   UNL     1      45.314 -12.105   8.882  1.00  0.00     0.103 A 
HETATM   19  C   UNL     1      43.942 -11.904   8.793  1.00  0.00     0.078 A 
HETATM   20  C   UNL     1      46.068 -11.317   9.762  1.00  0.00     0.034 A 
HETATM   21  N   UNL     1      43.533 -12.823   7.861  1.00  0.00    -0.187 N 
HETATM   22  C   UNL     1      43.256 -10.950   9.545  1.00  0.00     0.032 A 
HETATM   23  H   UNL     1      42.585 -12.949   7.546  1.00  0.00     0.184 HD
HETATM   24  C   UNL     1      44.023 -10.175  10.423  1.00  0.00     0.002 A 
HETATM   25  C   UNL     1      45.406 -10.352  10.531  1.00  0.00     0.002 A 
ENDBRANCH   2  16
TORSDOF 4
ENDMDL
MODEL 8
REMARK VINA RESULT:      -6.9      6.580      9.746
REMARK  4 active torsions:
REMARK  status: ('A' for Active; 'I' for Inactive)
REMARK    1  A    between atoms: N_2  and  C_4 
REMARK    2  A    between atoms: C_4  and  C_5 
REMARK    3  A    between atoms: C_8  and  C_9 
REMARK       I    between atoms: C_9  and  N_10 
REMARK    4  A    between atoms: N_10  and  C_11 
ROOT
HETATM    1  C   UNL     1      40.970 -16.102   0.973  1.00  0.00     0.269 C 
HETATM    2  N   UNL     1      39.737 -15.719   1.464  1.00  0.00    -0.153 N 
HETATM    3  O   UNL     1      41.490 -15.781  -0.088  1.00  0.00    -0.267 OA
HETATM    4  H   UNL     1      39.327 -16.212   2.241  1.00  0.00     0.187 HD
ENDROOT
BRANCH   1   5
HETATM    5  C   UNL     1      41.742 -17.028   1.846  1.00  0.00     0.032 A 
HETATM    6  C   UNL     1      42.912 -17.604   1.334  1.00  0.00     0.017 A 
HETATM    7  C   UNL     1      43.743 -18.366   2.158  1.00  0.00     0.010 A 
HETATM    8  C   UNL     1      43.424 -18.550   3.511  1.00  0.00    -0.033 A 
HETATM    9  C   UNL     1      42.235 -17.995   4.013  1.00  0.00     0.010 A 
HETATM   10  C   UNL     1      41.400 -17.234   3.187  1.00  0.00     0.017 A 
BRANCH   8  11
HETATM   11  C   UNL     1      44.388 -19.257   4.429  1.00  0.00     0.272 C 
BRANCH  11  12
HETATM   12  N   UNL     1      44.148 -18.938   5.891  1.00  0.00    -0.075 N 
HETATM   13  C   UNL     1      45.257 -18.131   6.513  1.00  0.00     0.269 C 
HETATM   14  H   UNL     1      43.308 -18.348   5.929  1.00  0.00     0.279 HD
HETATM   15  C   UNL     1      43.856 -20.176   6.688  1.00  0.00     0.269 C 
ENDBRANCH  11  12
ENDBRANCH   8  11
ENDBRANCH   1   5
BRANCH   2  16
HETATM   16  C   UNL     1      39.046 -14.669   0.907  1.00  0.00     0.708 A 
HETATM   17  N   UNL     1      38.302 -13.775   1.512  1.00  0.00    -0.062 NA
HETATM   18  C   UNL     1      37.766 -12.990   0.524  1.00  0.00     0.103 A 
HETATM   19  C   UNL     1      38.198 -13.412  -0.728  1.00  0.00     0.078 A 
HETATM   20  C   UNL     1      36.892 -11.900   0.617  1.00  0.00     0.034 A 
HETATM   21  N   UNL     1      39.021 -14.474  -0.453  1.00  0.00    -0.187 N 
HETATM   22  C   UNL     1      37.802 -12.806  -1.921  1.00  0.00     0.032 A 
HETATM   23  H   UNL     1      39.516 -15.019  -1.140  1.00  0.00     0.184 HD
HETATM   24  C   UNL     1      36.924 -11.721  -1.810  1.00  0.00     0.002 A 
HETATM   25  C   UNL     1      36.476 -11.272  -0.565  1.00  0.00     0.002 A 
ENDBRANCH   2  16
TORSDOF 4
ENDMDL
MODEL 9
REMARK VINA RESULT:      -6.9      6.615      9.234
REMARK  4 active torsions:
REMARK  status: ('A' for Active; 'I' for Inactive)
REMARK    1  A    between atoms: N_2  and  C_4 
REMARK    2  A    between atoms: C_4  and  C_5 
REMARK    3  A    between atoms: C_8  and  C_9 
REMARK       I    between atoms: C_9  and  N_10 
REMARK    4  A    between atoms: N_10  and  C_11 
ROOT
HETATM    1  C   UNL     1      41.088 -16.429   1.920  1.00  0.00     0.269 C 
HETATM    2  N   UNL     1      41.657 -15.383   1.220  1.00  0.00    -0.153 N 
HETATM    3  O   UNL     1      39.938 -16.844   1.850  1.00  0.00    -0.267 OA
HETATM    4  H   UNL     1      42.540 -14.998   1.514  1.00  0.00     0.187 HD
ENDROOT
BRANCH   1   5
HETATM    5  C   UNL     1      41.992 -17.116   2.883  1.00  0.00     0.032 A 
HETATM    6  C   UNL     1      41.512 -17.384   4.171  1.00  0.00     0.017 A 
HETATM    7  C   UNL     1      42.268 -18.149   5.062  1.00  0.00     0.010 A 
HETATM    8  C   UNL     1      43.510 -18.669   4.671  1.00  0.00    -0.033 A 
HETATM    9  C   UNL     1      44.001 -18.374   3.389  1.00  0.00     0.010 A 
HETATM   10  C   UNL     1      43.245 -17.605   2.497  1.00  0.00     0.017 A 
BRANCH   8  11
HETATM   11  C   UNL     1      44.261 -19.604   5.584  1.00  0.00     0.272 C 
BRANCH  11  12
HETATM   12  N   UNL     1      43.625 -19.727   6.953  1.00  0.00    -0.075 N 
HETATM   13  C   UNL     1      44.252 -18.825   7.984  1.00  0.00     0.269 C 
HETATM   14  H   UNL     1      42.651 -19.415   6.853  1.00  0.00     0.279 HD
HETATM   15  C   UNL     1      43.586 -21.153   7.422  1.00  0.00     0.269 C 
ENDBRANCH  11  12
ENDBRANCH   8  11
ENDBRANCH   1   5
BRANCH   2  16
HETATM   16  C   UNL     1      41.036 -14.845   0.118  1.00  0.00     0.708 A 
HETATM   17  N   UNL     1      41.587 -14.375  -0.976  1.00  0.00    -0.062 NA
HETATM   18  C   UNL     1      40.561 -13.881  -1.740  1.00  0.00     0.103 A 
HETATM   19  C   UNL     1      39.341 -14.056  -1.097  1.00  0.00     0.078 A 
HETATM   20  C   UNL     1      40.593 -13.256  -2.993  1.00  0.00     0.034 A 
HETATM   21  N   UNL     1      39.672 -14.684   0.076  1.00  0.00    -0.187 N 
HETATM   22  C   UNL     1      38.123 -13.636  -1.635  1.00  0.00     0.032 A 
HETATM   23  H   UNL     1      39.018 -14.970   0.787  1.00  0.00     0.184 HD
HETATM   24  C   UNL     1      38.175 -13.009  -2.885  1.00  0.00     0.002 A 
HETATM   25  C   UNL     1      39.386 -12.822  -3.556  1.00  0.00     0.002 A 
ENDBRANCH   2  16
TORSDOF 4
ENDMDL
MODEL 10
REMARK VINA RESULT:      -6.8      6.610      9.706
REMARK  4 active torsions:
REMARK  status: ('A' for Active; 'I' for Inactive)
REMARK    1  A    between atoms: N_2  and  C_4 
REMARK    2  A    between atoms: C_4  and  C_5 
REMARK    3  A    between atoms: C_8  and  C_9 
REMARK       I    between atoms: C_9  and  N_10 
REMARK    4  A    between atoms: N_10  and  C_11 
ROOT
HETATM    1  C   UNL     1      41.811 -16.179   0.521  1.00  0.00     0.269 C 
HETATM    2  N   UNL     1      41.951 -14.845   0.848  1.00  0.00    -0.153 N 
HETATM    3  O   UNL     1      41.295 -16.658  -0.482  1.00  0.00    -0.267 OA
HETATM    4  H   UNL     1      42.196 -14.577   1.788  1.00  0.00     0.187 HD
ENDROOT
BRANCH   1   5
HETATM    5  C   UNL     1      42.345 -17.140   1.524  1.00  0.00     0.032 A 
HETATM    6  C   UNL     1      43.502 -17.861   1.205  1.00  0.00     0.017 A 
HETATM    7  C   UNL     1      44.120 -18.667   2.164  1.00  0.00     0.010 A 
HETATM    8  C   UNL     1      43.596 -18.751   3.462  1.00  0.00    -0.033 A 
HETATM    9  C   UNL     1      42.420 -18.048   3.770  1.00  0.00     0.010 A 
HETATM   10  C   UNL     1      41.799 -17.243   2.809  1.00  0.00     0.017 A 
BRANCH   8  11
HETATM   11  C   UNL     1      44.337 -19.512   4.531  1.00  0.00     0.272 C 
BRANCH  11  12
HETATM   12  N   UNL     1      44.068 -18.981   5.924  1.00  0.00    -0.075 N 
HETATM   13  C   UNL     1      45.162 -18.085   6.441  1.00  0.00     0.269 C 
HETATM   14  H   UNL     1      43.225 -18.397   5.858  1.00  0.00     0.279 HD
HETATM   15  C   UNL     1      43.763 -20.089   6.891  1.00  0.00     0.269 C 
ENDBRANCH  11  12
ENDBRANCH   8  11
ENDBRANCH   1   5
BRANCH   2  16
HETATM   16  C   UNL     1      41.759 -13.859  -0.090  1.00  0.00     0.708 A 
HETATM   17  N   UNL     1      41.206 -12.681   0.070  1.00  0.00    -0.062 NA
HETATM   18  C   UNL     1      41.176 -12.099  -1.171  1.00  0.00     0.103 A 
HETATM   19  C   UNL     1      41.732 -12.943  -2.124  1.00  0.00     0.078 A 
HETATM   20  C   UNL     1      40.678 -10.851  -1.566  1.00  0.00     0.034 A 
HETATM   21  N   UNL     1      42.107 -14.050  -1.406  1.00  0.00    -0.187 N 
HETATM   22  C   UNL     1      41.823 -12.618  -3.478  1.00  0.00     0.032 A 
HETATM   23  H   UNL     1      42.555 -14.867  -1.789  1.00  0.00     0.184 HD
HETATM   24  C   UNL     1      41.316 -11.369  -3.857  1.00  0.00     0.002 A 
HETATM   25  C   UNL     1      40.754 -10.497  -2.920  1.00  0.00     0.002 A 
ENDBRANCH   2  16
TORSDOF 4
ENDMDL
