MODEL 1
REMARK VINA RESULT:      -9.4      0.000      0.000
REMARK  8 active torsions:
REMARK  status: ('A' for Active; 'I' for Inactive)
REMARK    1  A    between atoms: C_3  and  N_4 
REMARK       I    between atoms: N_4  and  C_5 
REMARK    2  A    between atoms: C_5  and  C_6 
REMARK    3  A    between atoms: C_7  and  C_8 
REMARK    4  A    between atoms: C_11  and  C_12 
REMARK    5  A    between atoms: C_21  and  C_22 
REMARK    6  A    between atoms: C_22  and  C_23 
REMARK    7  A    between atoms: C_23  and  C_24 
REMARK    8  A    between atoms: C_24  and  O_25 
ROOT
HETATM    1  C   UNL     1      41.185 -14.586   2.674  1.00  0.00     0.062 A 
HETATM    2  C   UNL     1      41.025 -15.575   1.525  1.00  0.00     0.202 A 
HETATM    3  N   UNL     1      41.188 -14.914   0.223  1.00  0.00    -0.083 N 
HETATM    4  C   UNL     1      41.377 -13.566   0.070  1.00  0.00     0.726 A 
HETATM    5  N   UNL     1      41.459 -12.780   1.159  1.00  0.00    -0.192 N 
HETATM    6  N   UNL     1      41.022 -15.521  -0.972  1.00  0.00    -0.140 NA
HETATM    7  C   UNL     1      41.234 -14.493  -1.808  1.00  0.00     0.166 A 
HETATM    8  N   UNL     1      41.435 -13.275  -1.203  1.00  0.00    -0.046 NA
HETATM    9  C   UNL     1      41.395 -13.264   2.459  1.00  0.00     0.037 A 
HETATM   10  C   UNL     1      41.564 -12.238   3.552  1.00  0.00     0.070 C 
HETATM   11  H   UNL     1      41.650 -11.790   1.032  1.00  0.00     0.184 HD
ENDROOT
BRANCH   1  12
HETATM   12  C   UNL     1      41.234 -15.138   4.051  1.00  0.00     0.256 C 
HETATM   13  N   UNL     1      42.464 -15.672   4.375  1.00  0.00    -0.323 N 
HETATM   14  H   UNL     1      43.152 -15.717   3.639  1.00  0.00     0.169 HD
HETATM   15  O   UNL     1      40.223 -15.108   4.741  1.00  0.00    -0.267 OA
BRANCH  13  16
HETATM   16  C   UNL     1      42.856 -16.219   5.623  1.00  0.00     0.041 A 
HETATM   17  C   UNL     1      43.546 -15.397   6.543  1.00  0.00    -0.035 A 
HETATM   18  C   UNL     1      43.880 -13.959   6.253  1.00  0.00     0.050 C 
HETATM   19  C   UNL     1      43.929 -15.928   7.789  1.00  0.00     0.009 A 
HETATM   20  C   UNL     1      43.642 -17.248   8.125  1.00  0.00     0.001 A 
HETATM   21  C   UNL     1      42.962 -18.054   7.222  1.00  0.00     0.002 A 
HETATM   22  C   UNL     1      42.571 -17.541   5.983  1.00  0.00     0.030 A 
ENDBRANCH  13  16
ENDBRANCH   1  12
BRANCH   2  23
HETATM   23  C   UNL     1      41.932 -16.792   1.637  1.00  0.00    -0.028 A 
HETATM   24  C   UNL     1      41.385 -18.042   1.968  1.00  0.00     0.010 A 
HETATM   25  C   UNL     1      42.205 -19.160   2.133  1.00  0.00     0.008 A 
HETATM   26  C   UNL     1      43.593 -19.061   1.969  1.00  0.00    -0.055 A 
HETATM   27  C   UNL     1      44.138 -17.818   1.621  1.00  0.00     0.008 A 
HETATM   28  C   UNL     1      43.319 -16.697   1.453  1.00  0.00     0.010 A 
BRANCH  26  29
HETATM   29  C   UNL     1      44.465 -20.283   2.192  1.00  0.00     0.010 C 
HETATM   30  C   UNL     1      44.889 -20.425   3.655  1.00  0.00     0.015 C 
HETATM   31  C   UNL     1      43.773 -21.556   1.696  1.00  0.00     0.015 C 
ENDBRANCH  26  29
ENDBRANCH   2  23
BRANCH   7  32
HETATM   32  C   UNL     1      41.255 -14.651  -3.284  1.00  0.00     0.085 C 
BRANCH  32  33
HETATM   33  C   UNL     1      39.860 -14.778  -3.892  1.00  0.00     0.034 C 
BRANCH  33  34
HETATM   34  C   UNL     1      39.349 -16.214  -3.917  1.00  0.00     0.164 C 
BRANCH  34  35
HETATM   35  O   UNL     1      38.941 -16.550  -5.241  1.00  0.00    -0.401 OA
HETATM   36  H   UNL     1      37.974 -16.468  -5.280  1.00  0.00     0.209 HD
ENDBRANCH  34  35
ENDBRANCH  33  34
ENDBRANCH  32  33
ENDBRANCH   7  32
TORSDOF 8
ENDMDL
MODEL 2
REMARK VINA RESULT:      -9.2      2.328      7.419
REMARK  8 active torsions:
REMARK  status: ('A' for Active; 'I' for Inactive)
REMARK    1  A    between atoms: C_3  and  N_4 
REMARK       I    between atoms: N_4  and  C_5 
REMARK    2  A    between atoms: C_5  and  C_6 
REMARK    3  A    between atoms: C_7  and  C_8 
REMARK    4  A    between atoms: C_11  and  C_12 
REMARK    5  A    between atoms: C_21  and  C_22 
REMARK    6  A    between atoms: C_22  and  C_23 
REMARK    7  A    between atoms: C_23  and  C_24 
REMARK    8  A    between atoms: C_24  and  O_25 
ROOT
HETATM    1  C   UNL     1      41.271 -14.577   2.798  1.00  0.00     0.062 A 
HETATM    2  C   UNL     1      42.735 -14.864   3.107  1.00  0.00     0.202 A 
HETATM    3  N   UNL     1      43.102 -14.390   4.449  1.00  0.00    -0.083 N 
HETATM    4  C   UNL     1      42.251 -13.705   5.275  1.00  0.00     0.726 A 
HETATM    5  N   UNL     1      40.987 -13.470   4.878  1.00  0.00    -0.192 N 
HETATM    6  N   UNL     1      44.350 -14.435   4.965  1.00  0.00    -0.140 NA
HETATM    7  C   UNL     1      44.150 -13.853   6.157  1.00  0.00     0.166 A 
HETATM    8  N   UNL     1      42.879 -13.376   6.373  1.00  0.00    -0.046 NA
HETATM    9  C   UNL     1      40.470 -13.916   3.669  1.00  0.00     0.037 A 
HETATM   10  C   UNL     1      39.014 -13.606   3.422  1.00  0.00     0.070 C 
HETATM   11  H   UNL     1      40.352 -13.007   5.522  1.00  0.00     0.184 HD
ENDROOT
BRANCH   1  12
HETATM   12  C   UNL     1      40.705 -15.164   1.557  1.00  0.00     0.256 C 
HETATM   13  N   UNL     1      40.831 -14.335   0.462  1.00  0.00    -0.323 N 
HETATM   14  H   UNL     1      41.195 -13.410   0.627  1.00  0.00     0.169 HD
HETATM   15  O   UNL     1      40.170 -16.264   1.609  1.00  0.00    -0.267 OA
BRANCH  13  16
HETATM   16  C   UNL     1      40.451 -14.621  -0.874  1.00  0.00     0.041 A 
HETATM   17  C   UNL     1      39.315 -13.978  -1.415  1.00  0.00    -0.035 A 
HETATM   18  C   UNL     1      38.489 -12.996  -0.630  1.00  0.00     0.050 C 
HETATM   19  C   UNL     1      38.938 -14.246  -2.745  1.00  0.00     0.009 A 
HETATM   20  C   UNL     1      39.665 -15.137  -3.531  1.00  0.00     0.001 A 
HETATM   21  C   UNL     1      40.783 -15.766  -3.000  1.00  0.00     0.002 A 
HETATM   22  C   UNL     1      41.173 -15.507  -1.684  1.00  0.00     0.030 A 
ENDBRANCH  13  16
ENDBRANCH   1  12
BRANCH   2  23
HETATM   23  C   UNL     1      43.126 -16.323   2.918  1.00  0.00    -0.028 A 
HETATM   24  C   UNL     1      42.820 -17.262   3.915  1.00  0.00     0.010 A 
HETATM   25  C   UNL     1      43.219 -18.594   3.789  1.00  0.00     0.008 A 
HETATM   26  C   UNL     1      43.933 -19.025   2.663  1.00  0.00    -0.055 A 
HETATM   27  C   UNL     1      44.223 -18.091   1.658  1.00  0.00     0.008 A 
HETATM   28  C   UNL     1      43.823 -16.758   1.780  1.00  0.00     0.010 A 
BRANCH  26  29
HETATM   29  C   UNL     1      44.388 -20.469   2.568  1.00  0.00     0.010 C 
HETATM   30  C   UNL     1      44.680 -21.069   3.946  1.00  0.00     0.015 C 
HETATM   31  C   UNL     1      43.372 -21.322   1.804  1.00  0.00     0.015 C 
ENDBRANCH  26  29
ENDBRANCH   2  23
BRANCH   7  32
HETATM   32  C   UNL     1      45.220 -13.731   7.179  1.00  0.00     0.085 C 
BRANCH  32  33
HETATM   33  C   UNL     1      44.941 -12.639   8.209  1.00  0.00     0.034 C 
BRANCH  33  34
HETATM   34  C   UNL     1      46.177 -11.816   8.555  1.00  0.00     0.164 C 
BRANCH  34  35
HETATM   35  O   UNL     1      45.787 -10.661   9.292  1.00  0.00    -0.401 OA
HETATM   36  H   UNL     1      46.596 -10.177   9.529  1.00  0.00     0.209 HD
ENDBRANCH  34  35
ENDBRANCH  33  34
ENDBRANCH  32  33
ENDBRANCH   7  32
TORSDOF 8
ENDMDL
MODEL 3
REMARK VINA RESULT:      -8.7      2.967      6.402
REMARK  8 active torsions:
REMARK  status: ('A' for Active; 'I' for Inactive)
REMARK    1  A    between atoms: C_3  and  N_4 
REMARK       I    between atoms: N_4  and  C_5 
REMARK    2  A    between atoms: C_5  and  C_6 
REMARK    3  A    between atoms: C_7  and  C_8 
REMARK    4  A    between atoms: C_11  and  C_12 
REMARK    5  A    between atoms: C_21  and  C_22 
REMARK    6  A    between atoms: C_22  and  C_23 
REMARK    7  A    between atoms: C_23  and  C_24 
REMARK    8  A    between atoms: C_24  and  O_25 
ROOT
HETATM    1  C   UNL     1      41.952 -15.425   5.374  1.00  0.00     0.062 A 
HETATM    2  C   UNL     1      40.912 -14.488   4.770  1.00  0.00     0.202 A 
HETATM    3  N   UNL     1      41.106 -13.106   5.230  1.00  0.00    -0.083 N 
HETATM    4  C   UNL     1      42.052 -12.732   6.147  1.00  0.00     0.726 A 
HETATM    5  N   UNL     1      42.893 -13.656   6.647  1.00  0.00    -0.192 N 
HETATM    6  N   UNL     1      40.289 -12.074   4.925  1.00  0.00    -0.140 NA
HETATM    7  C   UNL     1      40.872 -11.081   5.613  1.00  0.00     0.166 A 
HETATM    8  N   UNL     1      41.944 -11.452   6.389  1.00  0.00    -0.046 NA
HETATM    9  C   UNL     1      42.882 -14.990   6.259  1.00  0.00     0.037 A 
HETATM   10  C   UNL     1      43.938 -15.865   6.886  1.00  0.00     0.070 C 
HETATM   11  H   UNL     1      43.622 -13.356   7.287  1.00  0.00     0.184 HD
ENDROOT
BRANCH   1  12
HETATM   12  C   UNL     1      42.002 -16.816   4.858  1.00  0.00     0.256 C 
HETATM   13  N   UNL     1      43.157 -17.090   4.155  1.00  0.00    -0.323 N 
HETATM   14  H   UNL     1      43.785 -16.319   3.988  1.00  0.00     0.169 HD
HETATM   15  O   UNL     1      41.050 -17.559   5.057  1.00  0.00    -0.267 OA
BRANCH  13  16
HETATM   16  C   UNL     1      43.538 -18.333   3.590  1.00  0.00     0.041 A 
HETATM   17  C   UNL     1      43.082 -18.664   2.294  1.00  0.00    -0.035 A 
HETATM   18  C   UNL     1      42.205 -17.747   1.484  1.00  0.00     0.050 C 
HETATM   19  C   UNL     1      43.466 -19.890   1.719  1.00  0.00     0.009 A 
HETATM   20  C   UNL     1      44.283 -20.782   2.410  1.00  0.00     0.001 A 
HETATM   21  C   UNL     1      44.734 -20.455   3.682  1.00  0.00     0.002 A 
HETATM   22  C   UNL     1      44.366 -19.240   4.263  1.00  0.00     0.030 A 
ENDBRANCH  13  16
ENDBRANCH   1  12
BRANCH   2  23
HETATM   23  C   UNL     1      40.838 -14.554   3.252  1.00  0.00    -0.028 A 
HETATM   24  C   UNL     1      41.906 -14.070   2.480  1.00  0.00     0.010 A 
HETATM   25  C   UNL     1      41.836 -14.067   1.085  1.00  0.00     0.008 A 
HETATM   26  C   UNL     1      40.699 -14.548   0.424  1.00  0.00    -0.055 A 
HETATM   27  C   UNL     1      39.639 -15.047   1.193  1.00  0.00     0.008 A 
HETATM   28  C   UNL     1      39.707 -15.055   2.590  1.00  0.00     0.010 A 
BRANCH  26  29
HETATM   29  C   UNL     1      40.632 -14.497  -1.092  1.00  0.00     0.010 C 
HETATM   30  C   UNL     1      40.988 -15.844  -1.725  1.00  0.00     0.015 C 
HETATM   31  C   UNL     1      39.261 -14.013  -1.570  1.00  0.00     0.015 C 
ENDBRANCH  26  29
ENDBRANCH   2  23
BRANCH   7  32
HETATM   32  C   UNL     1      40.401  -9.674   5.545  1.00  0.00     0.085 C 
BRANCH  32  33
HETATM   33  C   UNL     1      39.702  -9.340   4.229  1.00  0.00     0.034 C 
BRANCH  33  34
HETATM   34  C   UNL     1      38.187  -9.247   4.366  1.00  0.00     0.164 C 
BRANCH  34  35
HETATM   35  O   UNL     1      37.628 -10.558   4.362  1.00  0.00    -0.401 OA
HETATM   36  H   UNL     1      37.649 -10.884   3.447  1.00  0.00     0.209 HD
ENDBRANCH  34  35
ENDBRANCH  33  34
ENDBRANCH  32  33
ENDBRANCH   7  32
TORSDOF 8
ENDMDL
MODEL 4
REMARK VINA RESULT:      -8.6      1.524      2.064
REMARK  8 active torsions:
REMARK  status: ('A' for Active; 'I' for Inactive)
REMARK    1  A    between atoms: C_3  and  N_4 
REMARK       I    between atoms: N_4  and  C_5 
REMARK    2  A    between atoms: C_5  and  C_6 
REMARK    3  A    between atoms: C_7  and  C_8 
REMARK    4  A    between atoms: C_11  and  C_12 
REMARK    5  A    between atoms: C_21  and  C_22 
REMARK    6  A    between atoms: C_22  and  C_23 
REMARK    7  A    between atoms: C_23  and  C_24 
REMARK    8  A    between atoms: C_24  and  O_25 
ROOT
HETATM    1  C   UNL     1      41.403 -14.312   2.818  1.00  0.00     0.062 A 
HETATM    2  C   UNL     1      41.221 -15.186   1.583  1.00  0.00     0.202 A 
HETATM    3  N   UNL     1      41.488 -14.432   0.350  1.00  0.00    -0.083 N 
HETATM    4  C   UNL     1      41.780 -13.094   0.321  1.00  0.00     0.726 A 
HETATM    5  N   UNL     1      41.873 -12.411   1.476  1.00  0.00    -0.192 N 
HETATM    6  N   UNL     1      41.330 -14.923  -0.900  1.00  0.00    -0.140 NA
HETATM    7  C   UNL     1      41.652 -13.847  -1.634  1.00  0.00     0.166 A 
HETATM    8  N   UNL     1      41.914 -12.703  -0.919  1.00  0.00    -0.046 NA
HETATM    9  C   UNL     1      41.718 -12.997   2.726  1.00  0.00     0.037 A 
HETATM   10  C   UNL     1      41.914 -12.082   3.909  1.00  0.00     0.070 C 
HETATM   11  H   UNL     1      42.141 -11.431   1.443  1.00  0.00     0.184 HD
ENDROOT
BRANCH   1  12
HETATM   12  C   UNL     1      41.352 -14.980   4.143  1.00  0.00     0.256 C 
HETATM   13  N   UNL     1      42.586 -15.425   4.569  1.00  0.00    -0.323 N 
HETATM   14  H   UNL     1      43.353 -15.339   3.921  1.00  0.00     0.169 HD
HETATM   15  O   UNL     1      40.273 -15.106   4.705  1.00  0.00    -0.267 OA
BRANCH  13  16
HETATM   16  C   UNL     1      42.889 -16.044   5.808  1.00  0.00     0.041 A 
HETATM   17  C   UNL     1      42.502 -17.388   6.014  1.00  0.00    -0.035 A 
HETATM   18  C   UNL     1      41.780 -18.193   4.968  1.00  0.00     0.050 C 
HETATM   19  C   UNL     1      42.809 -18.015   7.236  1.00  0.00     0.009 A 
HETATM   20  C   UNL     1      43.484 -17.331   8.244  1.00  0.00     0.001 A 
HETATM   21  C   UNL     1      43.867 -16.012   8.040  1.00  0.00     0.002 A 
HETATM   22  C   UNL     1      43.574 -15.377   6.831  1.00  0.00     0.030 A 
ENDBRANCH  13  16
ENDBRANCH   1  12
BRANCH   2  23
HETATM   23  C   UNL     1      42.031 -16.474   1.621  1.00  0.00    -0.028 A 
HETATM   24  C   UNL     1      41.372 -17.713   1.633  1.00  0.00     0.010 A 
HETATM   25  C   UNL     1      42.093 -18.905   1.726  1.00  0.00     0.008 A 
HETATM   26  C   UNL     1      43.491 -18.892   1.809  1.00  0.00    -0.055 A 
HETATM   27  C   UNL     1      44.152 -17.656   1.779  1.00  0.00     0.008 A 
HETATM   28  C   UNL     1      43.433 -16.461   1.683  1.00  0.00     0.010 A 
BRANCH  26  29
HETATM   29  C   UNL     1      44.248 -20.201   1.948  1.00  0.00     0.010 C 
HETATM   30  C   UNL     1      44.880 -20.351   3.334  1.00  0.00     0.015 C 
HETATM   31  C   UNL     1      43.351 -21.397   1.623  1.00  0.00     0.015 C 
ENDBRANCH  26  29
ENDBRANCH   2  23
BRANCH   7  32
HETATM   32  C   UNL     1      41.724 -13.881  -3.117  1.00  0.00     0.085 C 
BRANCH  32  33
HETATM   33  C   UNL     1      41.187 -12.611  -3.772  1.00  0.00     0.034 C 
BRANCH  33  34
HETATM   34  C   UNL     1      42.289 -11.663  -4.229  1.00  0.00     0.164 C 
BRANCH  34  35
HETATM   35  O   UNL     1      42.629 -10.779  -3.164  1.00  0.00    -0.401 OA
HETATM   36  H   UNL     1      41.853 -10.224  -2.984  1.00  0.00     0.209 HD
ENDBRANCH  34  35
ENDBRANCH  33  34
ENDBRANCH  32  33
ENDBRANCH   7  32
TORSDOF 8
ENDMDL
MODEL 5
REMARK VINA RESULT:      -8.4      3.008      6.366
REMARK  8 active torsions:
REMARK  status: ('A' for Active; 'I' for Inactive)
REMARK    1  A    between atoms: C_3  and  N_4 
REMARK       I    between atoms: N_4  and  C_5 
REMARK    2  A    between atoms: C_5  and  C_6 
REMARK    3  A    between atoms: C_7  and  C_8 
REMARK    4  A    between atoms: C_11  and  C_12 
REMARK    5  A    between atoms: C_21  and  C_22 
REMARK    6  A    between atoms: C_22  and  C_23 
REMARK    7  A    between atoms: C_23  and  C_24 
REMARK    8  A    between atoms: C_24  and  O_25 
ROOT
HETATM    1  C   UNL     1      41.907 -15.390   5.361  1.00  0.00     0.062 A 
HETATM    2  C   UNL     1      40.865 -14.451   4.765  1.00  0.00     0.202 A 
HETATM    3  N   UNL     1      41.061 -13.070   5.228  1.00  0.00    -0.083 N 
HETATM    4  C   UNL     1      42.011 -12.699   6.142  1.00  0.00     0.726 A 
HETATM    5  N   UNL     1      42.853 -13.625   6.637  1.00  0.00    -0.192 N 
HETATM    6  N   UNL     1      40.243 -12.037   4.929  1.00  0.00    -0.140 NA
HETATM    7  C   UNL     1      40.829 -11.046   5.618  1.00  0.00     0.166 A 
HETATM    8  N   UNL     1      41.904 -11.420   6.389  1.00  0.00    -0.046 NA
HETATM    9  C   UNL     1      42.840 -14.958   6.245  1.00  0.00     0.037 A 
HETATM   10  C   UNL     1      43.898 -15.835   6.866  1.00  0.00     0.070 C 
HETATM   11  H   UNL     1      43.585 -13.327   7.275  1.00  0.00     0.184 HD
ENDROOT
BRANCH   1  12
HETATM   12  C   UNL     1      41.954 -16.780   4.841  1.00  0.00     0.256 C 
HETATM   13  N   UNL     1      43.093 -17.043   4.110  1.00  0.00    -0.323 N 
HETATM   14  H   UNL     1      43.712 -16.268   3.929  1.00  0.00     0.169 HD
HETATM   15  O   UNL     1      41.013 -17.530   5.062  1.00  0.00    -0.267 OA
BRANCH  13  16
HETATM   16  C   UNL     1      43.470 -18.283   3.533  1.00  0.00     0.041 A 
HETATM   17  C   UNL     1      44.355 -19.126   4.241  1.00  0.00    -0.035 A 
HETATM   18  C   UNL     1      44.916 -18.764   5.589  1.00  0.00     0.050 C 
HETATM   19  C   UNL     1      44.725 -20.364   3.681  1.00  0.00     0.009 A 
HETATM   20  C   UNL     1      44.236 -20.765   2.441  1.00  0.00     0.001 A 
HETATM   21  C   UNL     1      43.363 -19.938   1.747  1.00  0.00     0.002 A 
HETATM   22  C   UNL     1      42.983 -18.709   2.291  1.00  0.00     0.030 A 
ENDBRANCH  13  16
ENDBRANCH   1  12
BRANCH   2  23
HETATM   23  C   UNL     1      40.785 -14.512   3.246  1.00  0.00    -0.028 A 
HETATM   24  C   UNL     1      41.877 -14.088   2.473  1.00  0.00     0.010 A 
HETATM   25  C   UNL     1      41.805 -14.081   1.079  1.00  0.00     0.008 A 
HETATM   26  C   UNL     1      40.642 -14.498   0.419  1.00  0.00    -0.055 A 
HETATM   27  C   UNL     1      39.557 -14.939   1.190  1.00  0.00     0.008 A 
HETATM   28  C   UNL     1      39.627 -14.950   2.586  1.00  0.00     0.010 A 
BRANCH  26  29
HETATM   29  C   UNL     1      40.576 -14.444  -1.097  1.00  0.00     0.010 C 
HETATM   30  C   UNL     1      41.020 -15.761  -1.737  1.00  0.00     0.015 C 
HETATM   31  C   UNL     1      39.178 -14.046  -1.577  1.00  0.00     0.015 C 
ENDBRANCH  26  29
ENDBRANCH   2  23
BRANCH   7  32
HETATM   32  C   UNL     1      40.358  -9.639   5.555  1.00  0.00     0.085 C 
BRANCH  32  33
HETATM   33  C   UNL     1      39.657  -9.300   4.242  1.00  0.00     0.034 C 
BRANCH  33  34
HETATM   34  C   UNL     1      38.142  -9.202   4.383  1.00  0.00     0.164 C 
BRANCH  34  35
HETATM   35  O   UNL     1      37.577 -10.510   4.366  1.00  0.00    -0.401 OA
HETATM   36  H   UNL     1      36.821 -10.511   4.976  1.00  0.00     0.209 HD
ENDBRANCH  34  35
ENDBRANCH  33  34
ENDBRANCH  32  33
ENDBRANCH   7  32
TORSDOF 8
ENDMDL
MODEL 6
REMARK VINA RESULT:      -8.1      2.629      5.866
REMARK  8 active torsions:
REMARK  status: ('A' for Active; 'I' for Inactive)
REMARK    1  A    between atoms: C_3  and  N_4 
REMARK       I    between atoms: N_4  and  C_5 
REMARK    2  A    between atoms: C_5  and  C_6 
REMARK    3  A    between atoms: C_7  and  C_8 
REMARK    4  A    between atoms: C_11  and  C_12 
REMARK    5  A    between atoms: C_21  and  C_22 
REMARK    6  A    between atoms: C_22  and  C_23 
REMARK    7  A    between atoms: C_23  and  C_24 
REMARK    8  A    between atoms: C_24  and  O_25 
ROOT
HETATM    1  C   UNL     1      42.233 -14.815   3.797  1.00  0.00     0.062 A 
HETATM    2  C   UNL     1      41.001 -14.403   2.999  1.00  0.00     0.202 A 
HETATM    3  N   UNL     1      40.395 -13.181   3.545  1.00  0.00    -0.083 N 
HETATM    4  C   UNL     1      40.839 -12.547   4.675  1.00  0.00     0.726 A 
HETATM    5  N   UNL     1      41.914 -13.027   5.325  1.00  0.00    -0.192 N 
HETATM    6  N   UNL     1      39.248 -12.626   3.093  1.00  0.00    -0.140 NA
HETATM    7  C   UNL     1      39.121 -11.591   3.938  1.00  0.00     0.166 A 
HETATM    8  N   UNL     1      40.068 -11.524   4.933  1.00  0.00    -0.046 NA
HETATM    9  C   UNL     1      42.638 -14.131   4.895  1.00  0.00     0.037 A 
HETATM   10  C   UNL     1      43.849 -14.486   5.722  1.00  0.00     0.070 C 
HETATM   11  H   UNL     1      42.263 -12.518   6.132  1.00  0.00     0.184 HD
ENDROOT
BRANCH   1  12
HETATM   12  C   UNL     1      43.061 -15.922   3.255  1.00  0.00     0.256 C 
HETATM   13  N   UNL     1      42.697 -17.158   3.745  1.00  0.00    -0.323 N 
HETATM   14  H   UNL     1      41.993 -17.176   4.466  1.00  0.00     0.169 HD
HETATM   15  O   UNL     1      43.975 -15.658   2.485  1.00  0.00    -0.267 OA
BRANCH  13  16
HETATM   16  C   UNL     1      43.243 -18.415   3.383  1.00  0.00     0.041 A 
HETATM   17  C   UNL     1      44.163 -19.039   4.257  1.00  0.00    -0.035 A 
HETATM   18  C   UNL     1      44.586 -18.422   5.562  1.00  0.00     0.050 C 
HETATM   19  C   UNL     1      44.701 -20.293   3.912  1.00  0.00     0.009 A 
HETATM   20  C   UNL     1      44.345 -20.924   2.723  1.00  0.00     0.001 A 
HETATM   21  C   UNL     1      43.439 -20.313   1.866  1.00  0.00     0.002 A 
HETATM   22  C   UNL     1      42.892 -19.071   2.196  1.00  0.00     0.030 A 
ENDBRANCH  13  16
ENDBRANCH   1  12
BRANCH   2  23
HETATM   23  C   UNL     1      41.258 -14.266   1.506  1.00  0.00    -0.028 A 
HETATM   24  C   UNL     1      41.931 -13.137   1.015  1.00  0.00     0.010 A 
HETATM   25  C   UNL     1      42.127 -12.962  -0.357  1.00  0.00     0.008 A 
HETATM   26  C   UNL     1      41.658 -13.910  -1.275  1.00  0.00    -0.055 A 
HETATM   27  C   UNL     1      41.001 -15.048  -0.784  1.00  0.00     0.008 A 
HETATM   28  C   UNL     1      40.806 -15.227   0.589  1.00  0.00     0.010 A 
BRANCH  26  29
HETATM   29  C   UNL     1      41.850 -13.677  -2.762  1.00  0.00     0.010 C 
HETATM   30  C   UNL     1      40.618 -14.093  -3.570  1.00  0.00     0.015 C 
HETATM   31  C   UNL     1      42.228 -12.222  -3.051  1.00  0.00     0.015 C 
ENDBRANCH  26  29
ENDBRANCH   2  23
BRANCH   7  32
HETATM   32  C   UNL     1      38.039 -10.583   3.814  1.00  0.00     0.085 C 
BRANCH  32  33
HETATM   33  C   UNL     1      37.934  -9.986   2.412  1.00  0.00     0.034 C 
BRANCH  33  34
HETATM   34  C   UNL     1      36.706 -10.467   1.649  1.00  0.00     0.164 C 
BRANCH  34  35
HETATM   35  O   UNL     1      36.947 -11.774   1.135  1.00  0.00    -0.401 OA
HETATM   36  H   UNL     1      36.404 -11.881   0.337  1.00  0.00     0.209 HD
ENDBRANCH  34  35
ENDBRANCH  33  34
ENDBRANCH  32  33
ENDBRANCH   7  32
TORSDOF 8
ENDMDL
MODEL 7
REMARK VINA RESULT:      -8.1      3.290      6.654
REMARK  8 active torsions:
REMARK  status: ('A' for Active; 'I' for Inactive)
REMARK    1  A    between atoms: C_3  and  N_4 
REMARK       I    between atoms: N_4  and  C_5 
REMARK    2  A    between atoms: C_5  and  C_6 
REMARK    3  A    between atoms: C_7  and  C_8 
REMARK    4  A    between atoms: C_11  and  C_12 
REMARK    5  A    between atoms: C_21  and  C_22 
REMARK    6  A    between atoms: C_22  and  C_23 
REMARK    7  A    between atoms: C_23  and  C_24 
REMARK    8  A    between atoms: C_24  and  O_25 
ROOT
HETATM    1  C   UNL     1      43.359 -15.485   4.698  1.00  0.00     0.062 A 
HETATM    2  C   UNL     1      43.306 -16.033   3.277  1.00  0.00     0.202 A 
HETATM    3  N   UNL     1      43.370 -17.501   3.266  1.00  0.00    -0.083 N 
HETATM    4  C   UNL     1      43.540 -18.266   4.390  1.00  0.00     0.726 A 
HETATM    5  N   UNL     1      43.619 -17.669   5.593  1.00  0.00    -0.192 N 
HETATM    6  N   UNL     1      43.422 -18.259   2.149  1.00  0.00    -0.140 NA
HETATM    7  C   UNL     1      43.515 -19.486   2.683  1.00  0.00     0.166 A 
HETATM    8  N   UNL     1      43.610 -19.527   4.053  1.00  0.00    -0.046 NA
HETATM    9  C   UNL     1      43.504 -16.296   5.774  1.00  0.00     0.037 A 
HETATM   10  C   UNL     1      43.560 -15.816   7.203  1.00  0.00     0.070 C 
HETATM   11  H   UNL     1      43.693 -18.251   6.422  1.00  0.00     0.184 HD
ENDROOT
BRANCH   1  12
HETATM   12  C   UNL     1      43.115 -14.033   4.882  1.00  0.00     0.256 C 
HETATM   13  N   UNL     1      41.872 -13.758   5.411  1.00  0.00    -0.323 N 
HETATM   14  H   UNL     1      41.241 -14.536   5.528  1.00  0.00     0.169 HD
HETATM   15  O   UNL     1      43.977 -13.236   4.535  1.00  0.00    -0.267 OA
BRANCH  13  16
HETATM   16  C   UNL     1      41.355 -12.485   5.763  1.00  0.00     0.041 A 
HETATM   17  C   UNL     1      40.258 -11.967   5.037  1.00  0.00    -0.035 A 
HETATM   18  C   UNL     1      39.611 -12.715   3.903  1.00  0.00     0.050 C 
HETATM   19  C   UNL     1      39.731 -10.710   5.388  1.00  0.00     0.009 A 
HETATM   20  C   UNL     1      40.276  -9.969   6.433  1.00  0.00     0.001 A 
HETATM   21  C   UNL     1      41.352 -10.479   7.148  1.00  0.00     0.002 A 
HETATM   22  C   UNL     1      41.883 -11.728   6.816  1.00  0.00     0.030 A 
ENDBRANCH  13  16
ENDBRANCH   1  12
BRANCH   2  23
HETATM   23  C   UNL     1      42.113 -15.533   2.474  1.00  0.00    -0.028 A 
HETATM   24  C   UNL     1      40.848 -16.106   2.674  1.00  0.00     0.010 A 
HETATM   25  C   UNL     1      39.752 -15.703   1.908  1.00  0.00     0.008 A 
HETATM   26  C   UNL     1      39.890 -14.716   0.923  1.00  0.00    -0.055 A 
HETATM   27  C   UNL     1      41.149 -14.131   0.735  1.00  0.00     0.008 A 
HETATM   28  C   UNL     1      42.248 -14.530   1.502  1.00  0.00     0.010 A 
BRANCH  26  29
HETATM   29  C   UNL     1      38.691 -14.324   0.078  1.00  0.00     0.010 C 
HETATM   30  C   UNL     1      37.513 -13.860   0.937  1.00  0.00     0.015 C 
HETATM   31  C   UNL     1      39.067 -13.261  -0.957  1.00  0.00     0.015 C 
ENDBRANCH  26  29
ENDBRANCH   2  23
BRANCH   7  32
HETATM   32  C   UNL     1      43.514 -20.721   1.858  1.00  0.00     0.085 C 
BRANCH  32  33
HETATM   33  C   UNL     1      44.699 -21.638   2.152  1.00  0.00     0.034 C 
BRANCH  33  34
HETATM   34  C   UNL     1      44.448 -22.583   3.321  1.00  0.00     0.164 C 
BRANCH  34  35
HETATM   35  O   UNL     1      45.124 -22.097   4.478  1.00  0.00    -0.401 OA
HETATM   36  H   UNL     1      44.448 -21.854   5.133  1.00  0.00     0.209 HD
ENDBRANCH  34  35
ENDBRANCH  33  34
ENDBRANCH  32  33
ENDBRANCH   7  32
TORSDOF 8
ENDMDL
MODEL 8
REMARK VINA RESULT:      -7.7      3.215      7.864
REMARK  8 active torsions:
REMARK  status: ('A' for Active; 'I' for Inactive)
REMARK    1  A    between atoms: C_3  and  N_4 
REMARK       I    between atoms: N_4  and  C_5 
REMARK    2  A    between atoms: C_5  and  C_6 
REMARK    3  A    between atoms: C_7  and  C_8 
REMARK    4  A    between atoms: C_11  and  C_12 
REMARK    5  A    between atoms: C_21  and  C_22 
REMARK    6  A    between atoms: C_22  and  C_23 
REMARK    7  A    between atoms: C_23  and  C_24 
REMARK    8  A    between atoms: C_24  and  O_25 
ROOT
HETATM    1  C   UNL     1      39.863 -11.976   2.089  1.00  0.00     0.062 A 
HETATM    2  C   UNL     1      40.876 -12.125   3.218  1.00  0.00     0.202 A 
HETATM    3  N   UNL     1      40.271 -11.823   4.523  1.00  0.00    -0.083 N 
HETATM    4  C   UNL     1      38.984 -11.385   4.685  1.00  0.00     0.726 A 
HETATM    5  N   UNL     1      38.190 -11.248   3.607  1.00  0.00    -0.192 N 
HETATM    6  N   UNL     1      40.946 -11.795   5.694  1.00  0.00    -0.140 NA
HETATM    7  C   UNL     1      39.968 -11.433   6.538  1.00  0.00     0.166 A 
HETATM    8  N   UNL     1      38.756 -11.155   5.951  1.00  0.00    -0.046 NA
HETATM    9  C   UNL     1      38.593 -11.561   2.315  1.00  0.00     0.037 A 
HETATM   10  C   UNL     1      37.545 -11.398   1.242  1.00  0.00     0.070 C 
HETATM   11  H   UNL     1      37.222 -10.972   3.747  1.00  0.00     0.184 HD
ENDROOT
BRANCH   1  12
HETATM   12  C   UNL     1      40.274 -12.429   0.736  1.00  0.00     0.256 C 
HETATM   13  N   UNL     1      39.544 -13.507   0.283  1.00  0.00    -0.323 N 
HETATM   14  H   UNL     1      38.892 -13.924   0.931  1.00  0.00     0.169 HD
HETATM   15  O   UNL     1      41.202 -11.861   0.175  1.00  0.00    -0.267 OA
BRANCH  13  16
HETATM   16  C   UNL     1      39.645 -14.136  -0.983  1.00  0.00     0.041 A 
HETATM   17  C   UNL     1      40.685 -15.068  -1.204  1.00  0.00    -0.035 A 
HETATM   18  C   UNL     1      41.692 -15.424  -0.144  1.00  0.00     0.050 C 
HETATM   19  C   UNL     1      40.785 -15.707  -2.454  1.00  0.00     0.009 A 
HETATM   20  C   UNL     1      39.880 -15.431  -3.476  1.00  0.00     0.001 A 
HETATM   21  C   UNL     1      38.857 -14.518  -3.258  1.00  0.00     0.002 A 
HETATM   22  C   UNL     1      38.741 -13.879  -2.021  1.00  0.00     0.030 A 
ENDBRANCH  13  16
ENDBRANCH   1  12
BRANCH   2  23
HETATM   23  C   UNL     1      41.573 -13.478   3.239  1.00  0.00    -0.028 A 
HETATM   24  C   UNL     1      42.958 -13.553   3.023  1.00  0.00     0.010 A 
HETATM   25  C   UNL     1      43.609 -14.788   2.980  1.00  0.00     0.008 A 
HETATM   26  C   UNL     1      42.895 -15.980   3.154  1.00  0.00    -0.055 A 
HETATM   27  C   UNL     1      41.515 -15.906   3.387  1.00  0.00     0.008 A 
HETATM   28  C   UNL     1      40.860 -14.671   3.433  1.00  0.00     0.010 A 
BRANCH  26  29
HETATM   29  C   UNL     1      43.620 -17.311   3.064  1.00  0.00     0.010 C 
HETATM   30  C   UNL     1      42.761 -18.467   3.581  1.00  0.00     0.015 C 
HETATM   31  C   UNL     1      44.104 -17.583   1.638  1.00  0.00     0.015 C 
ENDBRANCH  26  29
ENDBRANCH   2  23
BRANCH   7  32
HETATM   32  C   UNL     1      40.170 -11.341   8.006  1.00  0.00     0.085 C 
BRANCH  32  33
HETATM   33  C   UNL     1      41.199 -10.285   8.403  1.00  0.00     0.034 C 
BRANCH  33  34
HETATM   34  C   UNL     1      41.867 -10.577   9.742  1.00  0.00     0.164 C 
BRANCH  34  35
HETATM   35  O   UNL     1      41.047 -11.462  10.500  1.00  0.00    -0.401 OA
HETATM   36  H   UNL     1      41.050 -12.323  10.051  1.00  0.00     0.209 HD
ENDBRANCH  34  35
ENDBRANCH  33  34
ENDBRANCH  32  33
ENDBRANCH   7  32
TORSDOF 8
ENDMDL
MODEL 9
REMARK VINA RESULT:      -7.7      2.898      6.960
REMARK  8 active torsions:
REMARK  status: ('A' for Active; 'I' for Inactive)
REMARK    1  A    between atoms: C_3  and  N_4 
REMARK       I    between atoms: N_4  and  C_5 
REMARK    2  A    between atoms: C_5  and  C_6 
REMARK    3  A    between atoms: C_7  and  C_8 
REMARK    4  A    between atoms: C_11  and  C_12 
REMARK    5  A    between atoms: C_21  and  C_22 
REMARK    6  A    between atoms: C_22  and  C_23 
REMARK    7  A    between atoms: C_23  and  C_24 
REMARK    8  A    between atoms: C_24  and  O_25 
ROOT
HETATM    1  C   UNL     1      41.513 -14.700   3.510  1.00  0.00     0.062 A 
HETATM    2  C   UNL     1      42.464 -15.257   2.456  1.00  0.00     0.202 A 
HETATM    3  N   UNL     1      42.833 -16.648   2.751  1.00  0.00    -0.083 N 
HETATM    4  C   UNL     1      42.435 -17.322   3.875  1.00  0.00     0.726 A 
HETATM    5  N   UNL     1      41.627 -16.713   4.762  1.00  0.00    -0.192 N 
HETATM    6  N   UNL     1      43.722 -17.374   2.037  1.00  0.00    -0.140 NA
HETATM    7  C   UNL     1      43.726 -18.520   2.734  1.00  0.00     0.166 A 
HETATM    8  N   UNL     1      42.964 -18.517   3.879  1.00  0.00    -0.046 NA
HETATM    9  C   UNL     1      41.135 -15.426   4.590  1.00  0.00     0.037 A 
HETATM   10  C   UNL     1      40.196 -14.932   5.663  1.00  0.00     0.070 C 
HETATM   11  H   UNL     1      41.298 -17.242   5.565  1.00  0.00     0.184 HD
ENDROOT
BRANCH   1  12
HETATM   12  C   UNL     1      40.904 -13.371   3.248  1.00  0.00     0.256 C 
HETATM   13  N   UNL     1      39.612 -13.455   2.773  1.00  0.00    -0.323 N 
HETATM   14  H   UNL     1      39.258 -14.376   2.569  1.00  0.00     0.169 HD
HETATM   15  O   UNL     1      41.573 -12.363   3.433  1.00  0.00    -0.267 OA
BRANCH  13  16
HETATM   16  C   UNL     1      38.737 -12.377   2.485  1.00  0.00     0.041 A 
HETATM   17  C   UNL     1      38.001 -12.397   1.279  1.00  0.00    -0.035 A 
HETATM   18  C   UNL     1      38.108 -13.520   0.283  1.00  0.00     0.050 C 
HETATM   19  C   UNL     1      37.120 -11.338   0.990  1.00  0.00     0.009 A 
HETATM   20  C   UNL     1      36.967 -10.272   1.873  1.00  0.00     0.001 A 
HETATM   21  C   UNL     1      37.687 -10.254   3.060  1.00  0.00     0.002 A 
HETATM   22  C   UNL     1      38.562 -11.300   3.363  1.00  0.00     0.030 A 
ENDBRANCH  13  16
ENDBRANCH   1  12
BRANCH   2  23
HETATM   23  C   UNL     1      41.945 -15.120   1.032  1.00  0.00    -0.028 A 
HETATM   24  C   UNL     1      41.295 -16.202   0.419  1.00  0.00     0.010 A 
HETATM   25  C   UNL     1      40.863 -16.118  -0.906  1.00  0.00     0.008 A 
HETATM   26  C   UNL     1      41.066 -14.951  -1.654  1.00  0.00    -0.055 A 
HETATM   27  C   UNL     1      41.699 -13.863  -1.037  1.00  0.00     0.008 A 
HETATM   28  C   UNL     1      42.131 -13.943   0.290  1.00  0.00     0.010 A 
BRANCH  26  29
HETATM   29  C   UNL     1      40.621 -14.900  -3.104  1.00  0.00     0.010 C 
HETATM   30  C   UNL     1      39.860 -16.162  -3.515  1.00  0.00     0.015 C 
HETATM   31  C   UNL     1      39.791 -13.644  -3.385  1.00  0.00     0.015 C 
ENDBRANCH  26  29
ENDBRANCH   2  23
BRANCH   7  32
HETATM   32  C   UNL     1      44.496 -19.716   2.307  1.00  0.00     0.085 C 
BRANCH  32  33
HETATM   33  C   UNL     1      44.404 -20.874   3.298  1.00  0.00     0.034 C 
BRANCH  33  34
HETATM   34  C   UNL     1      44.587 -22.237   2.642  1.00  0.00     0.164 C 
BRANCH  34  35
HETATM   35  O   UNL     1      44.021 -22.216   1.334  1.00  0.00    -0.401 OA
HETATM   36  H   UNL     1      43.101 -21.916   1.418  1.00  0.00     0.209 HD
ENDBRANCH  34  35
ENDBRANCH  33  34
ENDBRANCH  32  33
ENDBRANCH   7  32
TORSDOF 8
ENDMDL
MODEL 10
REMARK VINA RESULT:      -7.7      2.936      5.856
REMARK  8 active torsions:
REMARK  status: ('A' for Active; 'I' for Inactive)
REMARK    1  A    between atoms: C_3  and  N_4 
REMARK       I    between atoms: N_4  and  C_5 
REMARK    2  A    between atoms: C_5  and  C_6 
REMARK    3  A    between atoms: C_7  and  C_8 
REMARK    4  A    between atoms: C_11  and  C_12 
REMARK    5  A    between atoms: C_21  and  C_22 
REMARK    6  A    between atoms: C_22  and  C_23 
REMARK    7  A    between atoms: C_23  and  C_24 
REMARK    8  A    between atoms: C_24  and  O_25 
ROOT
HETATM    1  C   UNL     1      42.016 -15.456   2.048  1.00  0.00     0.062 A 
HETATM    2  C   UNL     1      42.438 -13.997   2.177  1.00  0.00     0.202 A 
HETATM    3  N   UNL     1      42.196 -13.258   0.930  1.00  0.00    -0.083 N 
HETATM    4  C   UNL     1      41.728 -13.834  -0.220  1.00  0.00     0.726 A 
HETATM    5  N   UNL     1      41.428 -15.145  -0.231  1.00  0.00    -0.192 N 
HETATM    6  N   UNL     1      42.545 -11.968   0.723  1.00  0.00    -0.140 NA
HETATM    7  C   UNL     1      42.154 -11.805  -0.550  1.00  0.00     0.166 A 
HETATM    8  N   UNL     1      41.667 -12.934  -1.166  1.00  0.00    -0.046 NA
HETATM    9  C   UNL     1      41.535 -15.963   0.887  1.00  0.00     0.037 A 
HETATM   10  C   UNL     1      41.098 -17.395   0.698  1.00  0.00     0.070 C 
HETATM   11  H   UNL     1      41.033 -15.549  -1.076  1.00  0.00     0.184 HD
ENDROOT
BRANCH   1  12
HETATM   12  C   UNL     1      42.024 -16.283   3.281  1.00  0.00     0.256 C 
HETATM   13  N   UNL     1      43.285 -16.719   3.630  1.00  0.00    -0.323 N 
HETATM   14  H   UNL     1      44.034 -16.519   2.985  1.00  0.00     0.169 HD
HETATM   15  O   UNL     1      40.963 -16.527   3.840  1.00  0.00    -0.267 OA
BRANCH  13  16
HETATM   16  C   UNL     1      43.642 -17.471   4.778  1.00  0.00     0.041 A 
HETATM   17  C   UNL     1      44.032 -18.819   4.618  1.00  0.00    -0.035 A 
HETATM   18  C   UNL     1      44.088 -19.494   3.274  1.00  0.00     0.050 C 
HETATM   19  C   UNL     1      44.401 -19.570   5.751  1.00  0.00     0.009 A 
HETATM   20  C   UNL     1      44.381 -19.005   7.024  1.00  0.00     0.001 A 
HETATM   21  C   UNL     1      44.000 -17.679   7.180  1.00  0.00     0.002 A 
HETATM   22  C   UNL     1      43.637 -16.919   6.065  1.00  0.00     0.030 A 
ENDBRANCH  13  16
ENDBRANCH   1  12
BRANCH   2  23
HETATM   23  C   UNL     1      41.812 -13.283   3.366  1.00  0.00    -0.028 A 
HETATM   24  C   UNL     1      40.446 -12.965   3.348  1.00  0.00     0.010 A 
HETATM   25  C   UNL     1      39.862 -12.258   4.402  1.00  0.00     0.008 A 
HETATM   26  C   UNL     1      40.627 -11.852   5.503  1.00  0.00    -0.055 A 
HETATM   27  C   UNL     1      41.989 -12.185   5.530  1.00  0.00     0.008 A 
HETATM   28  C   UNL     1      42.575 -12.894   4.478  1.00  0.00     0.010 A 
BRANCH  26  29
HETATM   29  C   UNL     1      39.977 -11.053   6.618  1.00  0.00     0.010 C 
HETATM   30  C   UNL     1      39.317 -11.956   7.660  1.00  0.00     0.015 C 
HETATM   31  C   UNL     1      40.981 -10.101   7.275  1.00  0.00     0.015 C 
ENDBRANCH  26  29
ENDBRANCH   2  23
BRANCH   7  32
HETATM   32  C   UNL     1      42.236 -10.500  -1.253  1.00  0.00     0.085 C 
BRANCH  32  33
HETATM   33  C   UNL     1      43.649  -9.921  -1.278  1.00  0.00     0.034 C 
BRANCH  33  34
HETATM   34  C   UNL     1      43.758  -8.583  -0.556  1.00  0.00     0.164 C 
BRANCH  34  35
HETATM   35  O   UNL     1      44.814  -7.818  -1.130  1.00  0.00    -0.401 OA
HETATM   36  H   UNL     1      44.427  -7.256  -1.821  1.00  0.00     0.209 HD
ENDBRANCH  34  35
ENDBRANCH  33  34
ENDBRANCH  32  33
ENDBRANCH   7  32
TORSDOF 8
ENDMDL
