MODEL 1
REMARK VINA RESULT:      -8.8      0.000      0.000
REMARK  6 active torsions:
REMARK  status: ('A' for Active; 'I' for Inactive)
REMARK    1  A    between atoms: C_2  and  N_3 
REMARK    2  A    between atoms: C_7  and  N_8 
REMARK       I    between atoms: N_8  and  C_9 
REMARK       I    between atoms: C_9  and  N_10 
REMARK    3  A    between atoms: N_10  and  C_11 
REMARK    4  A    between atoms: C_11  and  C_12 
REMARK    5  A    between atoms: C_15  and  N_16 
REMARK       I    between atoms: N_16  and  C_17 
REMARK    6  A    between atoms: C_17  and  C_18 
ROOT
HETATM    1  N   UNL     1      39.958 -11.666   8.870  1.00  0.00    -0.338 N 
HETATM    2  C   UNL     1      39.521 -11.777   7.569  1.00  0.00     0.316 C 
HETATM    3  N   UNL     1      39.665 -13.061   7.115  1.00  0.00    -0.339 N 
HETATM    4  O   UNL     1      39.143 -10.839   6.887  1.00  0.00    -0.247 OA
HETATM    5  H   UNL     1      39.656 -12.472   9.406  1.00  0.00     0.164 HD
HETATM    6  H   UNL     1      40.224 -13.696   7.663  1.00  0.00     0.164 HD
ENDROOT
BRANCH   3   7
HETATM    7  C   UNL     1      39.558 -13.356   5.699  1.00  0.00     0.162 C 
BRANCH   7   8
HETATM    8  C   UNL     1      40.185 -14.680   5.312  1.00  0.00    -0.040 A 
HETATM    9  C   UNL     1      40.580 -15.639   6.255  1.00  0.00     0.011 A 
HETATM   10  C   UNL     1      41.221 -16.818   5.859  1.00  0.00     0.030 A 
HETATM   11  C   UNL     1      41.455 -17.077   4.509  1.00  0.00     0.035 A 
HETATM   12  C   UNL     1      40.991 -16.163   3.558  1.00  0.00     0.030 A 
HETATM   13  C   UNL     1      40.368 -14.974   3.954  1.00  0.00     0.011 A 
BRANCH  11  14
HETATM   14  N   UNL     1      42.146 -18.205   4.037  1.00  0.00    -0.321 N 
HETATM   15  C   UNL     1      43.342 -18.247   3.341  1.00  0.00     0.279 C 
HETATM   16  O   UNL     1      44.015 -17.269   3.028  1.00  0.00    -0.265 OA
HETATM   17  H   UNL     1      41.686 -19.106   4.137  1.00  0.00     0.169 HD
BRANCH  15  18
HETATM   18  C   UNL     1      43.714 -19.600   2.963  1.00  0.00     0.142 A 
HETATM   19  O   UNL     1      44.458 -20.358   3.833  1.00  0.00    -0.317 OA
HETATM   20  C   UNL     1      44.649 -21.568   3.248  1.00  0.00     0.143 A 
HETATM   21  C   UNL     1      44.041 -21.610   2.016  1.00  0.00     0.027 A 
HETATM   22  C   UNL     1      43.440 -20.342   1.830  1.00  0.00     0.045 A 
ENDBRANCH  15  18
ENDBRANCH  11  14
ENDBRANCH   7   8
ENDBRANCH   3   7
BRANCH   1  23
HETATM   23  C   UNL     1      39.967 -10.399   9.608  1.00  0.00     0.089 C 
HETATM   24  C   UNL     1      41.082  -9.417   9.242  1.00  0.00     0.053 C 
HETATM   25  C   UNL     1      42.458  -9.999   9.509  1.00  0.00     0.237 C 
HETATM   26  N   UNL     1      42.599 -10.350  10.990  1.00  0.00    -0.067 N 
HETATM   27  H   UNL     1      42.513  -9.471  11.517  1.00  0.00     0.280 HD
HETATM   28  C   UNL     1      41.477 -11.271  11.438  1.00  0.00     0.237 C 
HETATM   29  C   UNL     1      40.102 -10.698  11.100  1.00  0.00     0.053 C 
BRANCH  26  30
HETATM   30  C   UNL     1      43.999 -10.922  11.307  1.00  0.00     0.180 C 
HETATM   31  C   UNL     1      44.954 -10.671  10.138  1.00  0.00     0.039 C 
HETATM   32  C   UNL     1      43.909 -12.429  11.558  1.00  0.00     0.039 C 
ENDBRANCH  26  30
ENDBRANCH   1  23
TORSDOF 6
ENDMDL
MODEL 2
REMARK VINA RESULT:      -8.1      4.567      8.052
REMARK  6 active torsions:
REMARK  status: ('A' for Active; 'I' for Inactive)
REMARK    1  A    between atoms: C_2  and  N_3 
REMARK    2  A    between atoms: C_7  and  N_8 
REMARK       I    between atoms: N_8  and  C_9 
REMARK       I    between atoms: C_9  and  N_10 
REMARK    3  A    between atoms: N_10  and  C_11 
REMARK    4  A    between atoms: C_11  and  C_12 
REMARK    5  A    between atoms: C_15  and  N_16 
REMARK       I    between atoms: N_16  and  C_17 
REMARK    6  A    between atoms: C_17  and  C_18 
ROOT
HETATM    1  N   UNL     1      42.846 -17.727   7.311  1.00  0.00    -0.338 N 
HETATM    2  C   UNL     1      42.646 -16.409   6.967  1.00  0.00     0.316 C 
HETATM    3  N   UNL     1      41.332 -16.183   6.653  1.00  0.00    -0.339 N 
HETATM    4  O   UNL     1      43.536 -15.581   6.867  1.00  0.00    -0.247 OA
HETATM    5  H   UNL     1      42.082 -18.052   7.893  1.00  0.00     0.164 HD
HETATM    6  H   UNL     1      40.735 -16.982   6.515  1.00  0.00     0.164 HD
ENDROOT
BRANCH   3   7
HETATM    7  C   UNL     1      40.938 -14.961   5.978  1.00  0.00     0.162 C 
BRANCH   7   8
HETATM    8  C   UNL     1      40.646 -15.156   4.504  1.00  0.00    -0.040 A 
HETATM    9  C   UNL     1      41.089 -16.274   3.783  1.00  0.00     0.011 A 
HETATM   10  C   UNL     1      40.860 -16.380   2.406  1.00  0.00     0.030 A 
HETATM   11  C   UNL     1      40.158 -15.385   1.727  1.00  0.00     0.035 A 
HETATM   12  C   UNL     1      39.643 -14.308   2.455  1.00  0.00     0.030 A 
HETATM   13  C   UNL     1      39.889 -14.190   3.827  1.00  0.00     0.011 A 
BRANCH  11  14
HETATM   14  N   UNL     1      39.941 -15.389   0.340  1.00  0.00    -0.321 N 
HETATM   15  C   UNL     1      40.726 -14.822  -0.651  1.00  0.00     0.279 C 
HETATM   16  O   UNL     1      41.777 -14.217  -0.463  1.00  0.00    -0.265 OA
HETATM   17  H   UNL     1      39.064 -15.780   0.008  1.00  0.00     0.169 HD
BRANCH  15  18
HETATM   18  C   UNL     1      40.143 -14.976  -1.973  1.00  0.00     0.142 A 
HETATM   19  O   UNL     1      39.073 -14.193  -2.329  1.00  0.00    -0.317 OA
HETATM   20  C   UNL     1      38.739 -14.524  -3.603  1.00  0.00     0.143 A 
HETATM   21  C   UNL     1      39.575 -15.504  -4.081  1.00  0.00     0.027 A 
HETATM   22  C   UNL     1      40.479 -15.799  -3.032  1.00  0.00     0.045 A 
ENDBRANCH  15  18
ENDBRANCH  11  14
ENDBRANCH   7   8
ENDBRANCH   3   7
BRANCH   1  23
HETATM   23  C   UNL     1      44.163 -18.275   7.654  1.00  0.00     0.089 C 
HETATM   24  C   UNL     1      45.244 -18.147   6.578  1.00  0.00     0.053 C 
HETATM   25  C   UNL     1      44.865 -18.883   5.306  1.00  0.00     0.237 C 
HETATM   26  N   UNL     1      44.663 -20.369   5.602  1.00  0.00    -0.067 N 
HETATM   27  H   UNL     1      45.565 -20.736   5.932  1.00  0.00     0.280 HD
HETATM   28  C   UNL     1      43.648 -20.566   6.716  1.00  0.00     0.237 C 
HETATM   29  C   UNL     1      44.011 -19.764   7.964  1.00  0.00     0.053 C 
BRANCH  26  30
HETATM   30  C   UNL     1      44.303 -21.159   4.324  1.00  0.00     0.180 C 
HETATM   31  C   UNL     1      44.772 -22.611   4.446  1.00  0.00     0.039 C 
HETATM   32  C   UNL     1      44.970 -20.523   3.103  1.00  0.00     0.039 C 
ENDBRANCH  26  30
ENDBRANCH   1  23
TORSDOF 6
ENDMDL
MODEL 3
REMARK VINA RESULT:      -8.1      5.146     10.107
REMARK  6 active torsions:
REMARK  status: ('A' for Active; 'I' for Inactive)
REMARK    1  A    between atoms: C_2  and  N_3 
REMARK    2  A    between atoms: C_7  and  N_8 
REMARK       I    between atoms: N_8  and  C_9 
REMARK       I    between atoms: C_9  and  N_10 
REMARK    3  A    between atoms: N_10  and  C_11 
REMARK    4  A    between atoms: C_11  and  C_12 
REMARK    5  A    between atoms: C_15  and  N_16 
REMARK       I    between atoms: N_16  and  C_17 
REMARK    6  A    between atoms: C_17  and  C_18 
ROOT
HETATM    1  N   UNL     1      41.707 -15.358  -0.664  1.00  0.00    -0.338 N 
HETATM    2  C   UNL     1      41.633 -15.776   0.646  1.00  0.00     0.316 C 
HETATM    3  N   UNL     1      42.875 -16.094   1.126  1.00  0.00    -0.339 N 
HETATM    4  O   UNL     1      40.591 -15.929   1.262  1.00  0.00    -0.247 OA
HETATM    5  H   UNL     1      42.512 -14.754  -0.788  1.00  0.00     0.164 HD
HETATM    6  H   UNL     1      43.630 -16.183   0.464  1.00  0.00     0.164 HD
ENDROOT
BRANCH   3   7
HETATM    7  C   UNL     1      43.017 -16.836   2.365  1.00  0.00     0.162 C 
BRANCH   7   8
HETATM    8  C   UNL     1      43.211 -15.950   3.578  1.00  0.00    -0.040 A 
HETATM    9  C   UNL     1      43.304 -14.554   3.492  1.00  0.00     0.011 A 
HETATM   10  C   UNL     1      43.556 -13.778   4.629  1.00  0.00     0.030 A 
HETATM   11  C   UNL     1      43.691 -14.379   5.880  1.00  0.00     0.035 A 
HETATM   12  C   UNL     1      43.518 -15.762   5.985  1.00  0.00     0.030 A 
HETATM   13  C   UNL     1      43.287 -16.541   4.846  1.00  0.00     0.011 A 
BRANCH  11  14
HETATM   14  N   UNL     1      44.004 -13.676   7.055  1.00  0.00    -0.321 N 
HETATM   15  C   UNL     1      45.223 -13.135   7.430  1.00  0.00     0.279 C 
HETATM   16  O   UNL     1      46.252 -13.176   6.762  1.00  0.00    -0.265 OA
HETATM   17  H   UNL     1      43.283 -13.619   7.769  1.00  0.00     0.169 HD
BRANCH  15  18
HETATM   18  C   UNL     1      45.178 -12.534   8.752  1.00  0.00     0.142 A 
HETATM   19  O   UNL     1      44.442 -13.143   9.739  1.00  0.00    -0.317 OA
HETATM   20  C   UNL     1      44.582 -12.394  10.863  1.00  0.00     0.143 A 
HETATM   21  C   UNL     1      45.397 -11.314  10.625  1.00  0.00     0.027 A 
HETATM   22  C   UNL     1      45.781 -11.402   9.265  1.00  0.00     0.045 A 
ENDBRANCH  15  18
ENDBRANCH  11  14
ENDBRANCH   7   8
ENDBRANCH   3   7
BRANCH   1  23
HETATM   23  C   UNL     1      40.529 -14.993  -1.457  1.00  0.00     0.089 C 
HETATM   24  C   UNL     1      40.708 -15.019  -2.977  1.00  0.00     0.053 C 
HETATM   25  C   UNL     1      41.772 -14.040  -3.437  1.00  0.00     0.237 C 
HETATM   26  N   UNL     1      41.387 -12.618  -3.029  1.00  0.00    -0.067 N 
HETATM   27  H   UNL     1      40.508 -12.393  -3.513  1.00  0.00     0.280 HD
HETATM   28  C   UNL     1      41.125 -12.537  -1.534  1.00  0.00     0.237 C 
HETATM   29  C   UNL     1      40.101 -13.575  -1.079  1.00  0.00     0.053 C 
BRANCH  26  30
HETATM   30  C   UNL     1      42.434 -11.587  -3.504  1.00  0.00     0.180 C 
HETATM   31  C   UNL     1      42.669 -10.529  -2.423  1.00  0.00     0.039 C 
HETATM   32  C   UNL     1      41.951 -10.893  -4.780  1.00  0.00     0.039 C 
ENDBRANCH  26  30
ENDBRANCH   1  23
TORSDOF 6
ENDMDL
MODEL 4
REMARK VINA RESULT:      -7.8      3.204     10.700
REMARK  6 active torsions:
REMARK  status: ('A' for Active; 'I' for Inactive)
REMARK    1  A    between atoms: C_2  and  N_3 
REMARK    2  A    between atoms: C_7  and  N_8 
REMARK       I    between atoms: N_8  and  C_9 
REMARK       I    between atoms: C_9  and  N_10 
REMARK    3  A    between atoms: N_10  and  C_11 
REMARK    4  A    between atoms: C_11  and  C_12 
REMARK    5  A    between atoms: C_15  and  N_16 
REMARK       I    between atoms: N_16  and  C_17 
REMARK    6  A    between atoms: C_17  and  C_18 
ROOT
HETATM    1  N   UNL     1      42.631 -15.345   6.576  1.00  0.00    -0.338 N 
HETATM    2  C   UNL     1      43.424 -14.224   6.472  1.00  0.00     0.316 C 
HETATM    3  N   UNL     1      44.404 -14.231   7.428  1.00  0.00    -0.339 N 
HETATM    4  O   UNL     1      43.221 -13.307   5.694  1.00  0.00    -0.247 OA
HETATM    5  H   UNL     1      43.207 -16.158   6.761  1.00  0.00     0.164 HD
HETATM    6  H   UNL     1      44.325 -14.897   8.180  1.00  0.00     0.164 HD
ENDROOT
BRANCH   3   7
HETATM    7  C   UNL     1      45.165 -13.028   7.710  1.00  0.00     0.162 C 
BRANCH   7   8
HETATM    8  C   UNL     1      44.703 -12.304   8.958  1.00  0.00    -0.040 A 
HETATM    9  C   UNL     1      45.336 -12.451  10.200  1.00  0.00     0.011 A 
HETATM   10  C   UNL     1      44.834 -11.820  11.344  1.00  0.00     0.030 A 
HETATM   11  C   UNL     1      43.705 -11.005  11.264  1.00  0.00     0.035 A 
HETATM   12  C   UNL     1      43.118 -10.789  10.015  1.00  0.00     0.030 A 
HETATM   13  C   UNL     1      43.607 -11.436   8.874  1.00  0.00     0.011 A 
BRANCH  11  14
HETATM   14  N   UNL     1      43.106 -10.388  12.375  1.00  0.00    -0.321 N 
HETATM   15  C   UNL     1      41.934 -10.743  13.022  1.00  0.00     0.279 C 
HETATM   16  O   UNL     1      41.218 -11.694  12.721  1.00  0.00    -0.265 OA
HETATM   17  H   UNL     1      43.525  -9.525  12.709  1.00  0.00     0.169 HD
BRANCH  15  18
HETATM   18  C   UNL     1      41.597  -9.824  14.097  1.00  0.00     0.142 A 
HETATM   19  O   UNL     1      40.650  -8.855  13.876  1.00  0.00    -0.317 OA
HETATM   20  C   UNL     1      40.517  -8.154  15.032  1.00  0.00     0.143 A 
HETATM   21  C   UNL     1      41.357  -8.654  15.998  1.00  0.00     0.027 A 
HETATM   22  C   UNL     1      42.055  -9.728  15.396  1.00  0.00     0.045 A 
ENDBRANCH  15  18
ENDBRANCH  11  14
ENDBRANCH   7   8
ENDBRANCH   3   7
BRANCH   1  23
HETATM   23  C   UNL     1      41.471 -15.589   5.712  1.00  0.00     0.089 C 
HETATM   24  C   UNL     1      40.855 -16.987   5.796  1.00  0.00     0.053 C 
HETATM   25  C   UNL     1      41.842 -18.065   5.389  1.00  0.00     0.237 C 
HETATM   26  N   UNL     1      42.305 -17.835   3.950  1.00  0.00    -0.067 N 
HETATM   27  H   UNL     1      41.475 -17.915   3.350  1.00  0.00     0.280 HD
HETATM   28  C   UNL     1      42.867 -16.433   3.780  1.00  0.00     0.237 C 
HETATM   29  C   UNL     1      41.884 -15.366   4.257  1.00  0.00     0.053 C 
BRANCH  26  30
HETATM   30  C   UNL     1      43.293 -18.930   3.489  1.00  0.00     0.180 C 
HETATM   31  C   UNL     1      44.361 -19.168   4.560  1.00  0.00     0.039 C 
HETATM   32  C   UNL     1      43.981 -18.508   2.189  1.00  0.00     0.039 C 
ENDBRANCH  26  30
ENDBRANCH   1  23
TORSDOF 6
ENDMDL
MODEL 5
REMARK VINA RESULT:      -7.7      4.027      9.222
REMARK  6 active torsions:
REMARK  status: ('A' for Active; 'I' for Inactive)
REMARK    1  A    between atoms: C_2  and  N_3 
REMARK    2  A    between atoms: C_7  and  N_8 
REMARK       I    between atoms: N_8  and  C_9 
REMARK       I    between atoms: C_9  and  N_10 
REMARK    3  A    between atoms: N_10  and  C_11 
REMARK    4  A    between atoms: C_11  and  C_12 
REMARK    5  A    between atoms: C_15  and  N_16 
REMARK       I    between atoms: N_16  and  C_17 
REMARK    6  A    between atoms: C_17  and  C_18 
ROOT
HETATM    1  N   UNL     1      40.827 -15.653   0.618  1.00  0.00    -0.338 N 
HETATM    2  C   UNL     1      41.729 -16.520   1.192  1.00  0.00     0.316 C 
HETATM    3  N   UNL     1      41.231 -17.041   2.357  1.00  0.00    -0.339 N 
HETATM    4  O   UNL     1      42.854 -16.724   0.767  1.00  0.00    -0.247 OA
HETATM    5  H   UNL     1      39.890 -16.033   0.690  1.00  0.00     0.164 HD
HETATM    6  H   UNL     1      40.409 -16.612   2.752  1.00  0.00     0.164 HD
ENDROOT
BRANCH   3   7
HETATM    7  C   UNL     1      42.104 -17.734   3.285  1.00  0.00     0.162 C 
BRANCH   7   8
HETATM    8  C   UNL     1      42.680 -16.832   4.357  1.00  0.00    -0.040 A 
HETATM    9  C   UNL     1      43.571 -17.291   5.338  1.00  0.00     0.011 A 
HETATM   10  C   UNL     1      44.022 -16.442   6.354  1.00  0.00     0.030 A 
HETATM   11  C   UNL     1      43.616 -15.109   6.395  1.00  0.00     0.035 A 
HETATM   12  C   UNL     1      42.793 -14.625   5.375  1.00  0.00     0.030 A 
HETATM   13  C   UNL     1      42.324 -15.477   4.369  1.00  0.00     0.011 A 
BRANCH  11  14
HETATM   14  N   UNL     1      43.976 -14.212   7.415  1.00  0.00    -0.321 N 
HETATM   15  C   UNL     1      45.098 -13.403   7.487  1.00  0.00     0.279 C 
HETATM   16  O   UNL     1      45.977 -13.333   6.633  1.00  0.00    -0.265 OA
HETATM   17  H   UNL     1      43.397 -14.202   8.250  1.00  0.00     0.169 HD
BRANCH  15  18
HETATM   18  C   UNL     1      45.161 -12.656   8.731  1.00  0.00     0.142 A 
HETATM   19  O   UNL     1      44.487 -13.128   9.831  1.00  0.00    -0.317 OA
HETATM   20  C   UNL     1      44.724 -12.260  10.849  1.00  0.00     0.143 A 
HETATM   21  C   UNL     1      45.540 -11.238  10.431  1.00  0.00     0.027 A 
HETATM   22  C   UNL     1      45.822 -11.490   9.066  1.00  0.00     0.045 A 
ENDBRANCH  15  18
ENDBRANCH  11  14
ENDBRANCH   7   8
ENDBRANCH   3   7
BRANCH   1  23
HETATM   23  C   UNL     1      41.102 -14.910  -0.615  1.00  0.00     0.089 C 
HETATM   24  C   UNL     1      41.678 -13.502  -0.437  1.00  0.00     0.053 C 
HETATM   25  C   UNL     1      40.729 -12.597   0.327  1.00  0.00     0.237 C 
HETATM   26  N   UNL     1      39.403 -12.477  -0.424  1.00  0.00    -0.067 N 
HETATM   27  H   UNL     1      39.608 -12.038  -1.331  1.00  0.00     0.280 HD
HETATM   28  C   UNL     1      38.809 -13.849  -0.697  1.00  0.00     0.237 C 
HETATM   29  C   UNL     1      39.802 -14.767  -1.406  1.00  0.00     0.053 C 
BRANCH  26  30
HETATM   30  C   UNL     1      38.418 -11.540   0.310  1.00  0.00     0.180 C 
HETATM   31  C   UNL     1      38.175 -12.035   1.738  1.00  0.00     0.039 C 
HETATM   32  C   UNL     1      37.080 -11.492  -0.432  1.00  0.00     0.039 C 
ENDBRANCH  26  30
ENDBRANCH   1  23
TORSDOF 6
ENDMDL
MODEL 6
REMARK VINA RESULT:      -7.6      4.737      8.333
REMARK  6 active torsions:
REMARK  status: ('A' for Active; 'I' for Inactive)
REMARK    1  A    between atoms: C_2  and  N_3 
REMARK    2  A    between atoms: C_7  and  N_8 
REMARK       I    between atoms: N_8  and  C_9 
REMARK       I    between atoms: C_9  and  N_10 
REMARK    3  A    between atoms: N_10  and  C_11 
REMARK    4  A    between atoms: C_11  and  C_12 
REMARK    5  A    between atoms: C_15  and  N_16 
REMARK       I    between atoms: N_16  and  C_17 
REMARK    6  A    between atoms: C_17  and  C_18 
ROOT
HETATM    1  N   UNL     1      42.617 -18.068   6.925  1.00  0.00    -0.338 N 
HETATM    2  C   UNL     1      42.305 -16.727   6.891  1.00  0.00     0.316 C 
HETATM    3  N   UNL     1      41.089 -16.526   6.295  1.00  0.00    -0.339 N 
HETATM    4  O   UNL     1      43.053 -15.837   7.260  1.00  0.00    -0.247 OA
HETATM    5  H   UNL     1      41.794 -18.608   7.167  1.00  0.00     0.164 HD
HETATM    6  H   UNL     1      40.674 -17.296   5.795  1.00  0.00     0.164 HD
ENDROOT
BRANCH   3   7
HETATM    7  C   UNL     1      40.686 -15.196   5.877  1.00  0.00     0.162 C 
BRANCH   7   8
HETATM    8  C   UNL     1      40.966 -14.916   4.414  1.00  0.00    -0.040 A 
HETATM    9  C   UNL     1      42.243 -15.038   3.848  1.00  0.00     0.011 A 
HETATM   10  C   UNL     1      42.472 -14.699   2.510  1.00  0.00     0.030 A 
HETATM   11  C   UNL     1      41.425 -14.259   1.702  1.00  0.00     0.035 A 
HETATM   12  C   UNL     1      40.135 -14.212   2.238  1.00  0.00     0.030 A 
HETATM   13  C   UNL     1      39.907 -14.531   3.581  1.00  0.00     0.011 A 
BRANCH  11  14
HETATM   14  N   UNL     1      41.586 -13.843   0.370  1.00  0.00    -0.321 N 
HETATM   15  C   UNL     1      42.125 -12.656  -0.097  1.00  0.00     0.279 C 
HETATM   16  O   UNL     1      42.573 -11.756   0.608  1.00  0.00    -0.265 OA
HETATM   17  H   UNL     1      41.189 -14.437  -0.353  1.00  0.00     0.169 HD
BRANCH  15  18
HETATM   18  C   UNL     1      42.065 -12.553  -1.545  1.00  0.00     0.142 A 
HETATM   19  O   UNL     1      41.348 -13.486  -2.253  1.00  0.00    -0.317 OA
HETATM   20  C   UNL     1      41.442 -13.152  -3.566  1.00  0.00     0.143 A 
HETATM   21  C   UNL     1      42.204 -12.019  -3.722  1.00  0.00     0.027 A 
HETATM   22  C   UNL     1      42.608 -11.633  -2.421  1.00  0.00     0.045 A 
ENDBRANCH  15  18
ENDBRANCH  11  14
ENDBRANCH   7   8
ENDBRANCH   3   7
BRANCH   1  23
HETATM   23  C   UNL     1      43.879 -18.584   7.465  1.00  0.00     0.089 C 
HETATM   24  C   UNL     1      45.144 -18.212   6.688  1.00  0.00     0.053 C 
HETATM   25  C   UNL     1      45.112 -18.748   5.268  1.00  0.00     0.237 C 
HETATM   26  N   UNL     1      44.996 -20.272   5.286  1.00  0.00    -0.067 N 
HETATM   27  H   UNL     1      45.840 -20.633   5.749  1.00  0.00     0.280 HD
HETATM   28  C   UNL     1      43.794 -20.713   6.105  1.00  0.00     0.237 C 
HETATM   29  C   UNL     1      43.809 -20.110   7.508  1.00  0.00     0.053 C 
BRANCH  26  30
HETATM   30  C   UNL     1      44.988 -20.858   3.857  1.00  0.00     0.180 C 
HETATM   31  C   UNL     1      44.032 -20.066   2.962  1.00  0.00     0.039 C 
HETATM   32  C   UNL     1      44.540 -22.321   3.888  1.00  0.00     0.039 C 
ENDBRANCH  26  30
ENDBRANCH   1  23
TORSDOF 6
ENDMDL
MODEL 7
REMARK VINA RESULT:      -7.6      2.941     10.834
REMARK  6 active torsions:
REMARK  status: ('A' for Active; 'I' for Inactive)
REMARK    1  A    between atoms: C_2  and  N_3 
REMARK    2  A    between atoms: C_7  and  N_8 
REMARK       I    between atoms: N_8  and  C_9 
REMARK       I    between atoms: C_9  and  N_10 
REMARK    3  A    between atoms: N_10  and  C_11 
REMARK    4  A    between atoms: C_11  and  C_12 
REMARK    5  A    between atoms: C_15  and  N_16 
REMARK       I    between atoms: N_16  and  C_17 
REMARK    6  A    between atoms: C_17  and  C_18 
ROOT
HETATM    1  N   UNL     1      43.398 -15.681   6.075  1.00  0.00    -0.338 N 
HETATM    2  C   UNL     1      43.918 -15.141   7.229  1.00  0.00     0.316 C 
HETATM    3  N   UNL     1      44.354 -13.861   7.014  1.00  0.00    -0.339 N 
HETATM    4  O   UNL     1      44.056 -15.754   8.275  1.00  0.00    -0.247 OA
HETATM    5  H   UNL     1      42.838 -14.987   5.591  1.00  0.00     0.164 HD
HETATM    6  H   UNL     1      44.435 -13.543   6.061  1.00  0.00     0.164 HD
ENDROOT
BRANCH   3   7
HETATM    7  C   UNL     1      45.205 -13.201   7.986  1.00  0.00     0.162 C 
BRANCH   7   8
HETATM    8  C   UNL     1      44.442 -12.318   8.953  1.00  0.00    -0.040 A 
HETATM    9  C   UNL     1      44.688 -12.312  10.333  1.00  0.00     0.011 A 
HETATM   10  C   UNL     1      43.911 -11.536  11.199  1.00  0.00     0.030 A 
HETATM   11  C   UNL     1      42.891 -10.725  10.702  1.00  0.00     0.035 A 
HETATM   12  C   UNL     1      42.694 -10.665   9.319  1.00  0.00     0.030 A 
HETATM   13  C   UNL     1      43.457 -11.456   8.453  1.00  0.00     0.011 A 
BRANCH  11  14
HETATM   14  N   UNL     1      42.031  -9.966  11.511  1.00  0.00    -0.321 N 
HETATM   15  C   UNL     1      40.692 -10.192  11.786  1.00  0.00     0.279 C 
HETATM   16  O   UNL     1      40.030 -11.134  11.358  1.00  0.00    -0.265 OA
HETATM   17  H   UNL     1      42.394  -9.093  11.884  1.00  0.00     0.169 HD
BRANCH  15  18
HETATM   18  C   UNL     1      40.115  -9.150  12.617  1.00  0.00     0.142 A 
HETATM   19  O   UNL     1      38.755  -8.958  12.602  1.00  0.00    -0.317 OA
HETATM   20  C   UNL     1      38.483  -7.948  13.468  1.00  0.00     0.143 A 
HETATM   21  C   UNL     1      39.640  -7.483  14.045  1.00  0.00     0.027 A 
HETATM   22  C   UNL     1      40.693  -8.255  13.497  1.00  0.00     0.045 A 
ENDBRANCH  15  18
ENDBRANCH  11  14
ENDBRANCH   7   8
ENDBRANCH   3   7
BRANCH   1  23
HETATM   23  C   UNL     1      42.893 -17.055   5.989  1.00  0.00     0.089 C 
HETATM   24  C   UNL     1      43.701 -18.014   5.112  1.00  0.00     0.053 C 
HETATM   25  C   UNL     1      43.746 -17.554   3.666  1.00  0.00     0.237 C 
HETATM   26  N   UNL     1      42.329 -17.471   3.099  1.00  0.00    -0.067 N 
HETATM   27  H   UNL     1      41.938 -18.421   3.124  1.00  0.00     0.280 HD
HETATM   28  C   UNL     1      41.450 -16.586   3.967  1.00  0.00     0.237 C 
HETATM   29  C   UNL     1      41.471 -17.024   5.429  1.00  0.00     0.053 C 
BRANCH  26  30
HETATM   30  C   UNL     1      42.335 -17.032   1.618  1.00  0.00     0.180 C 
HETATM   31  C   UNL     1      41.058 -17.502   0.918  1.00  0.00     0.039 C 
HETATM   32  C   UNL     1      43.545 -17.627   0.894  1.00  0.00     0.039 C 
ENDBRANCH  26  30
ENDBRANCH   1  23
TORSDOF 6
ENDMDL
MODEL 8
REMARK VINA RESULT:      -7.4      5.067     10.382
REMARK  6 active torsions:
REMARK  status: ('A' for Active; 'I' for Inactive)
REMARK    1  A    between atoms: C_2  and  N_3 
REMARK    2  A    between atoms: C_7  and  N_8 
REMARK       I    between atoms: N_8  and  C_9 
REMARK       I    between atoms: C_9  and  N_10 
REMARK    3  A    between atoms: N_10  and  C_11 
REMARK    4  A    between atoms: C_11  and  C_12 
REMARK    5  A    between atoms: C_15  and  N_16 
REMARK       I    between atoms: N_16  and  C_17 
REMARK    6  A    between atoms: C_17  and  C_18 
ROOT
HETATM    1  N   UNL     1      40.579 -15.076  -0.557  1.00  0.00    -0.338 N 
HETATM    2  C   UNL     1      41.040 -16.044   0.307  1.00  0.00     0.316 C 
HETATM    3  N   UNL     1      40.219 -16.154   1.397  1.00  0.00    -0.339 N 
HETATM    4  O   UNL     1      42.087 -16.653   0.162  1.00  0.00    -0.247 OA
HETATM    5  H   UNL     1      39.571 -15.137  -0.637  1.00  0.00     0.164 HD
HETATM    6  H   UNL     1      39.533 -15.431   1.547  1.00  0.00     0.164 HD
ENDROOT
BRANCH   3   7
HETATM    7  C   UNL     1      40.654 -16.881   2.574  1.00  0.00     0.162 C 
BRANCH   7   8
HETATM    8  C   UNL     1      41.361 -16.011   3.593  1.00  0.00    -0.040 A 
HETATM    9  C   UNL     1      42.654 -16.285   4.060  1.00  0.00     0.011 A 
HETATM   10  C   UNL     1      43.242 -15.496   5.055  1.00  0.00     0.030 A 
HETATM   11  C   UNL     1      42.563 -14.399   5.582  1.00  0.00     0.035 A 
HETATM   12  C   UNL     1      41.308 -14.072   5.062  1.00  0.00     0.030 A 
HETATM   13  C   UNL     1      40.709 -14.871   4.083  1.00  0.00     0.011 A 
BRANCH  11  14
HETATM   14  N   UNL     1      43.060 -13.597   6.623  1.00  0.00    -0.321 N 
HETATM   15  C   UNL     1      44.325 -13.614   7.187  1.00  0.00     0.279 C 
HETATM   16  O   UNL     1      45.245 -14.351   6.843  1.00  0.00    -0.265 OA
HETATM   17  H   UNL     1      42.401 -12.979   7.089  1.00  0.00     0.169 HD
BRANCH  15  18
HETATM   18  C   UNL     1      44.450 -12.679   8.292  1.00  0.00     0.142 A 
HETATM   19  O   UNL     1      45.515 -12.795   9.150  1.00  0.00    -0.317 OA
HETATM   20  C   UNL     1      45.400 -11.801  10.069  1.00  0.00     0.143 A 
HETATM   21  C   UNL     1      44.282 -11.042   9.820  1.00  0.00     0.027 A 
HETATM   22  C   UNL     1      43.667 -11.607   8.677  1.00  0.00     0.045 A 
ENDBRANCH  15  18
ENDBRANCH  11  14
ENDBRANCH   7   8
ENDBRANCH   3   7
BRANCH   1  23
HETATM   23  C   UNL     1      41.278 -14.704  -1.792  1.00  0.00     0.089 C 
HETATM   24  C   UNL     1      41.151 -13.241  -2.221  1.00  0.00     0.053 C 
HETATM   25  C   UNL     1      39.709 -12.855  -2.492  1.00  0.00     0.237 C 
HETATM   26  N   UNL     1      39.133 -13.729  -3.606  1.00  0.00    -0.067 N 
HETATM   27  H   UNL     1      39.683 -13.538  -4.453  1.00  0.00     0.280 HD
HETATM   28  C   UNL     1      39.292 -15.203  -3.274  1.00  0.00     0.237 C 
HETATM   29  C   UNL     1      40.739 -15.558  -2.939  1.00  0.00     0.053 C 
BRANCH  26  30
HETATM   30  C   UNL     1      37.672 -13.347  -3.930  1.00  0.00     0.180 C 
HETATM   31  C   UNL     1      37.104 -12.440  -2.836  1.00  0.00     0.039 C 
HETATM   32  C   UNL     1      36.806 -14.606  -4.029  1.00  0.00     0.039 C 
ENDBRANCH  26  30
ENDBRANCH   1  23
TORSDOF 6
ENDMDL
MODEL 9
REMARK VINA RESULT:      -7.3      3.212     10.658
REMARK  6 active torsions:
REMARK  status: ('A' for Active; 'I' for Inactive)
REMARK    1  A    between atoms: C_2  and  N_3 
REMARK    2  A    between atoms: C_7  and  N_8 
REMARK       I    between atoms: N_8  and  C_9 
REMARK       I    between atoms: C_9  and  N_10 
REMARK    3  A    between atoms: N_10  and  C_11 
REMARK    4  A    between atoms: C_11  and  C_12 
REMARK    5  A    between atoms: C_15  and  N_16 
REMARK       I    between atoms: N_16  and  C_17 
REMARK    6  A    between atoms: C_17  and  C_18 
ROOT
HETATM    1  N   UNL     1      41.507 -14.578   5.957  1.00  0.00    -0.338 N 
HETATM    2  C   UNL     1      40.905 -13.339   5.965  1.00  0.00     0.316 C 
HETATM    3  N   UNL     1      41.817 -12.357   6.250  1.00  0.00    -0.339 N 
HETATM    4  O   UNL     1      39.707 -13.155   5.828  1.00  0.00    -0.247 OA
HETATM    5  H   UNL     1      42.409 -14.520   5.499  1.00  0.00     0.164 HD
HETATM    6  H   UNL     1      42.718 -12.638   6.602  1.00  0.00     0.164 HD
ENDROOT
BRANCH   3   7
HETATM    7  C   UNL     1      41.372 -11.024   6.608  1.00  0.00     0.162 C 
BRANCH   7   8
HETATM    8  C   UNL     1      41.347 -10.779   8.103  1.00  0.00    -0.040 A 
HETATM    9  C   UNL     1      40.158 -10.734   8.845  1.00  0.00     0.011 A 
HETATM   10  C   UNL     1      40.173 -10.433  10.212  1.00  0.00     0.030 A 
HETATM   11  C   UNL     1      41.379 -10.201  10.872  1.00  0.00     0.035 A 
HETATM   12  C   UNL     1      42.573 -10.326  10.155  1.00  0.00     0.030 A 
HETATM   13  C   UNL     1      42.558 -10.606   8.784  1.00  0.00     0.011 A 
BRANCH  11  14
HETATM   14  N   UNL     1      41.473  -9.835  12.224  1.00  0.00    -0.321 N 
HETATM   15  C   UNL     1      41.258  -8.589  12.791  1.00  0.00     0.279 C 
HETATM   16  O   UNL     1      40.929  -7.579  12.176  1.00  0.00    -0.265 OA
HETATM   17  H   UNL     1      41.819 -10.536  12.873  1.00  0.00     0.169 HD
BRANCH  15  18
HETATM   18  C   UNL     1      41.514  -8.581  14.221  1.00  0.00     0.142 A 
HETATM   19  O   UNL     1      41.127  -7.493  14.964  1.00  0.00    -0.317 OA
HETATM   20  C   UNL     1      41.465  -7.748  16.254  1.00  0.00     0.143 A 
HETATM   21  C   UNL     1      42.061  -8.981  16.362  1.00  0.00     0.027 A 
HETATM   22  C   UNL     1      42.096  -9.519  15.052  1.00  0.00     0.045 A 
ENDBRANCH  15  18
ENDBRANCH  11  14
ENDBRANCH   7   8
ENDBRANCH   3   7
BRANCH   1  23
HETATM   23  C   UNL     1      40.771 -15.825   5.725  1.00  0.00     0.089 C 
HETATM   24  C   UNL     1      41.119 -16.992   6.652  1.00  0.00     0.053 C 
HETATM   25  C   UNL     1      42.574 -17.401   6.522  1.00  0.00     0.237 C 
HETATM   26  N   UNL     1      42.872 -17.830   5.085  1.00  0.00    -0.067 N 
HETATM   27  H   UNL     1      42.286 -18.652   4.889  1.00  0.00     0.280 HD
HETATM   28  C   UNL     1      42.482 -16.738   4.103  1.00  0.00     0.237 C 
HETATM   29  C   UNL     1      41.033 -16.293   4.294  1.00  0.00     0.053 C 
BRANCH  26  30
HETATM   30  C   UNL     1      44.340 -18.280   4.919  1.00  0.00     0.180 C 
HETATM   31  C   UNL     1      44.404 -19.634   4.207  1.00  0.00     0.039 C 
HETATM   32  C   UNL     1      45.012 -18.409   6.288  1.00  0.00     0.039 C 
ENDBRANCH  26  30
ENDBRANCH   1  23
TORSDOF 6
ENDMDL
MODEL 10
REMARK VINA RESULT:      -7.3      4.547      7.709
REMARK  6 active torsions:
REMARK  status: ('A' for Active; 'I' for Inactive)
REMARK    1  A    between atoms: C_2  and  N_3 
REMARK    2  A    between atoms: C_7  and  N_8 
REMARK       I    between atoms: N_8  and  C_9 
REMARK       I    between atoms: C_9  and  N_10 
REMARK    3  A    between atoms: N_10  and  C_11 
REMARK    4  A    between atoms: C_11  and  C_12 
REMARK    5  A    between atoms: C_15  and  N_16 
REMARK       I    between atoms: N_16  and  C_17 
REMARK    6  A    between atoms: C_17  and  C_18 
ROOT
HETATM    1  N   UNL     1      39.309 -11.464   1.474  1.00  0.00    -0.338 N 
HETATM    2  C   UNL     1      39.647 -11.811   2.763  1.00  0.00     0.316 C 
HETATM    3  N   UNL     1      41.007 -11.835   2.920  1.00  0.00    -0.339 N 
HETATM    4  O   UNL     1      38.843 -12.142   3.619  1.00  0.00    -0.247 OA
HETATM    5  H   UNL     1      39.909 -10.714   1.151  1.00  0.00     0.164 HD
HETATM    6  H   UNL     1      41.579 -11.802   2.092  1.00  0.00     0.164 HD
ENDROOT
BRANCH   3   7
HETATM    7  C   UNL     1      41.601 -12.458   4.088  1.00  0.00     0.162 C 
BRANCH   7   8
HETATM    8  C   UNL     1      42.078 -13.874   3.837  1.00  0.00    -0.040 A 
HETATM    9  C   UNL     1      43.275 -14.165   3.167  1.00  0.00     0.011 A 
HETATM   10  C   UNL     1      43.643 -15.487   2.892  1.00  0.00     0.030 A 
HETATM   11  C   UNL     1      42.838 -16.547   3.307  1.00  0.00     0.035 A 
HETATM   12  C   UNL     1      41.685 -16.267   4.046  1.00  0.00     0.030 A 
HETATM   13  C   UNL     1      41.305 -14.945   4.304  1.00  0.00     0.011 A 
BRANCH  11  14
HETATM   14  N   UNL     1      43.107 -17.894   3.016  1.00  0.00    -0.321 N 
HETATM   15  C   UNL     1      43.948 -18.764   3.691  1.00  0.00     0.279 C 
HETATM   16  O   UNL     1      44.601 -18.484   4.692  1.00  0.00    -0.265 OA
HETATM   17  H   UNL     1      42.710 -18.273   2.161  1.00  0.00     0.169 HD
BRANCH  15  18
HETATM   18  C   UNL     1      44.021 -20.067   3.053  1.00  0.00     0.142 A 
HETATM   19  O   UNL     1      44.612 -21.109   3.726  1.00  0.00    -0.317 OA
HETATM   20  C   UNL     1      44.533 -22.201   2.922  1.00  0.00     0.143 A 
HETATM   21  C   UNL     1      43.900 -21.887   1.743  1.00  0.00     0.027 A 
HETATM   22  C   UNL     1      43.571 -20.513   1.825  1.00  0.00     0.045 A 
ENDBRANCH  15  18
ENDBRANCH  11  14
ENDBRANCH   7   8
ENDBRANCH   3   7
BRANCH   1  23
HETATM   23  C   UNL     1      37.924 -11.399   0.998  1.00  0.00     0.089 C 
HETATM   24  C   UNL     1      37.218 -12.743   0.800  1.00  0.00     0.053 C 
HETATM   25  C   UNL     1      37.918 -13.601  -0.237  1.00  0.00     0.237 C 
HETATM   26  N   UNL     1      37.946 -12.877  -1.583  1.00  0.00    -0.067 N 
HETATM   27  H   UNL     1      36.969 -12.747  -1.876  1.00  0.00     0.280 HD
HETATM   28  C   UNL     1      38.573 -11.500  -1.444  1.00  0.00     0.237 C 
HETATM   29  C   UNL     1      37.899 -10.676  -0.349  1.00  0.00     0.053 C 
BRANCH  26  30
HETATM   30  C   UNL     1      38.628 -13.731  -2.674  1.00  0.00     0.180 C 
HETATM   31  C   UNL     1      37.666 -14.806  -3.187  1.00  0.00     0.039 C 
HETATM   32  C   UNL     1      39.876 -14.413  -2.110  1.00  0.00     0.039 C 
ENDBRANCH  26  30
ENDBRANCH   1  23
TORSDOF 6
ENDMDL
