MODEL 1
REMARK VINA RESULT:      -9.5      0.000      0.000
REMARK  5 active torsions:
REMARK  status: ('A' for Active; 'I' for Inactive)
REMARK    1  A    between atoms: C_4  and  C_5 
REMARK    2  A    between atoms: C_5  and  N_6 
REMARK    3  A    between atoms: C_7  and  C_8 
REMARK       I    between atoms: C_8  and  N_9 
REMARK    4  A    between atoms: N_9  and  N_10 
REMARK       I    between atoms: N_10  and  C_11 
REMARK    5  A    between atoms: C_11  and  C_12 
ROOT
HETATM    1  N   UNL     1      42.909 -17.700   4.877  1.00  0.00    -0.337 N 
HETATM    2  C   UNL     1      43.774 -17.643   5.965  1.00  0.00     0.106 A 
HETATM    3  C   UNL     1      44.713 -18.646   5.758  1.00  0.00     0.049 A 
HETATM    4  C   UNL     1      44.448 -19.285   4.521  1.00  0.00    -0.007 A 
HETATM    5  C   UNL     1      43.325 -18.668   3.973  1.00  0.00     0.045 A 
HETATM    6  C   UNL     1      45.076 -20.330   3.815  1.00  0.00     0.014 A 
HETATM    7  C   UNL     1      44.563 -20.731   2.578  1.00  0.00     0.001 A 
HETATM    8  C   UNL     1      43.444 -20.104   2.043  1.00  0.00     0.002 A 
HETATM    9  C   UNL     1      42.805 -19.066   2.727  1.00  0.00     0.030 A 
ENDROOT
BRANCH   2  10
HETATM   10  C   UNL     1      43.692 -16.693   7.062  1.00  0.00     0.286 C 
HETATM   11  N   UNL     1      44.279 -15.468   6.818  1.00  0.00    -0.262 N 
HETATM   12  H   UNL     1      44.802 -15.246   5.975  1.00  0.00     0.190 HD
HETATM   13  O   UNL     1      43.128 -16.916   8.134  1.00  0.00    -0.264 OA
BRANCH  11  14
HETATM   14  N   UNL     1      44.168 -14.455   7.776  1.00  0.00    -0.262 N 
HETATM   15  C   UNL     1      45.053 -13.399   7.740  1.00  0.00     0.286 C 
HETATM   16  O   UNL     1      45.978 -13.356   6.927  1.00  0.00    -0.264 OA
HETATM   17  H   UNL     1      43.397 -14.527   8.433  1.00  0.00     0.190 HD
BRANCH  15  18
HETATM   18  C   UNL     1      44.824 -12.356   8.715  1.00  0.00     0.102 A 
HETATM   19  N   UNL     1      43.549 -12.041   9.141  1.00  0.00    -0.361 N 
HETATM   20  H   UNL     1      42.714 -12.504   8.804  1.00  0.00     0.165 HD
HETATM   21  C   UNL     1      43.592 -11.030  10.063  1.00  0.00     0.088 A 
HETATM   22  C   UNL     1      44.911 -10.687  10.250  1.00  0.00     0.019 A 
HETATM   23  C   UNL     1      45.686 -11.517   9.403  1.00  0.00     0.036 A 
ENDBRANCH  15  18
ENDBRANCH  11  14
ENDBRANCH   2  10
BRANCH   1  24
HETATM   24  C   UNL     1      41.720 -16.867   4.689  1.00  0.00     0.168 C 
BRANCH  24  25
HETATM   25  C   UNL     1      41.927 -15.778   3.661  1.00  0.00    -0.040 A 
HETATM   26  C   UNL     1      41.141 -15.752   2.499  1.00  0.00     0.009 A 
HETATM   27  C   UNL     1      41.289 -14.727   1.561  1.00  0.00     0.001 A 
HETATM   28  C   UNL     1      42.221 -13.714   1.775  1.00  0.00     0.000 A 
HETATM   29  C   UNL     1      43.007 -13.725   2.924  1.00  0.00     0.001 A 
HETATM   30  C   UNL     1      42.859 -14.747   3.863  1.00  0.00     0.009 A 
ENDBRANCH  24  25
ENDBRANCH   1  24
TORSDOF 5
ENDMDL
MODEL 2
REMARK VINA RESULT:      -9.2      4.045      7.893
REMARK  5 active torsions:
REMARK  status: ('A' for Active; 'I' for Inactive)
REMARK    1  A    between atoms: C_4  and  C_5 
REMARK    2  A    between atoms: C_5  and  N_6 
REMARK    3  A    between atoms: C_7  and  C_8 
REMARK       I    between atoms: C_8  and  N_9 
REMARK    4  A    between atoms: N_9  and  N_10 
REMARK       I    between atoms: N_10  and  C_11 
REMARK    5  A    between atoms: C_11  and  C_12 
ROOT
HETATM    1  N   UNL     1      43.053 -17.674   3.911  1.00  0.00    -0.337 N 
HETATM    2  C   UNL     1      41.759 -17.250   3.627  1.00  0.00     0.106 A 
HETATM    3  C   UNL     1      41.174 -16.965   4.854  1.00  0.00     0.049 A 
HETATM    4  C   UNL     1      42.125 -17.173   5.884  1.00  0.00    -0.007 A 
HETATM    5  C   UNL     1      43.303 -17.599   5.275  1.00  0.00     0.045 A 
HETATM    6  C   UNL     1      42.086 -17.022   7.284  1.00  0.00     0.014 A 
HETATM    7  C   UNL     1      43.229 -17.302   8.039  1.00  0.00     0.001 A 
HETATM    8  C   UNL     1      44.398 -17.724   7.416  1.00  0.00     0.002 A 
HETATM    9  C   UNL     1      44.457 -17.881   6.028  1.00  0.00     0.030 A 
ENDROOT
BRANCH   2  10
HETATM   10  C   UNL     1      41.184 -17.119   2.298  1.00  0.00     0.286 C 
HETATM   11  N   UNL     1      40.670 -15.872   2.004  1.00  0.00    -0.262 N 
HETATM   12  H   UNL     1      40.615 -15.109   2.673  1.00  0.00     0.190 HD
HETATM   13  O   UNL     1      41.160 -18.021   1.459  1.00  0.00    -0.264 OA
BRANCH  11  14
HETATM   14  N   UNL     1      40.182 -15.620   0.718  1.00  0.00    -0.262 N 
HETATM   15  C   UNL     1      40.912 -14.814  -0.129  1.00  0.00     0.286 C 
HETATM   16  O   UNL     1      41.949 -14.259   0.238  1.00  0.00    -0.264 OA
HETATM   17  H   UNL     1      39.323 -16.092   0.452  1.00  0.00     0.190 HD
BRANCH  15  18
HETATM   18  C   UNL     1      40.380 -14.666  -1.465  1.00  0.00     0.102 A 
HETATM   19  N   UNL     1      39.024 -14.528  -1.687  1.00  0.00    -0.361 N 
HETATM   20  H   UNL     1      38.332 -14.527  -0.947  1.00  0.00     0.165 HD
HETATM   21  C   UNL     1      38.771 -14.401  -3.025  1.00  0.00     0.088 A 
HETATM   22  C   UNL     1      39.976 -14.445  -3.687  1.00  0.00     0.019 A 
HETATM   23  C   UNL     1      40.988 -14.613  -2.710  1.00  0.00     0.036 A 
ENDBRANCH  15  18
ENDBRANCH  11  14
ENDBRANCH   2  10
BRANCH   1  24
HETATM   24  C   UNL     1      44.033 -18.139   2.927  1.00  0.00     0.168 C 
BRANCH  24  25
HETATM   25  C   UNL     1      44.144 -19.647   2.884  1.00  0.00    -0.040 A 
HETATM   26  C   UNL     1      43.647 -20.355   1.779  1.00  0.00     0.009 A 
HETATM   27  C   UNL     1      43.784 -21.743   1.702  1.00  0.00     0.001 A 
HETATM   28  C   UNL     1      44.421 -22.440   2.727  1.00  0.00     0.000 A 
HETATM   29  C   UNL     1      44.921 -21.751   3.828  1.00  0.00     0.001 A 
HETATM   30  C   UNL     1      44.788 -20.364   3.905  1.00  0.00     0.009 A 
ENDBRANCH  24  25
ENDBRANCH   1  24
TORSDOF 5
ENDMDL
MODEL 3
REMARK VINA RESULT:      -8.8      3.418      6.229
REMARK  5 active torsions:
REMARK  status: ('A' for Active; 'I' for Inactive)
REMARK    1  A    between atoms: C_4  and  C_5 
REMARK    2  A    between atoms: C_5  and  N_6 
REMARK    3  A    between atoms: C_7  and  C_8 
REMARK       I    between atoms: C_8  and  N_9 
REMARK    4  A    between atoms: N_9  and  N_10 
REMARK       I    between atoms: N_10  and  C_11 
REMARK    5  A    between atoms: C_11  and  C_12 
ROOT
HETATM    1  N   UNL     1      42.511 -18.016   3.943  1.00  0.00    -0.337 N 
HETATM    2  C   UNL     1      42.380 -17.888   2.564  1.00  0.00     0.106 A 
HETATM    3  C   UNL     1      43.182 -18.878   2.011  1.00  0.00     0.049 A 
HETATM    4  C   UNL     1      43.767 -19.640   3.053  1.00  0.00    -0.007 A 
HETATM    5  C   UNL     1      43.322 -19.098   4.256  1.00  0.00     0.045 A 
HETATM    6  C   UNL     1      44.630 -20.753   3.072  1.00  0.00     0.014 A 
HETATM    7  C   UNL     1      45.025 -21.296   4.299  1.00  0.00     0.001 A 
HETATM    8  C   UNL     1      44.572 -20.746   5.492  1.00  0.00     0.002 A 
HETATM    9  C   UNL     1      43.715 -19.641   5.494  1.00  0.00     0.030 A 
ENDROOT
BRANCH   2  10
HETATM   10  C   UNL     1      41.541 -16.917   1.881  1.00  0.00     0.286 C 
HETATM   11  N   UNL     1      40.221 -16.898   2.285  1.00  0.00    -0.262 N 
HETATM   12  H   UNL     1      39.822 -17.553   2.952  1.00  0.00     0.190 HD
HETATM   13  O   UNL     1      41.944 -16.134   1.019  1.00  0.00    -0.264 OA
BRANCH  11  14
HETATM   14  N   UNL     1      39.358 -15.933   1.755  1.00  0.00    -0.262 N 
HETATM   15  C   UNL     1      39.241 -14.717   2.393  1.00  0.00     0.286 C 
HETATM   16  O   UNL     1      39.827 -14.480   3.450  1.00  0.00    -0.264 OA
HETATM   17  H   UNL     1      38.888 -16.166   0.885  1.00  0.00     0.190 HD
BRANCH  15  18
HETATM   18  C   UNL     1      38.389 -13.748   1.741  1.00  0.00     0.102 A 
HETATM   19  N   UNL     1      38.443 -12.408   2.071  1.00  0.00    -0.361 N 
HETATM   20  H   UNL     1      39.064 -12.029   2.776  1.00  0.00     0.165 HD
HETATM   21  C   UNL     1      37.551 -11.696   1.318  1.00  0.00     0.088 A 
HETATM   22  C   UNL     1      36.912 -12.577   0.478  1.00  0.00     0.019 A 
HETATM   23  C   UNL     1      37.435 -13.867   0.742  1.00  0.00     0.036 A 
ENDBRANCH  15  18
ENDBRANCH  11  14
ENDBRANCH   2  10
BRANCH   1  24
HETATM   24  C   UNL     1      41.892 -17.144   4.942  1.00  0.00     0.168 C 
BRANCH  24  25
HETATM   25  C   UNL     1      42.836 -16.078   5.452  1.00  0.00    -0.040 A 
HETATM   26  C   UNL     1      43.093 -14.939   4.674  1.00  0.00     0.009 A 
HETATM   27  C   UNL     1      43.926 -13.924   5.150  1.00  0.00     0.001 A 
HETATM   28  C   UNL     1      44.511 -14.033   6.410  1.00  0.00     0.000 A 
HETATM   29  C   UNL     1      44.265 -15.157   7.194  1.00  0.00     0.001 A 
HETATM   30  C   UNL     1      43.430 -16.171   6.721  1.00  0.00     0.009 A 
ENDBRANCH  24  25
ENDBRANCH   1  24
TORSDOF 5
ENDMDL
MODEL 4
REMARK VINA RESULT:      -8.7      1.249      1.698
REMARK  5 active torsions:
REMARK  status: ('A' for Active; 'I' for Inactive)
REMARK    1  A    between atoms: C_4  and  C_5 
REMARK    2  A    between atoms: C_5  and  N_6 
REMARK    3  A    between atoms: C_7  and  C_8 
REMARK       I    between atoms: C_8  and  N_9 
REMARK    4  A    between atoms: N_9  and  N_10 
REMARK       I    between atoms: N_10  and  C_11 
REMARK    5  A    between atoms: C_11  and  C_12 
ROOT
HETATM    1  N   UNL     1      43.325 -16.362   3.681  1.00  0.00    -0.337 N 
HETATM    2  C   UNL     1      43.245 -16.601   5.049  1.00  0.00     0.106 A 
HETATM    3  C   UNL     1      43.365 -17.976   5.203  1.00  0.00     0.049 A 
HETATM    4  C   UNL     1      43.564 -18.572   3.933  1.00  0.00    -0.007 A 
HETATM    5  C   UNL     1      43.555 -17.545   2.992  1.00  0.00     0.045 A 
HETATM    6  C   UNL     1      43.763 -19.900   3.506  1.00  0.00     0.014 A 
HETATM    7  C   UNL     1      43.948 -20.165   2.146  1.00  0.00     0.001 A 
HETATM    8  C   UNL     1      43.938 -19.129   1.218  1.00  0.00     0.002 A 
HETATM    9  C   UNL     1      43.742 -17.805   1.622  1.00  0.00     0.030 A 
ENDROOT
BRANCH   2  10
HETATM   10  C   UNL     1      43.093 -15.585   6.078  1.00  0.00     0.286 C 
HETATM   11  N   UNL     1      44.192 -15.413   6.896  1.00  0.00    -0.262 N 
HETATM   12  H   UNL     1      45.027 -15.991   6.854  1.00  0.00     0.190 HD
HETATM   13  O   UNL     1      42.087 -14.890   6.226  1.00  0.00    -0.264 OA
BRANCH  11  14
HETATM   14  N   UNL     1      44.178 -14.393   7.853  1.00  0.00    -0.262 N 
HETATM   15  C   UNL     1      45.057 -13.340   7.722  1.00  0.00     0.286 C 
HETATM   16  O   UNL     1      45.896 -13.304   6.820  1.00  0.00    -0.264 OA
HETATM   17  H   UNL     1      43.476 -14.459   8.584  1.00  0.00     0.190 HD
BRANCH  15  18
HETATM   18  C   UNL     1      44.927 -12.290   8.707  1.00  0.00     0.102 A 
HETATM   19  N   UNL     1      43.710 -12.002   9.292  1.00  0.00    -0.361 N 
HETATM   20  H   UNL     1      42.852 -12.492   9.072  1.00  0.00     0.165 HD
HETATM   21  C   UNL     1      43.844 -10.978  10.190  1.00  0.00     0.088 A 
HETATM   22  C   UNL     1      45.166 -10.597  10.200  1.00  0.00     0.019 A 
HETATM   23  C   UNL     1      45.848 -11.419   9.269  1.00  0.00     0.036 A 
ENDBRANCH  15  18
ENDBRANCH  11  14
ENDBRANCH   2  10
BRANCH   1  24
HETATM   24  C   UNL     1      43.189 -15.055   3.035  1.00  0.00     0.168 C 
BRANCH  24  25
HETATM   25  C   UNL     1      41.846 -14.875   2.362  1.00  0.00    -0.040 A 
HETATM   26  C   UNL     1      41.771 -14.765   0.966  1.00  0.00     0.009 A 
HETATM   27  C   UNL     1      40.535 -14.644   0.326  1.00  0.00     0.001 A 
HETATM   28  C   UNL     1      39.359 -14.635   1.074  1.00  0.00     0.000 A 
HETATM   29  C   UNL     1      39.418 -14.744   2.460  1.00  0.00     0.001 A 
HETATM   30  C   UNL     1      40.652 -14.869   3.101  1.00  0.00     0.009 A 
ENDBRANCH  24  25
ENDBRANCH   1  24
TORSDOF 5
ENDMDL
MODEL 5
REMARK VINA RESULT:      -8.6      3.739      7.228
REMARK  5 active torsions:
REMARK  status: ('A' for Active; 'I' for Inactive)
REMARK    1  A    between atoms: C_4  and  C_5 
REMARK    2  A    between atoms: C_5  and  N_6 
REMARK    3  A    between atoms: C_7  and  C_8 
REMARK       I    between atoms: C_8  and  N_9 
REMARK    4  A    between atoms: N_9  and  N_10 
REMARK       I    between atoms: N_10  and  C_11 
REMARK    5  A    between atoms: C_11  and  C_12 
ROOT
HETATM    1  N   UNL     1      42.342 -17.960   3.631  1.00  0.00    -0.337 N 
HETATM    2  C   UNL     1      42.131 -17.994   2.256  1.00  0.00     0.106 A 
HETATM    3  C   UNL     1      42.997 -18.960   1.761  1.00  0.00     0.049 A 
HETATM    4  C   UNL     1      43.705 -19.547   2.838  1.00  0.00    -0.007 A 
HETATM    5  C   UNL     1      43.270 -18.923   4.005  1.00  0.00     0.045 A 
HETATM    6  C   UNL     1      44.673 -20.568   2.920  1.00  0.00     0.014 A 
HETATM    7  C   UNL     1      45.180 -20.937   4.170  1.00  0.00     0.001 A 
HETATM    8  C   UNL     1      44.734 -20.306   5.326  1.00  0.00     0.002 A 
HETATM    9  C   UNL     1      43.775 -19.290   5.266  1.00  0.00     0.030 A 
ENDROOT
BRANCH   2  10
HETATM   10  C   UNL     1      41.168 -17.183   1.528  1.00  0.00     0.286 C 
HETATM   11  N   UNL     1      41.590 -16.749   0.287  1.00  0.00    -0.262 N 
HETATM   12  H   UNL     1      42.524 -16.904  -0.081  1.00  0.00     0.190 HD
HETATM   13  O   UNL     1      40.041 -16.904   1.940  1.00  0.00    -0.264 OA
BRANCH  11  14
HETATM   14  N   UNL     1      40.699 -16.044  -0.529  1.00  0.00    -0.262 N 
HETATM   15  C   UNL     1      40.946 -14.716  -0.799  1.00  0.00     0.286 C 
HETATM   16  O   UNL     1      41.894 -14.116  -0.291  1.00  0.00    -0.264 OA
HETATM   17  H   UNL     1      39.927 -16.571  -0.926  1.00  0.00     0.190 HD
BRANCH  15  18
HETATM   18  C   UNL     1      40.022 -14.080  -1.712  1.00  0.00     0.102 A 
HETATM   19  N   UNL     1      38.769 -14.611  -1.950  1.00  0.00    -0.361 N 
HETATM   20  H   UNL     1      38.428 -15.460  -1.515  1.00  0.00     0.165 HD
HETATM   21  C   UNL     1      38.084 -13.832  -2.842  1.00  0.00     0.088 A 
HETATM   22  C   UNL     1      38.893 -12.774  -3.185  1.00  0.00     0.019 A 
HETATM   23  C   UNL     1      40.111 -12.928  -2.477  1.00  0.00     0.036 A 
ENDBRANCH  15  18
ENDBRANCH  11  14
ENDBRANCH   2  10
BRANCH   1  24
HETATM   24  C   UNL     1      41.691 -17.047   4.571  1.00  0.00     0.168 C 
BRANCH  24  25
HETATM   25  C   UNL     1      42.632 -15.989   5.104  1.00  0.00    -0.040 A 
HETATM   26  C   UNL     1      42.993 -14.901   4.296  1.00  0.00     0.009 A 
HETATM   27  C   UNL     1      43.824 -13.892   4.789  1.00  0.00     0.001 A 
HETATM   28  C   UNL     1      44.302 -13.958   6.096  1.00  0.00     0.000 A 
HETATM   29  C   UNL     1      43.952 -15.031   6.910  1.00  0.00     0.001 A 
HETATM   30  C   UNL     1      43.118 -16.038   6.420  1.00  0.00     0.009 A 
ENDBRANCH  24  25
ENDBRANCH   1  24
TORSDOF 5
ENDMDL
MODEL 6
REMARK VINA RESULT:      -8.1      1.868      4.135
REMARK  5 active torsions:
REMARK  status: ('A' for Active; 'I' for Inactive)
REMARK    1  A    between atoms: C_4  and  C_5 
REMARK    2  A    between atoms: C_5  and  N_6 
REMARK    3  A    between atoms: C_7  and  C_8 
REMARK       I    between atoms: C_8  and  N_9 
REMARK    4  A    between atoms: N_9  and  N_10 
REMARK       I    between atoms: N_10  and  C_11 
REMARK    5  A    between atoms: C_11  and  C_12 
ROOT
HETATM    1  N   UNL     1      41.442 -15.756   4.086  1.00  0.00    -0.337 N 
HETATM    2  C   UNL     1      41.832 -14.427   4.212  1.00  0.00     0.106 A 
HETATM    3  C   UNL     1      42.067 -13.974   2.919  1.00  0.00     0.049 A 
HETATM    4  C   UNL     1      41.776 -15.014   2.001  1.00  0.00    -0.007 A 
HETATM    5  C   UNL     1      41.369 -16.118   2.747  1.00  0.00     0.045 A 
HETATM    6  C   UNL     1      41.815 -15.106   0.596  1.00  0.00     0.014 A 
HETATM    7  C   UNL     1      41.444 -16.301  -0.026  1.00  0.00     0.001 A 
HETATM    8  C   UNL     1      41.037 -17.393   0.731  1.00  0.00     0.002 A 
HETATM    9  C   UNL     1      40.992 -17.323   2.127  1.00  0.00     0.030 A 
ENDROOT
BRANCH   2  10
HETATM   10  C   UNL     1      41.935 -13.690   5.461  1.00  0.00     0.286 C 
HETATM   11  N   UNL     1      43.201 -13.645   6.010  1.00  0.00    -0.262 N 
HETATM   12  H   UNL     1      44.002 -14.143   5.632  1.00  0.00     0.190 HD
HETATM   13  O   UNL     1      40.993 -13.113   6.007  1.00  0.00    -0.264 OA
BRANCH  11  14
HETATM   14  N   UNL     1      43.419 -12.878   7.159  1.00  0.00    -0.262 N 
HETATM   15  C   UNL     1      44.460 -13.213   7.999  1.00  0.00     0.286 C 
HETATM   16  O   UNL     1      45.163 -14.204   7.797  1.00  0.00    -0.264 OA
HETATM   17  H   UNL     1      42.818 -12.072   7.295  1.00  0.00     0.190 HD
BRANCH  15  18
HETATM   18  C   UNL     1      44.667 -12.327   9.122  1.00  0.00     0.102 A 
HETATM   19  N   UNL     1      45.644 -11.352   9.096  1.00  0.00    -0.361 N 
HETATM   20  H   UNL     1      46.266 -11.201   8.311  1.00  0.00     0.165 HD
HETATM   21  C   UNL     1      45.641 -10.644  10.267  1.00  0.00     0.088 A 
HETATM   22  C   UNL     1      44.644 -11.154  11.065  1.00  0.00     0.019 A 
HETATM   23  C   UNL     1      44.032 -12.212  10.349  1.00  0.00     0.036 A 
ENDBRANCH  15  18
ENDBRANCH  11  14
ENDBRANCH   2  10
BRANCH   1  24
HETATM   24  C   UNL     1      41.145 -16.665   5.194  1.00  0.00     0.168 C 
BRANCH  24  25
HETATM   25  C   UNL     1      42.394 -17.205   5.856  1.00  0.00    -0.040 A 
HETATM   26  C   UNL     1      42.577 -17.050   7.238  1.00  0.00     0.009 A 
HETATM   27  C   UNL     1      43.702 -17.583   7.872  1.00  0.00     0.001 A 
HETATM   28  C   UNL     1      44.657 -18.279   7.133  1.00  0.00     0.000 A 
HETATM   29  C   UNL     1      44.488 -18.441   5.760  1.00  0.00     0.001 A 
HETATM   30  C   UNL     1      43.363 -17.913   5.126  1.00  0.00     0.009 A 
ENDBRANCH  24  25
ENDBRANCH   1  24
TORSDOF 5
ENDMDL
MODEL 7
REMARK VINA RESULT:      -8.0      2.709      3.019
REMARK  5 active torsions:
REMARK  status: ('A' for Active; 'I' for Inactive)
REMARK    1  A    between atoms: C_4  and  C_5 
REMARK    2  A    between atoms: C_5  and  N_6 
REMARK    3  A    between atoms: C_7  and  C_8 
REMARK       I    between atoms: C_8  and  N_9 
REMARK    4  A    between atoms: N_9  and  N_10 
REMARK       I    between atoms: N_10  and  C_11 
REMARK    5  A    between atoms: C_11  and  C_12 
ROOT
HETATM    1  N   UNL     1      41.832 -17.596   3.713  1.00  0.00    -0.337 N 
HETATM    2  C   UNL     1      42.156 -17.177   5.000  1.00  0.00     0.106 A 
HETATM    3  C   UNL     1      43.246 -17.946   5.388  1.00  0.00     0.049 A 
HETATM    4  C   UNL     1      43.616 -18.803   4.321  1.00  0.00    -0.007 A 
HETATM    5  C   UNL     1      42.731 -18.559   3.273  1.00  0.00     0.045 A 
HETATM    6  C   UNL     1      44.637 -19.759   4.156  1.00  0.00     0.014 A 
HETATM    7  C   UNL     1      44.746 -20.447   2.943  1.00  0.00     0.001 A 
HETATM    8  C   UNL     1      43.857 -20.190   1.906  1.00  0.00     0.002 A 
HETATM    9  C   UNL     1      42.837 -19.246   2.050  1.00  0.00     0.030 A 
ENDROOT
BRANCH   2  10
HETATM   10  C   UNL     1      41.482 -16.124   5.741  1.00  0.00     0.286 C 
HETATM   11  N   UNL     1      42.121 -14.901   5.731  1.00  0.00    -0.262 N 
HETATM   12  H   UNL     1      43.033 -14.740   5.311  1.00  0.00     0.190 HD
HETATM   13  O   UNL     1      40.407 -16.265   6.326  1.00  0.00    -0.264 OA
BRANCH  11  14
HETATM   14  N   UNL     1      41.502 -13.801   6.335  1.00  0.00    -0.262 N 
HETATM   15  C   UNL     1      41.568 -12.572   5.716  1.00  0.00     0.286 C 
HETATM   16  O   UNL     1      42.209 -12.403   4.678  1.00  0.00    -0.264 OA
HETATM   17  H   UNL     1      40.986 -13.979   7.192  1.00  0.00     0.190 HD
BRANCH  15  18
HETATM   18  C   UNL     1      40.838 -11.505   6.364  1.00  0.00     0.102 A 
HETATM   19  N   UNL     1      40.641 -11.497   7.730  1.00  0.00    -0.361 N 
HETATM   20  H   UNL     1      40.983 -12.222   8.350  1.00  0.00     0.165 HD
HETATM   21  C   UNL     1      39.931 -10.389   8.102  1.00  0.00     0.088 A 
HETATM   22  C   UNL     1      39.667  -9.658   6.968  1.00  0.00     0.019 A 
HETATM   23  C   UNL     1      40.235 -10.357   5.874  1.00  0.00     0.036 A 
ENDBRANCH  15  18
ENDBRANCH  11  14
ENDBRANCH   2  10
BRANCH   1  24
HETATM   24  C   UNL     1      40.706 -17.108   2.916  1.00  0.00     0.168 C 
BRANCH  24  25
HETATM   25  C   UNL     1      41.123 -16.083   1.885  1.00  0.00    -0.040 A 
HETATM   26  C   UNL     1      41.087 -16.406   0.521  1.00  0.00     0.009 A 
HETATM   27  C   UNL     1      41.424 -15.456  -0.446  1.00  0.00     0.001 A 
HETATM   28  C   UNL     1      41.799 -14.170  -0.062  1.00  0.00     0.000 A 
HETATM   29  C   UNL     1      41.838 -13.834   1.289  1.00  0.00     0.001 A 
HETATM   30  C   UNL     1      41.498 -14.781   2.256  1.00  0.00     0.009 A 
ENDBRANCH  24  25
ENDBRANCH   1  24
TORSDOF 5
ENDMDL
MODEL 8
REMARK VINA RESULT:      -7.9      3.922      8.091
REMARK  5 active torsions:
REMARK  status: ('A' for Active; 'I' for Inactive)
REMARK    1  A    between atoms: C_4  and  C_5 
REMARK    2  A    between atoms: C_5  and  N_6 
REMARK    3  A    between atoms: C_7  and  C_8 
REMARK       I    between atoms: C_8  and  N_9 
REMARK    4  A    between atoms: N_9  and  N_10 
REMARK       I    between atoms: N_10  and  C_11 
REMARK    5  A    between atoms: C_11  and  C_12 
ROOT
HETATM    1  N   UNL     1      42.407 -16.213   4.138  1.00  0.00    -0.337 N 
HETATM    2  C   UNL     1      42.384 -15.198   3.187  1.00  0.00     0.106 A 
HETATM    3  C   UNL     1      43.022 -14.112   3.773  1.00  0.00     0.049 A 
HETATM    4  C   UNL     1      43.475 -14.478   5.065  1.00  0.00    -0.007 A 
HETATM    5  C   UNL     1      43.098 -15.803   5.271  1.00  0.00     0.045 A 
HETATM    6  C   UNL     1      44.185 -13.797   6.073  1.00  0.00     0.014 A 
HETATM    7  C   UNL     1      44.500 -14.461   7.263  1.00  0.00     0.001 A 
HETATM    8  C   UNL     1      44.119 -15.784   7.453  1.00  0.00     0.002 A 
HETATM    9  C   UNL     1      43.413 -16.478   6.466  1.00  0.00     0.030 A 
ENDROOT
BRANCH   2  10
HETATM   10  C   UNL     1      41.819 -15.302   1.852  1.00  0.00     0.286 C 
HETATM   11  N   UNL     1      40.516 -14.862   1.733  1.00  0.00    -0.262 N 
HETATM   12  H   UNL     1      39.947 -14.556   2.517  1.00  0.00     0.190 HD
HETATM   13  O   UNL     1      42.432 -15.722   0.869  1.00  0.00    -0.264 OA
BRANCH  11  14
HETATM   14  N   UNL     1      39.918 -14.833   0.469  1.00  0.00    -0.262 N 
HETATM   15  C   UNL     1      39.724 -13.618  -0.152  1.00  0.00     0.286 C 
HETATM   16  O   UNL     1      40.006 -12.555   0.402  1.00  0.00    -0.264 OA
HETATM   17  H   UNL     1      39.696 -15.729   0.046  1.00  0.00     0.190 HD
BRANCH  15  18
HETATM   18  C   UNL     1      39.172 -13.679  -1.487  1.00  0.00     0.102 A 
HETATM   19  N   UNL     1      39.812 -13.082  -2.555  1.00  0.00    -0.361 N 
HETATM   20  H   UNL     1      40.683 -12.572  -2.474  1.00  0.00     0.165 HD
HETATM   21  C   UNL     1      39.100 -13.280  -3.707  1.00  0.00     0.088 A 
HETATM   22  C   UNL     1      37.987 -14.023  -3.391  1.00  0.00     0.019 A 
HETATM   23  C   UNL     1      38.029 -14.274  -1.998  1.00  0.00     0.036 A 
ENDBRANCH  15  18
ENDBRANCH  11  14
ENDBRANCH   2  10
BRANCH   1  24
HETATM   24  C   UNL     1      41.796 -17.534   3.989  1.00  0.00     0.168 C 
BRANCH  24  25
HETATM   25  C   UNL     1      42.776 -18.578   3.501  1.00  0.00    -0.040 A 
HETATM   26  C   UNL     1      43.677 -19.169   4.400  1.00  0.00     0.009 A 
HETATM   27  C   UNL     1      44.556 -20.167   3.974  1.00  0.00     0.001 A 
HETATM   28  C   UNL     1      44.545 -20.589   2.647  1.00  0.00     0.000 A 
HETATM   29  C   UNL     1      43.656 -20.013   1.743  1.00  0.00     0.001 A 
HETATM   30  C   UNL     1      42.774 -19.018   2.167  1.00  0.00     0.009 A 
ENDBRANCH  24  25
ENDBRANCH   1  24
TORSDOF 5
ENDMDL
MODEL 9
REMARK VINA RESULT:      -7.8      3.053      3.779
REMARK  5 active torsions:
REMARK  status: ('A' for Active; 'I' for Inactive)
REMARK    1  A    between atoms: C_4  and  C_5 
REMARK    2  A    between atoms: C_5  and  N_6 
REMARK    3  A    between atoms: C_7  and  C_8 
REMARK       I    between atoms: C_8  and  N_9 
REMARK    4  A    between atoms: N_9  and  N_10 
REMARK       I    between atoms: N_10  and  C_11 
REMARK    5  A    between atoms: C_11  and  C_12 
ROOT
HETATM    1  N   UNL     1      43.083 -15.610   3.537  1.00  0.00    -0.337 N 
HETATM    2  C   UNL     1      43.035 -15.536   4.925  1.00  0.00     0.106 A 
HETATM    3  C   UNL     1      43.285 -16.823   5.384  1.00  0.00     0.049 A 
HETATM    4  C   UNL     1      43.530 -17.673   4.277  1.00  0.00    -0.007 A 
HETATM    5  C   UNL     1      43.418 -16.894   3.128  1.00  0.00     0.045 A 
HETATM    6  C   UNL     1      43.850 -19.040   4.157  1.00  0.00     0.014 A 
HETATM    7  C   UNL     1      44.050 -19.591   2.888  1.00  0.00     0.001 A 
HETATM    8  C   UNL     1      43.936 -18.800   1.750  1.00  0.00     0.002 A 
HETATM    9  C   UNL     1      43.619 -17.442   1.848  1.00  0.00     0.030 A 
ENDROOT
BRANCH   2  10
HETATM   10  C   UNL     1      42.795 -14.330   5.700  1.00  0.00     0.286 C 
HETATM   11  N   UNL     1      41.469 -13.962   5.813  1.00  0.00    -0.262 N 
HETATM   12  H   UNL     1      40.706 -14.436   5.337  1.00  0.00     0.190 HD
HETATM   13  O   UNL     1      43.677 -13.671   6.252  1.00  0.00    -0.264 OA
BRANCH  11  14
HETATM   14  N   UNL     1      41.129 -12.870   6.619  1.00  0.00    -0.262 N 
HETATM   15  C   UNL     1      39.815 -12.458   6.668  1.00  0.00     0.286 C 
HETATM   16  O   UNL     1      38.944 -12.984   5.974  1.00  0.00    -0.264 OA
HETATM   17  H   UNL     1      41.874 -12.460   7.173  1.00  0.00     0.190 HD
BRANCH  15  18
HETATM   18  C   UNL     1      39.533 -11.374   7.583  1.00  0.00     0.102 A 
HETATM   19  N   UNL     1      39.256 -11.613   8.914  1.00  0.00    -0.361 N 
HETATM   20  H   UNL     1      39.229 -12.539   9.325  1.00  0.00     0.165 HD
HETATM   21  C   UNL     1      39.029 -10.435   9.572  1.00  0.00     0.088 A 
HETATM   22  C   UNL     1      39.168  -9.412   8.663  1.00  0.00     0.019 A 
HETATM   23  C   UNL     1      39.483 -10.000   7.413  1.00  0.00     0.036 A 
ENDBRANCH  15  18
ENDBRANCH  11  14
ENDBRANCH   2  10
BRANCH   1  24
HETATM   24  C   UNL     1      42.820 -14.503   2.615  1.00  0.00     0.168 C 
BRANCH  24  25
HETATM   25  C   UNL     1      41.346 -14.319   2.331  1.00  0.00    -0.040 A 
HETATM   26  C   UNL     1      40.816 -13.027   2.187  1.00  0.00     0.009 A 
HETATM   27  C   UNL     1      39.467 -12.841   1.879  1.00  0.00     0.001 A 
HETATM   28  C   UNL     1      38.630 -13.942   1.708  1.00  0.00     0.000 A 
HETATM   29  C   UNL     1      39.142 -15.230   1.846  1.00  0.00     0.001 A 
HETATM   30  C   UNL     1      40.491 -15.418   2.151  1.00  0.00     0.009 A 
ENDBRANCH  24  25
ENDBRANCH   1  24
TORSDOF 5
ENDMDL
MODEL 10
REMARK VINA RESULT:      -7.5      3.781      7.075
REMARK  5 active torsions:
REMARK  status: ('A' for Active; 'I' for Inactive)
REMARK    1  A    between atoms: C_4  and  C_5 
REMARK    2  A    between atoms: C_5  and  N_6 
REMARK    3  A    between atoms: C_7  and  C_8 
REMARK       I    between atoms: C_8  and  N_9 
REMARK    4  A    between atoms: N_9  and  N_10 
REMARK       I    between atoms: N_10  and  C_11 
REMARK    5  A    between atoms: C_11  and  C_12 
ROOT
HETATM    1  N   UNL     1      41.896 -16.824   4.821  1.00  0.00    -0.337 N 
HETATM    2  C   UNL     1      42.340 -17.188   3.553  1.00  0.00     0.106 A 
HETATM    3  C   UNL     1      43.535 -17.869   3.749  1.00  0.00     0.049 A 
HETATM    4  C   UNL     1      43.797 -17.961   5.138  1.00  0.00    -0.007 A 
HETATM    5  C   UNL     1      42.752 -17.318   5.797  1.00  0.00     0.045 A 
HETATM    6  C   UNL     1      44.831 -18.549   5.892  1.00  0.00     0.014 A 
HETATM    7  C   UNL     1      44.792 -18.478   7.288  1.00  0.00     0.001 A 
HETATM    8  C   UNL     1      43.741 -17.834   7.931  1.00  0.00     0.002 A 
HETATM    9  C   UNL     1      42.705 -17.244   7.201  1.00  0.00     0.030 A 
ENDROOT
BRANCH   2  10
HETATM   10  C   UNL     1      41.649 -16.913   2.304  1.00  0.00     0.286 C 
HETATM   11  N   UNL     1      42.375 -16.184   1.383  1.00  0.00    -0.262 N 
HETATM   12  H   UNL     1      43.294 -15.791   1.568  1.00  0.00     0.190 HD
HETATM   13  O   UNL     1      40.512 -17.304   2.038  1.00  0.00    -0.264 OA
BRANCH  11  14
HETATM   14  N   UNL     1      41.832 -15.952   0.115  1.00  0.00    -0.262 N 
HETATM   15  C   UNL     1      41.230 -14.740  -0.144  1.00  0.00     0.286 C 
HETATM   16  O   UNL     1      41.101 -13.880   0.729  1.00  0.00    -0.264 OA
HETATM   17  H   UNL     1      41.954 -16.685  -0.577  1.00  0.00     0.190 HD
BRANCH  15  18
HETATM   18  C   UNL     1      40.764 -14.549  -1.499  1.00  0.00     0.102 A 
HETATM   19  N   UNL     1      39.421 -14.618  -1.812  1.00  0.00    -0.361 N 
HETATM   20  H   UNL     1      38.695 -14.806  -1.131  1.00  0.00     0.165 HD
HETATM   21  C   UNL     1      39.232 -14.400  -3.150  1.00  0.00     0.088 A 
HETATM   22  C   UNL     1      40.465 -14.177  -3.717  1.00  0.00     0.019 A 
HETATM   23  C   UNL     1      41.428 -14.271  -2.683  1.00  0.00     0.036 A 
ENDBRANCH  15  18
ENDBRANCH  11  14
ENDBRANCH   2  10
BRANCH   1  24
HETATM   24  C   UNL     1      40.699 -16.033   5.110  1.00  0.00     0.168 C 
BRANCH  24  25
HETATM   25  C   UNL     1      40.865 -14.573   4.751  1.00  0.00    -0.040 A 
HETATM   26  C   UNL     1      39.858 -13.909   4.034  1.00  0.00     0.009 A 
HETATM   27  C   UNL     1      39.975 -12.550   3.735  1.00  0.00     0.001 A 
HETATM   28  C   UNL     1      41.097 -11.836   4.152  1.00  0.00     0.000 A 
HETATM   29  C   UNL     1      42.103 -12.481   4.866  1.00  0.00     0.001 A 
HETATM   30  C   UNL     1      41.987 -13.839   5.168  1.00  0.00     0.009 A 
ENDBRANCH  24  25
ENDBRANCH   1  24
TORSDOF 5
ENDMDL
