MODEL 1
REMARK VINA RESULT:      -8.1      0.000      0.000
REMARK  3 active torsions:
REMARK  status: ('A' for Active; 'I' for Inactive)
REMARK    1  A    between atoms: C_2  and  C_3 
REMARK    2  A    between atoms: C_9  and  C_10 
REMARK    3  A    between atoms: C_20  and  N_21 
ROOT
HETATM    1  C   UNL     1      43.764 -16.044   6.562  1.00  0.00     0.043 A 
HETATM    2  N   UNL     1      43.555 -16.152   7.922  1.00  0.00    -0.279 N 
HETATM    3  H   UNL     1      43.484 -15.405   8.604  1.00  0.00     0.189 HD
HETATM    4  N   UNL     1      43.484 -17.423   8.366  1.00  0.00    -0.148 NA
HETATM    5  C   UNL     1      43.600 -18.125   7.246  1.00  0.00     0.199 A 
HETATM    6  C   UNL     1      43.751 -17.346   6.093  1.00  0.00     0.035 A 
HETATM    7  C   UNL     1      43.948 -17.994   4.771  1.00  0.00     0.106 A 
HETATM    8  C   UNL     1      44.083 -19.499   4.916  1.00  0.00     0.067 A 
HETATM    9  C   UNL     1      44.592 -20.237   3.689  1.00  0.00     0.020 C 
HETATM   10  N   UNL     1      45.014 -20.850   2.671  1.00  0.00    -0.096 N 
HETATM   11  C   UNL     1      43.931 -20.154   6.096  1.00  0.00     0.139 A 
HETATM   12  O   UNL     1      43.623 -19.472   7.285  1.00  0.00    -0.277 OA
ENDROOT
BRANCH   7  13
HETATM   13  C   UNL     1      42.830 -17.529   3.845  1.00  0.00    -0.022 A 
HETATM   14  C   UNL     1      42.971 -17.211   2.479  1.00  0.00     0.041 A 
HETATM   15 CL   UNL     1      44.472 -17.293   1.632  1.00  0.00    -0.084 Cl
HETATM   16  C   UNL     1      41.868 -16.787   1.725  1.00  0.00     0.024 A 
HETATM   17  C   UNL     1      40.612 -16.657   2.312  1.00  0.00     0.002 A 
HETATM   18  C   UNL     1      40.452 -16.948   3.659  1.00  0.00     0.001 A 
HETATM   19  C   UNL     1      41.545 -17.377   4.416  1.00  0.00     0.010 A 
ENDBRANCH   7  13
BRANCH  11  20
HETATM   20  N   UNL     1      44.088 -21.508   6.281  1.00  0.00    -0.282 NA
HETATM   21  H   UNL     1      44.806 -21.962   5.723  1.00  0.00     0.126 HD
HETATM   22  H   UNL     1      44.122 -21.758   7.268  1.00  0.00     0.126 HD
ENDBRANCH  11  20
BRANCH   1  23
HETATM   23  C   UNL     1      43.962 -14.730   5.871  1.00  0.00     0.029 C 
HETATM   24  C   UNL     1      44.945 -13.842   6.637  1.00  0.00     0.016 C 
HETATM   25  C   UNL     1      42.632 -14.011   5.649  1.00  0.00     0.016 C 
ENDBRANCH   1  23
TORSDOF 3
ENDMDL
MODEL 2
REMARK VINA RESULT:      -7.7      3.236      4.999
REMARK  3 active torsions:
REMARK  status: ('A' for Active; 'I' for Inactive)
REMARK    1  A    between atoms: C_2  and  C_3 
REMARK    2  A    between atoms: C_9  and  C_10 
REMARK    3  A    between atoms: C_20  and  N_21 
ROOT
HETATM    1  C   UNL     1      43.973 -15.814   6.328  1.00  0.00     0.043 A 
HETATM    2  N   UNL     1      44.805 -14.840   6.841  1.00  0.00    -0.279 N 
HETATM    3  H   UNL     1      45.470 -14.925   7.602  1.00  0.00     0.189 HD
HETATM    4  N   UNL     1      44.656 -13.632   6.263  1.00  0.00    -0.148 NA
HETATM    5  C   UNL     1      43.743 -13.870   5.330  1.00  0.00     0.199 A 
HETATM    6  C   UNL     1      43.294 -15.196   5.293  1.00  0.00     0.035 A 
HETATM    7  C   UNL     1      42.232 -15.601   4.337  1.00  0.00     0.106 A 
HETATM    8  C   UNL     1      41.686 -14.399   3.588  1.00  0.00     0.067 A 
HETATM    9  C   UNL     1      40.397 -14.632   2.816  1.00  0.00     0.020 C 
HETATM   10  N   UNL     1      39.329 -14.825   2.175  1.00  0.00    -0.096 N 
HETATM   11  C   UNL     1      42.192 -13.145   3.713  1.00  0.00     0.139 A 
HETATM   12  O   UNL     1      43.283 -12.870   4.553  1.00  0.00    -0.277 OA
ENDROOT
BRANCH   7  13
HETATM   13  C   UNL     1      42.786 -16.716   3.458  1.00  0.00    -0.022 A 
HETATM   14  C   UNL     1      42.616 -18.097   3.675  1.00  0.00     0.041 A 
HETATM   15 CL   UNL     1      41.740 -18.751   5.011  1.00  0.00    -0.084 Cl
HETATM   16  C   UNL     1      43.179 -19.036   2.799  1.00  0.00     0.024 A 
HETATM   17  C   UNL     1      43.931 -18.623   1.702  1.00  0.00     0.002 A 
HETATM   18  C   UNL     1      44.127 -17.267   1.476  1.00  0.00     0.001 A 
HETATM   19  C   UNL     1      43.564 -16.327   2.342  1.00  0.00     0.010 A 
ENDBRANCH   7  13
BRANCH  11  20
HETATM   20  N   UNL     1      41.700 -12.021   3.089  1.00  0.00    -0.282 NA
HETATM   21  H   UNL     1      42.270 -11.632   2.343  1.00  0.00     0.126 HD
HETATM   22  H   UNL     1      40.718 -12.120   2.842  1.00  0.00     0.126 HD
ENDBRANCH  11  20
BRANCH   1  23
HETATM   23  C   UNL     1      43.910 -17.204   6.881  1.00  0.00     0.029 C 
HETATM   24  C   UNL     1      43.504 -17.198   8.357  1.00  0.00     0.016 C 
HETATM   25  C   UNL     1      45.230 -17.945   6.679  1.00  0.00     0.016 C 
ENDBRANCH   1  23
TORSDOF 3
ENDMDL
MODEL 3
REMARK VINA RESULT:      -7.2      3.206      5.752
REMARK  3 active torsions:
REMARK  status: ('A' for Active; 'I' for Inactive)
REMARK    1  A    between atoms: C_2  and  C_3 
REMARK    2  A    between atoms: C_9  and  C_10 
REMARK    3  A    between atoms: C_20  and  N_21 
ROOT
HETATM    1  C   UNL     1      41.894 -16.812   2.277  1.00  0.00     0.043 A 
HETATM    2  N   UNL     1      40.645 -16.441   1.823  1.00  0.00    -0.279 N 
HETATM    3  H   UNL     1      40.151 -16.783   1.006  1.00  0.00     0.189 HD
HETATM    4  N   UNL     1      40.062 -15.473   2.557  1.00  0.00    -0.148 NA
HETATM    5  C   UNL     1      40.947 -15.271   3.524  1.00  0.00     0.199 A 
HETATM    6  C   UNL     1      42.089 -16.076   3.433  1.00  0.00     0.035 A 
HETATM    7  C   UNL     1      43.194 -15.925   4.414  1.00  0.00     0.106 A 
HETATM    8  C   UNL     1      42.936 -14.756   5.348  1.00  0.00     0.067 A 
HETATM    9  C   UNL     1      44.122 -14.308   6.186  1.00  0.00     0.020 C 
HETATM   10  N   UNL     1      45.105 -13.937   6.883  1.00  0.00    -0.096 N 
HETATM   11  C   UNL     1      41.790 -14.028   5.339  1.00  0.00     0.139 A 
HETATM   12  O   UNL     1      40.739 -14.318   4.453  1.00  0.00    -0.277 OA
ENDROOT
BRANCH   7  13
HETATM   13  C   UNL     1      43.405 -17.269   5.101  1.00  0.00    -0.022 A 
HETATM   14  C   UNL     1      42.505 -17.890   5.989  1.00  0.00     0.041 A 
HETATM   15 CL   UNL     1      40.993 -17.199   6.452  1.00  0.00    -0.084 Cl
HETATM   16  C   UNL     1      42.811 -19.130   6.568  1.00  0.00     0.024 A 
HETATM   17  C   UNL     1      44.017 -19.768   6.289  1.00  0.00     0.002 A 
HETATM   18  C   UNL     1      44.927 -19.167   5.430  1.00  0.00     0.001 A 
HETATM   19  C   UNL     1      44.627 -17.935   4.845  1.00  0.00     0.010 A 
ENDBRANCH   7  13
BRANCH  11  20
HETATM   20  N   UNL     1      41.533 -12.935   6.134  1.00  0.00    -0.282 NA
HETATM   21  H   UNL     1      40.790 -12.315   5.826  1.00  0.00     0.126 HD
HETATM   22  H   UNL     1      41.472 -13.185   7.119  1.00  0.00     0.126 HD
ENDBRANCH  11  20
BRANCH   1  23
HETATM   23  C   UNL     1      42.757 -17.807   1.563  1.00  0.00     0.029 C 
HETATM   24  C   UNL     1      42.738 -19.165   2.267  1.00  0.00     0.016 C 
HETATM   25  C   UNL     1      44.186 -17.292   1.404  1.00  0.00     0.016 C 
ENDBRANCH   1  23
TORSDOF 3
ENDMDL
MODEL 4
REMARK VINA RESULT:      -7.0      3.209      5.330
REMARK  3 active torsions:
REMARK  status: ('A' for Active; 'I' for Inactive)
REMARK    1  A    between atoms: C_2  and  C_3 
REMARK    2  A    between atoms: C_9  and  C_10 
REMARK    3  A    between atoms: C_20  and  N_21 
ROOT
HETATM    1  C   UNL     1      40.404 -15.725   1.626  1.00  0.00     0.043 A 
HETATM    2  N   UNL     1      40.546 -15.807   0.257  1.00  0.00    -0.279 N 
HETATM    3  H   UNL     1      40.004 -15.331  -0.457  1.00  0.00     0.189 HD
HETATM    4  N   UNL     1      41.504 -16.666  -0.144  1.00  0.00    -0.148 NA
HETATM    5  C   UNL     1      42.008 -17.093   1.007  1.00  0.00     0.199 A 
HETATM    6  C   UNL     1      41.399 -16.539   2.139  1.00  0.00     0.035 A 
HETATM    7  C   UNL     1      41.819 -16.963   3.500  1.00  0.00     0.106 A 
HETATM    8  C   UNL     1      42.828 -18.096   3.429  1.00  0.00     0.067 A 
HETATM    9  C   UNL     1      43.099 -18.820   4.738  1.00  0.00     0.020 C 
HETATM   10  N   UNL     1      43.325 -19.420   5.824  1.00  0.00    -0.096 N 
HETATM   11  C   UNL     1      43.345 -18.567   2.266  1.00  0.00     0.139 A 
HETATM   12  O   UNL     1      42.981 -18.024   1.022  1.00  0.00    -0.277 OA
ENDROOT
BRANCH   7  13
HETATM   13  C   UNL     1      42.284 -15.727   4.259  1.00  0.00    -0.022 A 
HETATM   14  C   UNL     1      41.761 -15.267   5.484  1.00  0.00     0.041 A 
HETATM   15 CL   UNL     1      40.474 -16.052   6.324  1.00  0.00    -0.084 Cl
HETATM   16  C   UNL     1      42.266 -14.108   6.089  1.00  0.00     0.024 A 
HETATM   17  C   UNL     1      43.286 -13.377   5.486  1.00  0.00     0.002 A 
HETATM   18  C   UNL     1      43.807 -13.800   4.271  1.00  0.00     0.001 A 
HETATM   19  C   UNL     1      43.312 -14.958   3.665  1.00  0.00     0.010 A 
ENDBRANCH   7  13
BRANCH  11  20
HETATM   20  N   UNL     1      44.225 -19.620   2.153  1.00  0.00    -0.282 NA
HETATM   21  H   UNL     1      44.989 -19.502   1.494  1.00  0.00     0.126 HD
HETATM   22  H   UNL     1      44.521 -19.969   3.062  1.00  0.00     0.126 HD
ENDBRANCH  11  20
BRANCH   1  23
HETATM   23  C   UNL     1      39.343 -14.899   2.287  1.00  0.00     0.029 C 
HETATM   24  C   UNL     1      38.178 -14.627   1.334  1.00  0.00     0.016 C 
HETATM   25  C   UNL     1      39.915 -13.595   2.840  1.00  0.00     0.016 C 
ENDBRANCH   1  23
TORSDOF 3
ENDMDL
MODEL 5
REMARK VINA RESULT:      -7.0      3.651      6.380
REMARK  3 active torsions:
REMARK  status: ('A' for Active; 'I' for Inactive)
REMARK    1  A    between atoms: C_2  and  C_3 
REMARK    2  A    between atoms: C_9  and  C_10 
REMARK    3  A    between atoms: C_20  and  N_21 
ROOT
HETATM    1  C   UNL     1      42.292 -16.259   2.643  1.00  0.00     0.043 A 
HETATM    2  N   UNL     1      41.319 -16.619   1.734  1.00  0.00    -0.279 N 
HETATM    3  H   UNL     1      41.384 -17.305   0.989  1.00  0.00     0.189 HD
HETATM    4  N   UNL     1      40.172 -15.922   1.854  1.00  0.00    -0.148 NA
HETATM    5  C   UNL     1      40.418 -15.143   2.899  1.00  0.00     0.199 A 
HETATM    6  C   UNL     1      41.692 -15.311   3.453  1.00  0.00     0.035 A 
HETATM    7  C   UNL     1      42.131 -14.468   4.595  1.00  0.00     0.106 A 
HETATM    8  C   UNL     1      41.096 -13.406   4.917  1.00  0.00     0.067 A 
HETATM    9  C   UNL     1      41.557 -12.297   5.850  1.00  0.00     0.020 C 
HETATM   10  N   UNL     1      41.938 -11.378   6.624  1.00  0.00    -0.096 N 
HETATM   11  C   UNL     1      39.889 -13.326   4.302  1.00  0.00     0.139 A 
HETATM   12  O   UNL     1      39.502 -14.243   3.311  1.00  0.00    -0.277 OA
ENDROOT
BRANCH   7  13
HETATM   13  C   UNL     1      42.496 -15.390   5.753  1.00  0.00    -0.022 A 
HETATM   14  C   UNL     1      43.650 -15.289   6.554  1.00  0.00     0.041 A 
HETATM   15 CL   UNL     1      44.860 -14.079   6.333  1.00  0.00    -0.084 Cl
HETATM   16  C   UNL     1      43.885 -16.202   7.592  1.00  0.00     0.024 A 
HETATM   17  C   UNL     1      42.990 -17.238   7.843  1.00  0.00     0.002 A 
HETATM   18  C   UNL     1      41.854 -17.369   7.056  1.00  0.00     0.001 A 
HETATM   19  C   UNL     1      41.611 -16.459   6.024  1.00  0.00     0.010 A 
ENDBRANCH   7  13
BRANCH  11  20
HETATM   20  N   UNL     1      38.940 -12.355   4.530  1.00  0.00    -0.282 NA
HETATM   21  H   UNL     1      37.974 -12.667   4.577  1.00  0.00     0.126 HD
HETATM   22  H   UNL     1      39.205 -11.734   5.292  1.00  0.00     0.126 HD
ENDBRANCH  11  20
BRANCH   1  23
HETATM   23  C   UNL     1      43.672 -16.842   2.633  1.00  0.00     0.029 C 
HETATM   24  C   UNL     1      44.056 -17.337   1.236  1.00  0.00     0.016 C 
HETATM   25  C   UNL     1      43.814 -17.957   3.668  1.00  0.00     0.016 C 
ENDBRANCH   1  23
TORSDOF 3
ENDMDL
MODEL 6
REMARK VINA RESULT:      -7.0      2.418      4.622
REMARK  3 active torsions:
REMARK  status: ('A' for Active; 'I' for Inactive)
REMARK    1  A    between atoms: C_2  and  C_3 
REMARK    2  A    between atoms: C_9  and  C_10 
REMARK    3  A    between atoms: C_20  and  N_21 
ROOT
HETATM    1  C   UNL     1      42.484 -17.978   2.713  1.00  0.00     0.043 A 
HETATM    2  N   UNL     1      43.082 -18.256   1.501  1.00  0.00    -0.279 N 
HETATM    3  H   UNL     1      42.866 -17.860   0.593  1.00  0.00     0.189 HD
HETATM    4  N   UNL     1      44.036 -19.206   1.566  1.00  0.00    -0.148 NA
HETATM    5  C   UNL     1      44.069 -19.492   2.861  1.00  0.00     0.199 A 
HETATM    6  C   UNL     1      43.161 -18.759   3.634  1.00  0.00     0.035 A 
HETATM    7  C   UNL     1      43.044 -19.008   5.094  1.00  0.00     0.106 A 
HETATM    8  C   UNL     1      43.906 -20.185   5.515  1.00  0.00     0.067 A 
HETATM    9  C   UNL     1      43.640 -20.732   6.908  1.00  0.00     0.020 C 
HETATM   10  N   UNL     1      43.420 -21.185   8.064  1.00  0.00    -0.096 N 
HETATM   11  C   UNL     1      44.746 -20.838   4.672  1.00  0.00     0.139 A 
HETATM   12  O   UNL     1      44.887 -20.457   3.327  1.00  0.00    -0.277 OA
ENDROOT
BRANCH   7  13
HETATM   13  C   UNL     1      43.331 -17.701   5.823  1.00  0.00    -0.022 A 
HETATM   14  C   UNL     1      42.365 -16.832   6.365  1.00  0.00     0.041 A 
HETATM   15 CL   UNL     1      40.666 -17.120   6.274  1.00  0.00    -0.084 Cl
HETATM   16  C   UNL     1      42.747 -15.648   7.012  1.00  0.00     0.024 A 
HETATM   17  C   UNL     1      44.091 -15.299   7.119  1.00  0.00     0.002 A 
HETATM   18  C   UNL     1      45.061 -16.131   6.578  1.00  0.00     0.001 A 
HETATM   19  C   UNL     1      44.687 -17.315   5.937  1.00  0.00     0.010 A 
ENDBRANCH   7  13
BRANCH  11  20
HETATM   20  N   UNL     1      45.510 -21.935   4.999  1.00  0.00    -0.282 NA
HETATM   21  H   UNL     1      45.799 -22.013   5.970  1.00  0.00     0.126 HD
HETATM   22  H   UNL     1      45.123 -22.797   4.619  1.00  0.00     0.126 HD
ENDBRANCH  11  20
BRANCH   1  23
HETATM   23  C   UNL     1      41.342 -17.020   2.856  1.00  0.00     0.029 C 
HETATM   24  C   UNL     1      40.372 -17.132   1.678  1.00  0.00     0.016 C 
HETATM   25  C   UNL     1      41.836 -15.584   3.024  1.00  0.00     0.016 C 
ENDBRANCH   1  23
TORSDOF 3
ENDMDL
MODEL 7
REMARK VINA RESULT:      -7.0      3.663      5.970
REMARK  3 active torsions:
REMARK  status: ('A' for Active; 'I' for Inactive)
REMARK    1  A    between atoms: C_2  and  C_3 
REMARK    2  A    between atoms: C_9  and  C_10 
REMARK    3  A    between atoms: C_20  and  N_21 
ROOT
HETATM    1  C   UNL     1      40.733 -14.591   1.082  1.00  0.00     0.043 A 
HETATM    2  N   UNL     1      39.385 -14.308   1.009  1.00  0.00    -0.279 N 
HETATM    3  H   UNL     1      38.823 -14.155   0.179  1.00  0.00     0.189 HD
HETATM    4  N   UNL     1      38.785 -14.185   2.210  1.00  0.00    -0.148 NA
HETATM    5  C   UNL     1      39.774 -14.449   3.054  1.00  0.00     0.199 A 
HETATM    6  C   UNL     1      40.996 -14.733   2.433  1.00  0.00     0.035 A 
HETATM    7  C   UNL     1      42.209 -14.995   3.251  1.00  0.00     0.106 A 
HETATM    8  C   UNL     1      41.929 -14.777   4.727  1.00  0.00     0.067 A 
HETATM    9  C   UNL     1      43.151 -14.710   5.627  1.00  0.00     0.020 C 
HETATM   10  N   UNL     1      44.165 -14.656   6.375  1.00  0.00    -0.096 N 
HETATM   11  C   UNL     1      40.698 -14.489   5.220  1.00  0.00     0.139 A 
HETATM   12  O   UNL     1      39.574 -14.378   4.384  1.00  0.00    -0.277 OA
ENDROOT
BRANCH   7  13
HETATM   13  C   UNL     1      42.736 -16.378   2.888  1.00  0.00    -0.022 A 
HETATM   14  C   UNL     1      42.304 -17.596   3.449  1.00  0.00     0.041 A 
HETATM   15 CL   UNL     1      41.091 -17.706   4.671  1.00  0.00    -0.084 Cl
HETATM   16  C   UNL     1      42.868 -18.814   3.040  1.00  0.00     0.024 A 
HETATM   17  C   UNL     1      43.876 -18.843   2.081  1.00  0.00     0.002 A 
HETATM   18  C   UNL     1      44.330 -17.655   1.525  1.00  0.00     0.001 A 
HETATM   19  C   UNL     1      43.769 -16.439   1.924  1.00  0.00     0.010 A 
ENDBRANCH   7  13
BRANCH  11  20
HETATM   20  N   UNL     1      40.407 -14.239   6.542  1.00  0.00    -0.282 NA
HETATM   21  H   UNL     1      41.176 -13.914   7.122  1.00  0.00     0.126 HD
HETATM   22  H   UNL     1      39.556 -13.691   6.650  1.00  0.00     0.126 HD
ENDBRANCH  11  20
BRANCH   1  23
HETATM   23  C   UNL     1      41.612 -14.683  -0.127  1.00  0.00     0.029 C 
HETATM   24  C   UNL     1      41.577 -13.387  -0.940  1.00  0.00     0.016 C 
HETATM   25  C   UNL     1      41.242 -15.885  -0.995  1.00  0.00     0.016 C 
ENDBRANCH   1  23
TORSDOF 3
ENDMDL
MODEL 8
REMARK VINA RESULT:      -6.7      3.536      5.727
REMARK  3 active torsions:
REMARK  status: ('A' for Active; 'I' for Inactive)
REMARK    1  A    between atoms: C_2  and  C_3 
REMARK    2  A    between atoms: C_9  and  C_10 
REMARK    3  A    between atoms: C_20  and  N_21 
ROOT
HETATM    1  C   UNL     1      39.818 -14.949   1.177  1.00  0.00     0.043 A 
HETATM    2  N   UNL     1      40.182 -14.912  -0.153  1.00  0.00    -0.279 N 
HETATM    3  H   UNL     1      39.712 -14.436  -0.916  1.00  0.00     0.189 HD
HETATM    4  N   UNL     1      41.276 -15.644  -0.442  1.00  0.00    -0.148 NA
HETATM    5  C   UNL     1      41.634 -16.108   0.749  1.00  0.00     0.199 A 
HETATM    6  C   UNL     1      40.799 -15.703   1.797  1.00  0.00     0.035 A 
HETATM    7  C   UNL     1      41.042 -16.188   3.180  1.00  0.00     0.106 A 
HETATM    8  C   UNL     1      42.163 -17.212   3.208  1.00  0.00     0.067 A 
HETATM    9  C   UNL     1      42.298 -18.005   4.498  1.00  0.00     0.020 C 
HETATM   10  N   UNL     1      42.412 -18.663   5.567  1.00  0.00    -0.096 N 
HETATM   11  C   UNL     1      42.903 -17.542   2.120  1.00  0.00     0.139 A 
HETATM   12  O   UNL     1      42.685 -16.942   0.868  1.00  0.00    -0.277 OA
ENDROOT
BRANCH   7  13
HETATM   13  C   UNL     1      41.249 -14.975   4.079  1.00  0.00    -0.022 A 
HETATM   14  C   UNL     1      42.376 -14.130   4.074  1.00  0.00     0.041 A 
HETATM   15 CL   UNL     1      43.731 -14.354   3.030  1.00  0.00    -0.084 Cl
HETATM   16  C   UNL     1      42.459 -13.042   4.955  1.00  0.00     0.024 A 
HETATM   17  C   UNL     1      41.437 -12.782   5.863  1.00  0.00     0.002 A 
HETATM   18  C   UNL     1      40.323 -13.610   5.898  1.00  0.00     0.001 A 
HETATM   19  C   UNL     1      40.231 -14.693   5.019  1.00  0.00     0.010 A 
ENDBRANCH   7  13
BRANCH  11  20
HETATM   20  N   UNL     1      43.896 -18.495   2.090  1.00  0.00    -0.282 NA
HETATM   21  H   UNL     1      43.627 -19.420   1.768  1.00  0.00     0.126 HD
HETATM   22  H   UNL     1      44.748 -18.146   1.656  1.00  0.00     0.126 HD
ENDBRANCH  11  20
BRANCH   1  23
HETATM   23  C   UNL     1      38.585 -14.280   1.703  1.00  0.00     0.029 C 
HETATM   24  C   UNL     1      37.488 -14.221   0.637  1.00  0.00     0.016 C 
HETATM   25  C   UNL     1      38.896 -12.887   2.248  1.00  0.00     0.016 C 
ENDBRANCH   1  23
TORSDOF 3
ENDMDL
MODEL 9
REMARK VINA RESULT:      -6.7      3.644      6.061
REMARK  3 active torsions:
REMARK  status: ('A' for Active; 'I' for Inactive)
REMARK    1  A    between atoms: C_2  and  C_3 
REMARK    2  A    between atoms: C_9  and  C_10 
REMARK    3  A    between atoms: C_20  and  N_21 
ROOT
HETATM    1  C   UNL     1      41.124 -14.339   1.969  1.00  0.00     0.043 A 
HETATM    2  N   UNL     1      39.950 -13.623   1.863  1.00  0.00    -0.279 N 
HETATM    3  H   UNL     1      39.330 -13.556   1.062  1.00  0.00     0.189 HD
HETATM    4  N   UNL     1      39.645 -12.905   2.961  1.00  0.00    -0.148 NA
HETATM    5  C   UNL     1      40.628 -13.221   3.794  1.00  0.00     0.199 A 
HETATM    6  C   UNL     1      41.562 -14.118   3.263  1.00  0.00     0.035 A 
HETATM    7  C   UNL     1      42.750 -14.522   4.059  1.00  0.00     0.106 A 
HETATM    8  C   UNL     1      42.821 -13.748   5.363  1.00  0.00     0.067 A 
HETATM    9  C   UNL     1      44.138 -13.843   6.115  1.00  0.00     0.020 C 
HETATM   10  N   UNL     1      45.230 -13.921   6.740  1.00  0.00    -0.096 N 
HETATM   11  C   UNL     1      41.857 -12.886   5.775  1.00  0.00     0.139 A 
HETATM   12  O   UNL     1      40.700 -12.651   5.013  1.00  0.00    -0.277 OA
ENDROOT
BRANCH   7  13
HETATM   13  C   UNL     1      42.728 -16.039   4.206  1.00  0.00    -0.022 A 
HETATM   14  C   UNL     1      41.830 -16.776   5.003  1.00  0.00     0.041 A 
HETATM   15 CL   UNL     1      40.595 -16.051   5.966  1.00  0.00    -0.084 Cl
HETATM   16  C   UNL     1      41.908 -18.174   5.066  1.00  0.00     0.024 A 
HETATM   17  C   UNL     1      42.885 -18.864   4.353  1.00  0.00     0.002 A 
HETATM   18  C   UNL     1      43.792 -18.160   3.574  1.00  0.00     0.001 A 
HETATM   19  C   UNL     1      43.716 -16.766   3.502  1.00  0.00     0.010 A 
ENDBRANCH   7  13
BRANCH  11  20
HETATM   20  N   UNL     1      41.901 -12.131   6.925  1.00  0.00    -0.282 NA
HETATM   21  H   UNL     1      41.412 -12.506   7.733  1.00  0.00     0.126 HD
HETATM   22  H   UNL     1      42.844 -11.808   7.134  1.00  0.00     0.126 HD
ENDBRANCH  11  20
BRANCH   1  23
HETATM   23  C   UNL     1      41.698 -15.135   0.838  1.00  0.00     0.029 C 
HETATM   24  C   UNL     1      41.425 -14.463  -0.509  1.00  0.00     0.016 C 
HETATM   25  C   UNL     1      41.179 -16.572   0.848  1.00  0.00     0.016 C 
ENDBRANCH   1  23
TORSDOF 3
ENDMDL
MODEL 10
REMARK VINA RESULT:      -6.3      8.424     10.773
REMARK  3 active torsions:
REMARK  status: ('A' for Active; 'I' for Inactive)
REMARK    1  A    between atoms: C_2  and  C_3 
REMARK    2  A    between atoms: C_9  and  C_10 
REMARK    3  A    between atoms: C_20  and  N_21 
ROOT
HETATM    1  C   UNL     1      40.645 -14.501  -2.728  1.00  0.00     0.043 A 
HETATM    2  N   UNL     1      40.850 -15.782  -3.198  1.00  0.00    -0.279 N 
HETATM    3  H   UNL     1      41.695 -16.339  -3.141  1.00  0.00     0.189 HD
HETATM    4  N   UNL     1      39.789 -16.304  -3.844  1.00  0.00    -0.148 NA
HETATM    5  C   UNL     1      38.881 -15.344  -3.729  1.00  0.00     0.199 A 
HETATM    6  C   UNL     1      39.326 -14.215  -3.033  1.00  0.00     0.035 A 
HETATM    7  C   UNL     1      38.437 -13.035  -2.871  1.00  0.00     0.106 A 
HETATM    8  C   UNL     1      37.144 -13.217  -3.646  1.00  0.00     0.067 A 
HETATM    9  C   UNL     1      36.295 -11.967  -3.814  1.00  0.00     0.020 C 
HETATM   10  N   UNL     1      35.589 -10.932  -3.953  1.00  0.00    -0.096 N 
HETATM   11  C   UNL     1      36.820 -14.359  -4.303  1.00  0.00     0.139 A 
HETATM   12  O   UNL     1      37.669 -15.478  -4.304  1.00  0.00    -0.277 OA
ENDROOT
BRANCH   7  13
HETATM   13  C   UNL     1      38.267 -12.771  -1.380  1.00  0.00    -0.022 A 
HETATM   14  C   UNL     1      38.528 -11.551  -0.725  1.00  0.00     0.041 A 
HETATM   15 CL   UNL     1      39.105 -10.140  -1.533  1.00  0.00    -0.084 Cl
HETATM   16  C   UNL     1      38.341 -11.426   0.659  1.00  0.00     0.024 A 
HETATM   17  C   UNL     1      37.906 -12.509   1.418  1.00  0.00     0.002 A 
HETATM   18  C   UNL     1      37.657 -13.725   0.798  1.00  0.00     0.001 A 
HETATM   19  C   UNL     1      37.837 -13.856  -0.581  1.00  0.00     0.010 A 
ENDBRANCH   7  13
BRANCH  11  20
HETATM   20  N   UNL     1      35.682 -14.551  -5.054  1.00  0.00    -0.282 NA
HETATM   21  H   UNL     1      35.179 -15.421  -4.900  1.00  0.00     0.126 HD
HETATM   22  H   UNL     1      35.082 -13.729  -5.056  1.00  0.00     0.126 HD
ENDBRANCH  11  20
BRANCH   1  23
HETATM   23  C   UNL     1      41.717 -13.698  -2.058  1.00  0.00     0.029 C 
HETATM   24  C   UNL     1      41.531 -13.680  -0.539  1.00  0.00     0.016 C 
HETATM   25  C   UNL     1      41.784 -12.279  -2.619  1.00  0.00     0.016 C 
ENDBRANCH   1  23
TORSDOF 3
ENDMDL
