MODEL 1
REMARK VINA RESULT:      -7.8      0.000      0.000
REMARK  4 active torsions:
REMARK  status: ('A' for Active; 'I' for Inactive)
REMARK    1  A    between atoms: C_6  and  N_7 
REMARK       I    between atoms: N_7  and  C_8 
REMARK    2  A    between atoms: C_8  and  C_9 
REMARK    3  A    between atoms: C_9  and  S_10 
REMARK    4  A    between atoms: S_10  and  C_11 
ROOT
HETATM    1  C   UNL     1      44.258 -19.539   4.088  1.00  0.00     0.001 A 
HETATM    2  C   UNL     1      43.263 -18.703   4.587  1.00  0.00     0.018 A 
HETATM    3  C   UNL     1      42.398 -18.033   3.704  1.00  0.00     0.049 A 
HETATM    4  C   UNL     1      42.529 -18.184   2.325  1.00  0.00     0.024 A 
HETATM    5  S   UNL     1      41.524 -17.364   1.115  1.00  0.00    -0.053 SA
HETATM    6  C   UNL     1      40.375 -16.548   2.114  1.00  0.00     0.154 A 
HETATM    7  N   UNL     1      40.422 -16.550   3.421  1.00  0.00    -0.303 N 
HETATM    8  H   UNL     1      39.702 -16.011   3.903  1.00  0.00     0.171 HD
HETATM    9  C   UNL     1      41.347 -17.183   4.271  1.00  0.00     0.259 A 
HETATM   10  O   UNL     1      41.195 -16.990   5.463  1.00  0.00    -0.267 OA
HETATM   11  C   UNL     1      43.536 -19.034   1.840  1.00  0.00     0.020 A 
HETATM   12  C   UNL     1      44.392 -19.708   2.714  1.00  0.00     0.001 A 
ENDROOT
BRANCH   6  13
HETATM   13  N   UNL     1      39.439 -15.913   1.445  1.00  0.00    -0.306 N 
HETATM   14  C   UNL     1      38.896 -14.630   1.731  1.00  0.00     0.233 C 
HETATM   15  O   UNL     1      39.364 -14.046   2.699  1.00  0.00    -0.272 OA
HETATM   16  H   UNL     1      39.123 -16.379   0.600  1.00  0.00     0.171 HD
BRANCH  14  17
HETATM   17  C   UNL     1      37.801 -14.078   0.842  1.00  0.00     0.184 C 
BRANCH  17  18
HETATM   18  S   UNL     1      38.406 -12.885  -0.398  1.00  0.00    -0.101 SA
BRANCH  18  19
HETATM   19  C   UNL     1      38.943 -14.015  -1.664  1.00  0.00     0.093 A 
HETATM   20  N   UNL     1      40.173 -14.556  -1.489  1.00  0.00    -0.254 NA
HETATM   21  C   UNL     1      40.596 -15.418  -2.445  1.00  0.00     0.118 A 
HETATM   22  C   UNL     1      39.832 -15.797  -3.536  1.00  0.00     0.019 A 
HETATM   23  C   UNL     1      38.558 -15.258  -3.664  1.00  0.00     0.004 A 
HETATM   24  C   UNL     1      38.100 -14.351  -2.713  1.00  0.00     0.039 A 
ENDBRANCH  18  19
ENDBRANCH  17  18
ENDBRANCH  14  17
ENDBRANCH   6  13
TORSDOF 4
ENDMDL
MODEL 2
REMARK VINA RESULT:      -7.7      5.499      8.424
REMARK  4 active torsions:
REMARK  status: ('A' for Active; 'I' for Inactive)
REMARK    1  A    between atoms: C_6  and  N_7 
REMARK       I    between atoms: N_7  and  C_8 
REMARK    2  A    between atoms: C_8  and  C_9 
REMARK    3  A    between atoms: C_9  and  S_10 
REMARK    4  A    between atoms: S_10  and  C_11 
ROOT
HETATM    1  C   UNL     1      43.937 -21.076   2.073  1.00  0.00     0.001 A 
HETATM    2  C   UNL     1      43.242 -19.875   1.969  1.00  0.00     0.018 A 
HETATM    3  C   UNL     1      43.300 -18.935   3.013  1.00  0.00     0.049 A 
HETATM    4  C   UNL     1      44.041 -19.193   4.165  1.00  0.00     0.024 A 
HETATM    5  S   UNL     1      44.161 -18.104   5.560  1.00  0.00    -0.053 SA
HETATM    6  C   UNL     1      43.287 -16.724   4.998  1.00  0.00     0.154 A 
HETATM    7  N   UNL     1      42.666 -16.680   3.847  1.00  0.00    -0.303 N 
HETATM    8  H   UNL     1      42.162 -15.819   3.635  1.00  0.00     0.171 HD
HETATM    9  C   UNL     1      42.576 -17.671   2.853  1.00  0.00     0.259 A 
HETATM   10  O   UNL     1      41.893 -17.395   1.885  1.00  0.00    -0.267 OA
HETATM   11  C   UNL     1      44.738 -20.409   4.251  1.00  0.00     0.020 A 
HETATM   12  C   UNL     1      44.689 -21.342   3.213  1.00  0.00     0.001 A 
ENDROOT
BRANCH   6  13
HETATM   13  N   UNL     1      43.293 -15.709   5.832  1.00  0.00    -0.306 N 
HETATM   14  C   UNL     1      43.575 -14.348   5.532  1.00  0.00     0.233 C 
HETATM   15  O   UNL     1      43.825 -14.091   4.361  1.00  0.00    -0.272 OA
HETATM   16  H   UNL     1      43.004 -15.931   6.780  1.00  0.00     0.171 HD
BRANCH  14  17
HETATM   17  C   UNL     1      43.548 -13.325   6.647  1.00  0.00     0.184 C 
BRANCH  17  18
HETATM   18  S   UNL     1      45.058 -13.327   7.671  1.00  0.00    -0.101 SA
BRANCH  18  19
HETATM   19  C   UNL     1      44.588 -12.131   8.902  1.00  0.00     0.093 A 
HETATM   20  N   UNL     1      43.485 -11.396   8.620  1.00  0.00    -0.254 NA
HETATM   21  C   UNL     1      43.114 -10.481   9.548  1.00  0.00     0.118 A 
HETATM   22  C   UNL     1      43.765 -10.300  10.758  1.00  0.00     0.019 A 
HETATM   23  C   UNL     1      44.867 -11.100  11.035  1.00  0.00     0.004 A 
HETATM   24  C   UNL     1      45.289 -12.035  10.095  1.00  0.00     0.039 A 
ENDBRANCH  18  19
ENDBRANCH  17  18
ENDBRANCH  14  17
ENDBRANCH   6  13
TORSDOF 4
ENDMDL
MODEL 3
REMARK VINA RESULT:      -7.5      6.496      9.278
REMARK  4 active torsions:
REMARK  status: ('A' for Active; 'I' for Inactive)
REMARK    1  A    between atoms: C_6  and  N_7 
REMARK       I    between atoms: N_7  and  C_8 
REMARK    2  A    between atoms: C_8  and  C_9 
REMARK    3  A    between atoms: C_9  and  S_10 
REMARK    4  A    between atoms: S_10  and  C_11 
ROOT
HETATM    1  C   UNL     1      43.426 -17.847   1.207  1.00  0.00     0.001 A 
HETATM    2  C   UNL     1      43.341 -16.506   1.571  1.00  0.00     0.018 A 
HETATM    3  C   UNL     1      43.405 -16.140   2.927  1.00  0.00     0.049 A 
HETATM    4  C   UNL     1      43.541 -17.106   3.922  1.00  0.00     0.024 A 
HETATM    5  S   UNL     1      43.596 -16.770   5.663  1.00  0.00    -0.053 SA
HETATM    6  C   UNL     1      43.586 -15.042   5.682  1.00  0.00     0.154 A 
HETATM    7  N   UNL     1      43.467 -14.307   4.606  1.00  0.00    -0.303 N 
HETATM    8  H   UNL     1      43.449 -13.297   4.746  1.00  0.00     0.171 HD
HETATM    9  C   UNL     1      43.339 -14.715   3.266  1.00  0.00     0.259 A 
HETATM   10  O   UNL     1      43.196 -13.826   2.449  1.00  0.00    -0.267 OA
HETATM   11  C   UNL     1      43.628 -18.453   3.535  1.00  0.00     0.020 A 
HETATM   12  C   UNL     1      43.573 -18.821   2.189  1.00  0.00     0.001 A 
ENDROOT
BRANCH   6  13
HETATM   13  N   UNL     1      43.706 -14.519   6.882  1.00  0.00    -0.306 N 
HETATM   14  C   UNL     1      44.785 -13.735   7.376  1.00  0.00     0.233 C 
HETATM   15  O   UNL     1      45.697 -13.510   6.590  1.00  0.00    -0.272 OA
HETATM   16  H   UNL     1      42.903 -14.649   7.489  1.00  0.00     0.171 HD
BRANCH  14  17
HETATM   17  C   UNL     1      44.742 -13.238   8.805  1.00  0.00     0.184 C 
BRANCH  17  18
HETATM   18  S   UNL     1      45.573 -11.631   9.040  1.00  0.00    -0.101 SA
BRANCH  18  19
HETATM   19  C   UNL     1      44.323 -10.781   9.979  1.00  0.00     0.093 A 
HETATM   20  N   UNL     1      43.194 -10.460   9.303  1.00  0.00    -0.254 NA
HETATM   21  C   UNL     1      42.232  -9.812  10.005  1.00  0.00     0.118 A 
HETATM   22  C   UNL     1      42.330  -9.513  11.353  1.00  0.00     0.019 A 
HETATM   23  C   UNL     1      43.483  -9.894  12.028  1.00  0.00     0.004 A 
HETATM   24  C   UNL     1      44.501 -10.541  11.333  1.00  0.00     0.039 A 
ENDBRANCH  18  19
ENDBRANCH  17  18
ENDBRANCH  14  17
ENDBRANCH   6  13
TORSDOF 4
ENDMDL
MODEL 4
REMARK VINA RESULT:      -7.3      3.059      4.053
REMARK  4 active torsions:
REMARK  status: ('A' for Active; 'I' for Inactive)
REMARK    1  A    between atoms: C_6  and  N_7 
REMARK       I    between atoms: N_7  and  C_8 
REMARK    2  A    between atoms: C_8  and  C_9 
REMARK    3  A    between atoms: C_9  and  S_10 
REMARK    4  A    between atoms: S_10  and  C_11 
ROOT
HETATM    1  C   UNL     1      44.521 -21.696   3.105  1.00  0.00     0.001 A 
HETATM    2  C   UNL     1      44.682 -20.866   4.210  1.00  0.00     0.018 A 
HETATM    3  C   UNL     1      44.220 -19.539   4.169  1.00  0.00     0.049 A 
HETATM    4  C   UNL     1      43.608 -19.032   3.024  1.00  0.00     0.024 A 
HETATM    5  S   UNL     1      43.019 -17.369   2.839  1.00  0.00    -0.053 SA
HETATM    6  C   UNL     1      43.287 -16.729   4.421  1.00  0.00     0.154 A 
HETATM    7  N   UNL     1      43.875 -17.396   5.382  1.00  0.00    -0.303 N 
HETATM    8  H   UNL     1      43.999 -16.904   6.267  1.00  0.00     0.171 HD
HETATM    9  C   UNL     1      44.385 -18.707   5.364  1.00  0.00     0.259 A 
HETATM   10  O   UNL     1      44.931 -19.080   6.385  1.00  0.00    -0.267 OA
HETATM   11  C   UNL     1      43.451 -19.885   1.919  1.00  0.00     0.020 A 
HETATM   12  C   UNL     1      43.903 -21.206   1.959  1.00  0.00     0.001 A 
ENDROOT
BRANCH   6  13
HETATM   13  N   UNL     1      42.849 -15.501   4.584  1.00  0.00    -0.306 N 
HETATM   14  C   UNL     1      41.918 -15.040   5.555  1.00  0.00     0.233 C 
HETATM   15  O   UNL     1      41.487 -15.878   6.336  1.00  0.00    -0.272 OA
HETATM   16  H   UNL     1      43.280 -14.809   3.980  1.00  0.00     0.171 HD
BRANCH  14  17
HETATM   17  C   UNL     1      41.526 -13.577   5.565  1.00  0.00     0.184 C 
BRANCH  17  18
HETATM   18  S   UNL     1      39.970 -13.236   4.676  1.00  0.00    -0.101 SA
BRANCH  18  19
HETATM   19  C   UNL     1      40.386 -13.899   3.077  1.00  0.00     0.093 A 
HETATM   20  N   UNL     1      41.486 -13.371   2.488  1.00  0.00    -0.254 NA
HETATM   21  C   UNL     1      41.815 -13.865   1.270  1.00  0.00     0.118 A 
HETATM   22  C   UNL     1      41.126 -14.888   0.639  1.00  0.00     0.019 A 
HETATM   23  C   UNL     1      40.028 -15.438   1.290  1.00  0.00     0.004 A 
HETATM   24  C   UNL     1      39.648 -14.939   2.532  1.00  0.00     0.039 A 
ENDBRANCH  18  19
ENDBRANCH  17  18
ENDBRANCH  14  17
ENDBRANCH   6  13
TORSDOF 4
ENDMDL
MODEL 5
REMARK VINA RESULT:      -7.3      2.964      3.591
REMARK  4 active torsions:
REMARK  status: ('A' for Active; 'I' for Inactive)
REMARK    1  A    between atoms: C_6  and  N_7 
REMARK       I    between atoms: N_7  and  C_8 
REMARK    2  A    between atoms: C_8  and  C_9 
REMARK    3  A    between atoms: C_9  and  S_10 
REMARK    4  A    between atoms: S_10  and  C_11 
ROOT
HETATM    1  C   UNL     1      44.872 -21.007   4.433  1.00  0.00     0.001 A 
HETATM    2  C   UNL     1      44.640 -19.810   5.104  1.00  0.00     0.018 A 
HETATM    3  C   UNL     1      44.136 -18.697   4.408  1.00  0.00     0.049 A 
HETATM    4  C   UNL     1      43.874 -18.770   3.041  1.00  0.00     0.024 A 
HETATM    5  S   UNL     1      43.274 -17.427   2.050  1.00  0.00    -0.053 SA
HETATM    6  C   UNL     1      43.009 -16.207   3.244  1.00  0.00     0.154 A 
HETATM    7  N   UNL     1      43.314 -16.353   4.508  1.00  0.00    -0.303 N 
HETATM    8  H   UNL     1      43.134 -15.553   5.114  1.00  0.00     0.171 HD
HETATM    9  C   UNL     1      43.880 -17.465   5.158  1.00  0.00     0.259 A 
HETATM   10  O   UNL     1      44.110 -17.328   6.345  1.00  0.00    -0.267 OA
HETATM   11  C   UNL     1      44.111 -19.986   2.381  1.00  0.00     0.020 A 
HETATM   12  C   UNL     1      44.605 -21.096   3.070  1.00  0.00     0.001 A 
ENDROOT
BRANCH   6  13
HETATM   13  N   UNL     1      42.472 -15.104   2.773  1.00  0.00    -0.306 N 
HETATM   14  C   UNL     1      42.969 -13.779   2.906  1.00  0.00     0.233 C 
HETATM   15  O   UNL     1      44.024 -13.653   3.515  1.00  0.00    -0.272 OA
HETATM   16  H   UNL     1      41.643 -15.239   2.203  1.00  0.00     0.171 HD
BRANCH  14  17
HETATM   17  C   UNL     1      42.187 -12.632   2.302  1.00  0.00     0.184 C 
BRANCH  17  18
HETATM   18  S   UNL     1      40.726 -12.153   3.284  1.00  0.00    -0.101 SA
BRANCH  18  19
HETATM   19  C   UNL     1      39.445 -12.901   2.301  1.00  0.00     0.093 A 
HETATM   20  N   UNL     1      39.462 -14.255   2.239  1.00  0.00    -0.254 NA
HETATM   21  C   UNL     1      38.492 -14.838   1.494  1.00  0.00     0.118 A 
HETATM   22  C   UNL     1      37.486 -14.137   0.850  1.00  0.00     0.019 A 
HETATM   23  C   UNL     1      37.471 -12.753   0.969  1.00  0.00     0.004 A 
HETATM   24  C   UNL     1      38.465 -12.119   1.708  1.00  0.00     0.039 A 
ENDBRANCH  18  19
ENDBRANCH  17  18
ENDBRANCH  14  17
ENDBRANCH   6  13
TORSDOF 4
ENDMDL
MODEL 6
REMARK VINA RESULT:      -7.1      3.498      7.992
REMARK  4 active torsions:
REMARK  status: ('A' for Active; 'I' for Inactive)
REMARK    1  A    between atoms: C_6  and  N_7 
REMARK       I    between atoms: N_7  and  C_8 
REMARK    2  A    between atoms: C_8  and  C_9 
REMARK    3  A    between atoms: C_9  and  S_10 
REMARK    4  A    between atoms: S_10  and  C_11 
ROOT
HETATM    1  C   UNL     1      42.494 -10.697  -3.654  1.00  0.00     0.001 A 
HETATM    2  C   UNL     1      42.122 -12.034  -3.755  1.00  0.00     0.018 A 
HETATM    3  C   UNL     1      41.969 -12.812  -2.594  1.00  0.00     0.049 A 
HETATM    4  C   UNL     1      42.198 -12.264  -1.333  1.00  0.00     0.024 A 
HETATM    5  S   UNL     1      42.075 -13.153   0.197  1.00  0.00    -0.053 SA
HETATM    6  C   UNL     1      41.490 -14.687  -0.340  1.00  0.00     0.154 A 
HETATM    7  N   UNL     1      41.322 -14.997  -1.600  1.00  0.00    -0.303 N 
HETATM    8  H   UNL     1      40.995 -15.944  -1.795  1.00  0.00     0.171 HD
HETATM    9  C   UNL     1      41.549 -14.208  -2.742  1.00  0.00     0.259 A 
HETATM   10  O   UNL     1      41.358 -14.752  -3.813  1.00  0.00    -0.267 OA
HETATM   11  C   UNL     1      42.570 -10.913  -1.251  1.00  0.00     0.020 A 
HETATM   12  C   UNL     1      42.715 -10.134  -2.401  1.00  0.00     0.001 A 
ENDROOT
BRANCH   6  13
HETATM   13  N   UNL     1      41.227 -15.531   0.633  1.00  0.00    -0.306 N 
HETATM   14  C   UNL     1      41.986 -16.672   1.012  1.00  0.00     0.233 C 
HETATM   15  O   UNL     1      43.006 -16.884   0.370  1.00  0.00    -0.272 OA
HETATM   16  H   UNL     1      40.422 -15.291   1.203  1.00  0.00     0.171 HD
BRANCH  14  17
HETATM   17  C   UNL     1      41.500 -17.534   2.158  1.00  0.00     0.184 C 
BRANCH  17  18
HETATM   18  S   UNL     1      42.683 -17.637   3.542  1.00  0.00    -0.101 SA
BRANCH  18  19
HETATM   19  C   UNL     1      43.411 -19.224   3.197  1.00  0.00     0.093 A 
HETATM   20  N   UNL     1      44.240 -19.713   4.152  1.00  0.00    -0.254 NA
HETATM   21  C   UNL     1      44.803 -20.920   3.903  1.00  0.00     0.118 A 
HETATM   22  C   UNL     1      44.540 -21.677   2.773  1.00  0.00     0.019 A 
HETATM   23  C   UNL     1      43.651 -21.168   1.835  1.00  0.00     0.004 A 
HETATM   24  C   UNL     1      43.073 -19.919   2.046  1.00  0.00     0.039 A 
ENDBRANCH  18  19
ENDBRANCH  17  18
ENDBRANCH  14  17
ENDBRANCH   6  13
TORSDOF 4
ENDMDL
MODEL 7
REMARK VINA RESULT:      -7.0      2.517      3.179
REMARK  4 active torsions:
REMARK  status: ('A' for Active; 'I' for Inactive)
REMARK    1  A    between atoms: C_6  and  N_7 
REMARK       I    between atoms: N_7  and  C_8 
REMARK    2  A    between atoms: C_8  and  C_9 
REMARK    3  A    between atoms: C_9  and  S_10 
REMARK    4  A    between atoms: S_10  and  C_11 
ROOT
HETATM    1  C   UNL     1      44.748 -22.259   3.931  1.00  0.00     0.001 A 
HETATM    2  C   UNL     1      44.731 -21.057   4.633  1.00  0.00     0.018 A 
HETATM    3  C   UNL     1      44.367 -19.865   3.981  1.00  0.00     0.049 A 
HETATM    4  C   UNL     1      44.031 -19.865   2.629  1.00  0.00     0.024 A 
HETATM    5  S   UNL     1      43.593 -18.425   1.692  1.00  0.00    -0.053 SA
HETATM    6  C   UNL     1      43.572 -17.207   2.918  1.00  0.00     0.154 A 
HETATM    7  N   UNL     1      43.913 -17.427   4.162  1.00  0.00    -0.303 N 
HETATM    8  H   UNL     1      43.885 -16.624   4.790  1.00  0.00     0.171 HD
HETATM    9  C   UNL     1      44.336 -18.626   4.764  1.00  0.00     0.259 A 
HETATM   10  O   UNL     1      44.641 -18.555   5.939  1.00  0.00    -0.267 OA
HETATM   11  C   UNL     1      44.051 -21.087   1.937  1.00  0.00     0.020 A 
HETATM   12  C   UNL     1      44.404 -22.275   2.583  1.00  0.00     0.001 A 
ENDROOT
BRANCH   6  13
HETATM   13  N   UNL     1      43.186 -16.025   2.493  1.00  0.00    -0.306 N 
HETATM   14  C   UNL     1      41.875 -15.477   2.548  1.00  0.00     0.233 C 
HETATM   15  O   UNL     1      41.013 -16.179   3.062  1.00  0.00    -0.272 OA
HETATM   16  H   UNL     1      43.930 -15.430   2.146  1.00  0.00     0.171 HD
BRANCH  14  17
HETATM   17  C   UNL     1      41.629 -14.094   1.983  1.00  0.00     0.184 C 
BRANCH  17  18
HETATM   18  S   UNL     1      40.278 -14.038   0.760  1.00  0.00    -0.101 SA
BRANCH  18  19
HETATM   19  C   UNL     1      41.197 -13.539  -0.680  1.00  0.00     0.093 A 
HETATM   20  N   UNL     1      42.055 -12.505  -0.503  1.00  0.00    -0.254 NA
HETATM   21  C   UNL     1      42.762 -12.113  -1.591  1.00  0.00     0.118 A 
HETATM   22  C   UNL     1      42.685 -12.734  -2.827  1.00  0.00     0.019 A 
HETATM   23  C   UNL     1      41.828 -13.818  -2.964  1.00  0.00     0.004 A 
HETATM   24  C   UNL     1      41.069 -14.234  -1.874  1.00  0.00     0.039 A 
ENDBRANCH  18  19
ENDBRANCH  17  18
ENDBRANCH  14  17
ENDBRANCH   6  13
TORSDOF 4
ENDMDL
MODEL 8
REMARK VINA RESULT:      -7.0      5.022      6.240
REMARK  4 active torsions:
REMARK  status: ('A' for Active; 'I' for Inactive)
REMARK    1  A    between atoms: C_6  and  N_7 
REMARK       I    between atoms: N_7  and  C_8 
REMARK    2  A    between atoms: C_8  and  C_9 
REMARK    3  A    between atoms: C_9  and  S_10 
REMARK    4  A    between atoms: S_10  and  C_11 
ROOT
HETATM    1  C   UNL     1      43.822 -21.895   1.622  1.00  0.00     0.001 A 
HETATM    2  C   UNL     1      43.247 -20.629   1.697  1.00  0.00     0.018 A 
HETATM    3  C   UNL     1      43.529 -19.791   2.790  1.00  0.00     0.049 A 
HETATM    4  C   UNL     1      44.373 -20.214   3.814  1.00  0.00     0.024 A 
HETATM    5  S   UNL     1      44.774 -19.263   5.257  1.00  0.00    -0.053 SA
HETATM    6  C   UNL     1      43.986 -17.764   4.914  1.00  0.00     0.154 A 
HETATM    7  N   UNL     1      43.238 -17.565   3.859  1.00  0.00    -0.303 N 
HETATM    8  H   UNL     1      42.805 -16.645   3.776  1.00  0.00     0.171 HD
HETATM    9  C   UNL     1      42.926 -18.455   2.816  1.00  0.00     0.259 A 
HETATM   10  O   UNL     1      42.163 -18.035   1.967  1.00  0.00    -0.267 OA
HETATM   11  C   UNL     1      44.946 -21.493   3.721  1.00  0.00     0.020 A 
HETATM   12  C   UNL     1      44.674 -22.326   2.633  1.00  0.00     0.001 A 
ENDROOT
BRANCH   6  13
HETATM   13  N   UNL     1      44.199 -16.829   5.812  1.00  0.00    -0.306 N 
HETATM   14  C   UNL     1      43.311 -16.399   6.835  1.00  0.00     0.233 C 
HETATM   15  O   UNL     1      42.233 -16.976   6.896  1.00  0.00    -0.272 OA
HETATM   16  H   UNL     1      45.128 -16.421   5.794  1.00  0.00     0.171 HD
BRANCH  14  17
HETATM   17  C   UNL     1      43.740 -15.284   7.765  1.00  0.00     0.184 C 
BRANCH  17  18
HETATM   18  S   UNL     1      44.699 -13.974   6.933  1.00  0.00    -0.101 SA
BRANCH  18  19
HETATM   19  C   UNL     1      43.567 -13.560   5.623  1.00  0.00     0.093 A 
HETATM   20  N   UNL     1      43.981 -13.862   4.369  1.00  0.00    -0.254 NA
HETATM   21  C   UNL     1      43.129 -13.553   3.361  1.00  0.00     0.118 A 
HETATM   22  C   UNL     1      41.874 -13.001   3.552  1.00  0.00     0.019 A 
HETATM   23  C   UNL     1      41.462 -12.743   4.854  1.00  0.00     0.004 A 
HETATM   24  C   UNL     1      42.320 -13.027   5.912  1.00  0.00     0.039 A 
ENDBRANCH  18  19
ENDBRANCH  17  18
ENDBRANCH  14  17
ENDBRANCH   6  13
TORSDOF 4
ENDMDL
MODEL 9
REMARK VINA RESULT:      -7.0      8.787     10.350
REMARK  4 active torsions:
REMARK  status: ('A' for Active; 'I' for Inactive)
REMARK    1  A    between atoms: C_6  and  N_7 
REMARK       I    between atoms: N_7  and  C_8 
REMARK    2  A    between atoms: C_8  and  C_9 
REMARK    3  A    between atoms: C_9  and  S_10 
REMARK    4  A    between atoms: S_10  and  C_11 
ROOT
HETATM    1  C   UNL     1      42.458  -9.619  14.911  1.00  0.00     0.001 A 
HETATM    2  C   UNL     1      41.552 -10.514  14.349  1.00  0.00     0.018 A 
HETATM    3  C   UNL     1      41.402 -10.582  12.953  1.00  0.00     0.049 A 
HETATM    4  C   UNL     1      42.144  -9.751  12.115  1.00  0.00     0.024 A 
HETATM    5  S   UNL     1      42.016  -9.719  10.346  1.00  0.00    -0.053 SA
HETATM    6  C   UNL     1      40.915 -11.018  10.055  1.00  0.00     0.154 A 
HETATM    7  N   UNL     1      40.331 -11.700  11.008  1.00  0.00    -0.303 N 
HETATM    8  H   UNL     1      39.681 -12.428  10.713  1.00  0.00     0.171 HD
HETATM    9  C   UNL     1      40.458 -11.558  12.401  1.00  0.00     0.259 A 
HETATM   10  O   UNL     1      39.764 -12.293  13.078  1.00  0.00    -0.267 OA
HETATM   11  C   UNL     1      43.054  -8.856  12.699  1.00  0.00     0.020 A 
HETATM   12  C   UNL     1      43.212  -8.791  14.086  1.00  0.00     0.001 A 
ENDROOT
BRANCH   6  13
HETATM   13  N   UNL     1      40.706 -11.269   8.782  1.00  0.00    -0.306 N 
HETATM   14  C   UNL     1      39.490 -11.110   8.061  1.00  0.00     0.233 C 
HETATM   15  O   UNL     1      38.536 -10.676   8.694  1.00  0.00    -0.272 OA
HETATM   16  H   UNL     1      41.529 -11.549   8.259  1.00  0.00     0.171 HD
BRANCH  14  17
HETATM   17  C   UNL     1      39.450 -11.474   6.593  1.00  0.00     0.184 C 
BRANCH  17  18
HETATM   18  S   UNL     1      40.705 -10.605   5.594  1.00  0.00    -0.101 SA
BRANCH  18  19
HETATM   19  C   UNL     1      41.768 -11.975   5.189  1.00  0.00     0.093 A 
HETATM   20  N   UNL     1      42.290 -12.648   6.243  1.00  0.00    -0.254 NA
HETATM   21  C   UNL     1      43.101 -13.694   5.950  1.00  0.00     0.118 A 
HETATM   22  C   UNL     1      43.375 -14.121   4.662  1.00  0.00     0.019 A 
HETATM   23  C   UNL     1      42.790 -13.436   3.604  1.00  0.00     0.004 A 
HETATM   24  C   UNL     1      41.969 -12.343   3.867  1.00  0.00     0.039 A 
ENDBRANCH  18  19
ENDBRANCH  17  18
ENDBRANCH  14  17
ENDBRANCH   6  13
TORSDOF 4
ENDMDL
MODEL 10
REMARK VINA RESULT:      -6.9      5.618      8.064
REMARK  4 active torsions:
REMARK  status: ('A' for Active; 'I' for Inactive)
REMARK    1  A    between atoms: C_6  and  N_7 
REMARK       I    between atoms: N_7  and  C_8 
REMARK    2  A    between atoms: C_8  and  C_9 
REMARK    3  A    between atoms: C_9  and  S_10 
REMARK    4  A    between atoms: S_10  and  C_11 
ROOT
HETATM    1  C   UNL     1      43.973 -10.315  10.436  1.00  0.00     0.001 A 
HETATM    2  C   UNL     1      43.063 -10.501   9.399  1.00  0.00     0.018 A 
HETATM    3  C   UNL     1      43.269 -11.522   8.455  1.00  0.00     0.049 A 
HETATM    4  C   UNL     1      44.386 -12.352   8.535  1.00  0.00     0.024 A 
HETATM    5  S   UNL     1      44.772 -13.646   7.385  1.00  0.00    -0.053 SA
HETATM    6  C   UNL     1      43.380 -13.627   6.362  1.00  0.00     0.154 A 
HETATM    7  N   UNL     1      42.411 -12.754   6.473  1.00  0.00    -0.303 N 
HETATM    8  H   UNL     1      41.653 -12.827   5.795  1.00  0.00     0.171 HD
HETATM    9  C   UNL     1      42.273 -11.701   7.395  1.00  0.00     0.259 A 
HETATM   10  O   UNL     1      41.291 -10.996   7.256  1.00  0.00    -0.267 OA
HETATM   11  C   UNL     1      45.291 -12.152   9.589  1.00  0.00     0.020 A 
HETATM   12  C   UNL     1      45.086 -11.143  10.533  1.00  0.00     0.001 A 
ENDROOT
BRANCH   6  13
HETATM   13  N   UNL     1      43.373 -14.572   5.448  1.00  0.00    -0.306 N 
HETATM   14  C   UNL     1      43.447 -14.406   4.038  1.00  0.00     0.233 C 
HETATM   15  O   UNL     1      43.544 -13.255   3.630  1.00  0.00    -0.272 OA
HETATM   16  H   UNL     1      43.374 -15.519   5.811  1.00  0.00     0.171 HD
BRANCH  14  17
HETATM   17  C   UNL     1      43.405 -15.630   3.148  1.00  0.00     0.184 C 
BRANCH  17  18
HETATM   18  S   UNL     1      42.129 -16.838   3.635  1.00  0.00    -0.101 SA
BRANCH  18  19
HETATM   19  C   UNL     1      43.028 -18.351   3.365  1.00  0.00     0.093 A 
HETATM   20  N   UNL     1      42.839 -18.943   2.161  1.00  0.00    -0.254 NA
HETATM   21  C   UNL     1      43.517 -20.096   1.941  1.00  0.00     0.118 A 
HETATM   22  C   UNL     1      44.405 -20.654   2.845  1.00  0.00     0.019 A 
HETATM   23  C   UNL     1      44.611 -19.998   4.053  1.00  0.00     0.004 A 
HETATM   24  C   UNL     1      43.913 -18.824   4.322  1.00  0.00     0.039 A 
ENDBRANCH  18  19
ENDBRANCH  17  18
ENDBRANCH  14  17
ENDBRANCH   6  13
TORSDOF 4
ENDMDL
