MODEL 1
REMARK VINA RESULT:      -7.5      0.000      0.000
REMARK  6 active torsions:
REMARK  status: ('A' for Active; 'I' for Inactive)
REMARK    1  A    between atoms: C_2  and  C_3 
REMARK    2  A    between atoms: C_4  and  O_5 
REMARK    3  A    between atoms: C_6  and  C_7 
REMARK       I    between atoms: C_7  and  N_8 
REMARK    4  A    between atoms: N_8  and  C_9 
REMARK    5  A    between atoms: C_9  and  C_10 
REMARK    6  A    between atoms: C_10  and  C_11 
ROOT
HETATM    1  C   UNL     1      43.704 -17.932   2.255  1.00  0.00     0.254 C 
HETATM    2  N   UNL     1      42.729 -17.260   2.949  1.00  0.00    -0.356 N 
HETATM    3  O   UNL     1      44.368 -17.395   1.373  1.00  0.00    -0.268 OA
HETATM    4  H   UNL     1      42.248 -17.768   3.687  1.00  0.00     0.162 HD
ENDROOT
BRANCH   1   5
HETATM    5  C   UNL     1      43.940 -19.368   2.625  1.00  0.00     0.065 A 
HETATM    6  C   UNL     1      44.368 -19.812   3.893  1.00  0.00     0.087 A 
HETATM    7  C   UNL     1      44.546 -21.186   4.155  1.00  0.00    -0.024 A 
HETATM    8  C   UNL     1      44.324 -22.104   3.116  1.00  0.00     0.010 A 
HETATM    9  C   UNL     1      43.916 -21.675   1.854  1.00  0.00     0.002 A 
HETATM   10  C   UNL     1      43.720 -20.317   1.614  1.00  0.00     0.020 A 
BRANCH   6  11
HETATM   11  O   UNL     1      44.611 -18.888   4.880  1.00  0.00    -0.359 OA
HETATM   12  H   UNL     1      43.973 -19.010   5.603  1.00  0.00     0.218 HD
ENDBRANCH   6  11
BRANCH   7  13
HETATM   13  C   UNL     1      44.964 -21.728   5.503  1.00  0.00     0.037 C 
HETATM   14  C   UNL     1      43.896 -21.510   6.565  1.00  0.00     0.010 C 
ENDBRANCH   7  13
ENDBRANCH   1   5
BRANCH   2  15
HETATM   15  C   UNL     1      42.433 -15.860   2.720  1.00  0.00     0.136 C 
BRANCH  15  16
HETATM   16  C   UNL     1      42.018 -15.089   4.010  1.00  0.00    -0.004 C 
HETATM   17  C   UNL     1      42.647 -13.681   3.944  1.00  0.00     0.021 C 
HETATM   18  C   UNL     1      40.479 -14.926   3.976  1.00  0.00     0.021 C 
BRANCH  16  19
HETATM   19  C   UNL     1      42.514 -15.761   5.307  1.00  0.00    -0.046 A 
HETATM   20  C   UNL     1      43.756 -15.434   5.872  1.00  0.00     0.027 A 
HETATM   21  C   UNL     1      44.164 -16.058   7.045  1.00  0.00     0.116 A 
HETATM   22  N   UNL     1      43.426 -16.971   7.706  1.00  0.00    -0.273 NA
HETATM   23  C   UNL     1      42.223 -17.260   7.175  1.00  0.00     0.116 A 
HETATM   24  C   UNL     1      41.731 -16.692   6.006  1.00  0.00     0.027 A 
ENDBRANCH  16  19
ENDBRANCH  15  16
ENDBRANCH   2  15
TORSDOF 6
ENDMDL
MODEL 2
REMARK VINA RESULT:      -7.5      4.080      7.409
REMARK  6 active torsions:
REMARK  status: ('A' for Active; 'I' for Inactive)
REMARK    1  A    between atoms: C_2  and  C_3 
REMARK    2  A    between atoms: C_4  and  O_5 
REMARK    3  A    between atoms: C_6  and  C_7 
REMARK       I    between atoms: C_7  and  N_8 
REMARK    4  A    between atoms: N_8  and  C_9 
REMARK    5  A    between atoms: C_9  and  C_10 
REMARK    6  A    between atoms: C_10  and  C_11 
ROOT
HETATM    1  C   UNL     1      41.286 -15.798   0.555  1.00  0.00     0.254 C 
HETATM    2  N   UNL     1      41.833 -17.056   0.623  1.00  0.00    -0.356 N 
HETATM    3  O   UNL     1      40.781 -15.250   1.531  1.00  0.00    -0.268 OA
HETATM    4  H   UNL     1      42.261 -17.424  -0.223  1.00  0.00     0.162 HD
ENDROOT
BRANCH   1   5
HETATM    5  C   UNL     1      41.337 -15.101  -0.775  1.00  0.00     0.065 A 
HETATM    6  C   UNL     1      41.754 -13.769  -0.969  1.00  0.00     0.087 A 
HETATM    7  C   UNL     1      41.787 -13.203  -2.260  1.00  0.00    -0.024 A 
HETATM    8  C   UNL     1      41.357 -13.981  -3.347  1.00  0.00     0.010 A 
HETATM    9  C   UNL     1      40.927 -15.294  -3.164  1.00  0.00     0.002 A 
HETATM   10  C   UNL     1      40.923 -15.850  -1.887  1.00  0.00     0.020 A 
BRANCH   6  11
HETATM   11  O   UNL     1      42.136 -13.021   0.119  1.00  0.00    -0.359 OA
HETATM   12  H   UNL     1      42.588 -12.215  -0.184  1.00  0.00     0.218 HD
ENDBRANCH   6  11
BRANCH   7  13
HETATM   13  C   UNL     1      42.261 -11.795  -2.539  1.00  0.00     0.037 C 
HETATM   14  C   UNL     1      42.294 -11.486  -4.029  1.00  0.00     0.010 C 
ENDBRANCH   7  13
ENDBRANCH   1   5
BRANCH   2  15
HETATM   15  C   UNL     1      41.888 -17.817   1.854  1.00  0.00     0.136 C 
BRANCH  15  16
HETATM   16  C   UNL     1      43.325 -17.953   2.442  1.00  0.00    -0.004 C 
HETATM   17  C   UNL     1      44.315 -17.370   1.411  1.00  0.00     0.021 C 
HETATM   18  C   UNL     1      43.390 -17.074   3.715  1.00  0.00     0.021 C 
BRANCH  16  19
HETATM   19  C   UNL     1      43.739 -19.414   2.710  1.00  0.00    -0.046 A 
HETATM   20  C   UNL     1      43.522 -20.423   1.759  1.00  0.00     0.027 A 
HETATM   21  C   UNL     1      43.914 -21.727   2.037  1.00  0.00     0.116 A 
HETATM   22  N   UNL     1      44.516 -22.102   3.182  1.00  0.00    -0.273 NA
HETATM   23  C   UNL     1      44.747 -21.125   4.080  1.00  0.00     0.116 A 
HETATM   24  C   UNL     1      44.388 -19.796   3.893  1.00  0.00     0.027 A 
ENDBRANCH  16  19
ENDBRANCH  15  16
ENDBRANCH   2  15
TORSDOF 6
ENDMDL
MODEL 3
REMARK VINA RESULT:      -7.5      4.530      8.341
REMARK  6 active torsions:
REMARK  status: ('A' for Active; 'I' for Inactive)
REMARK    1  A    between atoms: C_2  and  C_3 
REMARK    2  A    between atoms: C_4  and  O_5 
REMARK    3  A    between atoms: C_6  and  C_7 
REMARK       I    between atoms: C_7  and  N_8 
REMARK    4  A    between atoms: N_8  and  C_9 
REMARK    5  A    between atoms: C_9  and  C_10 
REMARK    6  A    between atoms: C_10  and  C_11 
ROOT
HETATM    1  C   UNL     1      45.012 -13.304   7.811  1.00  0.00     0.254 C 
HETATM    2  N   UNL     1      44.152 -14.355   7.613  1.00  0.00    -0.356 N 
HETATM    3  O   UNL     1      46.065 -13.193   7.190  1.00  0.00    -0.268 OA
HETATM    4  H   UNL     1      43.285 -14.355   8.144  1.00  0.00     0.162 HD
ENDROOT
BRANCH   1   5
HETATM    5  C   UNL     1      44.608 -12.272   8.826  1.00  0.00     0.065 A 
HETATM    6  C   UNL     1      43.412 -11.527   8.783  1.00  0.00     0.087 A 
HETATM    7  C   UNL     1      43.107 -10.590   9.791  1.00  0.00    -0.024 A 
HETATM    8  C   UNL     1      44.039 -10.385  10.823  1.00  0.00     0.010 A 
HETATM    9  C   UNL     1      45.232 -11.104  10.866  1.00  0.00     0.002 A 
HETATM   10  C   UNL     1      45.510 -12.044   9.877  1.00  0.00     0.020 A 
BRANCH   6  11
HETATM   11  O   UNL     1      42.536 -11.725   7.743  1.00  0.00    -0.359 OA
HETATM   12  H   UNL     1      41.676 -11.331   7.963  1.00  0.00     0.218 HD
ENDBRANCH   6  11
BRANCH   7  13
HETATM   13  C   UNL     1      41.825  -9.791   9.824  1.00  0.00     0.037 C 
HETATM   14  C   UNL     1      40.708 -10.529  10.546  1.00  0.00     0.010 C 
ENDBRANCH   7  13
ENDBRANCH   1   5
BRANCH   2  15
HETATM   15  C   UNL     1      44.402 -15.393   6.634  1.00  0.00     0.136 C 
BRANCH  15  16
HETATM   16  C   UNL     1      43.351 -16.543   6.660  1.00  0.00    -0.004 C 
HETATM   17  C   UNL     1      43.327 -17.131   8.087  1.00  0.00     0.021 C 
HETATM   18  C   UNL     1      41.965 -15.910   6.382  1.00  0.00     0.021 C 
BRANCH  16  19
HETATM   19  C   UNL     1      43.681 -17.694   5.687  1.00  0.00    -0.046 A 
HETATM   20  C   UNL     1      44.621 -18.683   6.014  1.00  0.00     0.027 A 
HETATM   21  C   UNL     1      44.886 -19.706   5.113  1.00  0.00     0.116 A 
HETATM   22  N   UNL     1      44.280 -19.828   3.916  1.00  0.00    -0.273 NA
HETATM   23  C   UNL     1      43.358 -18.892   3.618  1.00  0.00     0.116 A 
HETATM   24  C   UNL     1      43.028 -17.832   4.453  1.00  0.00     0.027 A 
ENDBRANCH  16  19
ENDBRANCH  15  16
ENDBRANCH   2  15
TORSDOF 6
ENDMDL
MODEL 4
REMARK VINA RESULT:      -7.4      3.106      6.933
REMARK  6 active torsions:
REMARK  status: ('A' for Active; 'I' for Inactive)
REMARK    1  A    between atoms: C_2  and  C_3 
REMARK    2  A    between atoms: C_4  and  O_5 
REMARK    3  A    between atoms: C_6  and  C_7 
REMARK       I    between atoms: C_7  and  N_8 
REMARK    4  A    between atoms: N_8  and  C_9 
REMARK    5  A    between atoms: C_9  and  C_10 
REMARK    6  A    between atoms: C_10  and  C_11 
ROOT
HETATM    1  C   UNL     1      40.880 -16.152   2.815  1.00  0.00     0.254 C 
HETATM    2  N   UNL     1      41.467 -17.376   2.612  1.00  0.00    -0.356 N 
HETATM    3  O   UNL     1      40.779 -15.652   3.932  1.00  0.00    -0.268 OA
HETATM    4  H   UNL     1      41.540 -17.704   1.651  1.00  0.00     0.162 HD
ENDROOT
BRANCH   1   5
HETATM    5  C   UNL     1      40.365 -15.430   1.603  1.00  0.00     0.065 A 
HETATM    6  C   UNL     1      41.060 -15.313   0.381  1.00  0.00     0.087 A 
HETATM    7  C   UNL     1      40.489 -14.631  -0.712  1.00  0.00    -0.024 A 
HETATM    8  C   UNL     1      39.228 -14.035  -0.549  1.00  0.00     0.010 A 
HETATM    9  C   UNL     1      38.540 -14.129   0.659  1.00  0.00     0.002 A 
HETATM   10  C   UNL     1      39.103 -14.827   1.724  1.00  0.00     0.020 A 
BRANCH   6  11
HETATM   11  O   UNL     1      42.307 -15.878   0.263  1.00  0.00    -0.359 OA
HETATM   12  H   UNL     1      42.252 -16.671  -0.295  1.00  0.00     0.218 HD
ENDBRANCH   6  11
BRANCH   7  13
HETATM   13  C   UNL     1      41.164 -14.505  -2.059  1.00  0.00     0.037 C 
HETATM   14  C   UNL     1      42.029 -13.257  -2.151  1.00  0.00     0.010 C 
ENDBRANCH   7  13
ENDBRANCH   1   5
BRANCH   2  15
HETATM   15  C   UNL     1      42.042 -18.154   3.690  1.00  0.00     0.136 C 
BRANCH  15  16
HETATM   16  C   UNL     1      43.569 -18.419   3.524  1.00  0.00    -0.004 C 
HETATM   17  C   UNL     1      44.070 -17.574   2.333  1.00  0.00     0.021 C 
HETATM   18  C   UNL     1      44.270 -17.902   4.804  1.00  0.00     0.021 C 
BRANCH  16  19
HETATM   19  C   UNL     1      43.903 -19.894   3.221  1.00  0.00    -0.046 A 
HETATM   20  C   UNL     1      43.649 -20.459   1.961  1.00  0.00     0.027 A 
HETATM   21  C   UNL     1      43.969 -21.790   1.727  1.00  0.00     0.116 A 
HETATM   22  N   UNL     1      44.534 -22.599   2.643  1.00  0.00    -0.273 NA
HETATM   23  C   UNL     1      44.801 -22.046   3.842  1.00  0.00     0.116 A 
HETATM   24  C   UNL     1      44.514 -20.726   4.170  1.00  0.00     0.027 A 
ENDBRANCH  16  19
ENDBRANCH  15  16
ENDBRANCH   2  15
TORSDOF 6
ENDMDL
MODEL 5
REMARK VINA RESULT:      -7.2      1.733      2.336
REMARK  6 active torsions:
REMARK  status: ('A' for Active; 'I' for Inactive)
REMARK    1  A    between atoms: C_2  and  C_3 
REMARK    2  A    between atoms: C_4  and  O_5 
REMARK    3  A    between atoms: C_6  and  C_7 
REMARK       I    between atoms: C_7  and  N_8 
REMARK    4  A    between atoms: N_8  and  C_9 
REMARK    5  A    between atoms: C_9  and  C_10 
REMARK    6  A    between atoms: C_10  and  C_11 
ROOT
HETATM    1  C   UNL     1      43.406 -17.866   1.794  1.00  0.00     0.254 C 
HETATM    2  N   UNL     1      42.084 -17.499   1.781  1.00  0.00    -0.356 N 
HETATM    3  O   UNL     1      44.235 -17.357   1.046  1.00  0.00    -0.268 OA
HETATM    4  H   UNL     1      41.468 -17.947   2.456  1.00  0.00     0.162 HD
ENDROOT
BRANCH   1   5
HETATM    5  C   UNL     1      43.811 -18.926   2.778  1.00  0.00     0.065 A 
HETATM    6  C   UNL     1      43.856 -18.751   4.177  1.00  0.00     0.087 A 
HETATM    7  C   UNL     1      44.232 -19.811   5.027  1.00  0.00    -0.024 A 
HETATM    8  C   UNL     1      44.599 -21.038   4.450  1.00  0.00     0.010 A 
HETATM    9  C   UNL     1      44.575 -21.217   3.068  1.00  0.00     0.002 A 
HETATM   10  C   UNL     1      44.178 -20.170   2.240  1.00  0.00     0.020 A 
BRANCH   6  11
HETATM   11  O   UNL     1      43.524 -17.528   4.709  1.00  0.00    -0.359 OA
HETATM   12  H   UNL     1      42.630 -17.571   5.087  1.00  0.00     0.218 HD
ENDBRANCH   6  11
BRANCH   7  13
HETATM   13  C   UNL     1      44.261 -19.698   6.533  1.00  0.00     0.037 C 
HETATM   14  C   UNL     1      43.609 -20.895   7.210  1.00  0.00     0.010 C 
ENDBRANCH   7  13
ENDBRANCH   1   5
BRANCH   2  15
HETATM   15  C   UNL     1      41.572 -16.459   0.912  1.00  0.00     0.136 C 
BRANCH  15  16
HETATM   16  C   UNL     1      40.907 -15.275   1.677  1.00  0.00    -0.004 C 
HETATM   17  C   UNL     1      40.815 -14.077   0.708  1.00  0.00     0.021 C 
HETATM   18  C   UNL     1      39.465 -15.708   2.037  1.00  0.00     0.021 C 
BRANCH  16  19
HETATM   19  C   UNL     1      41.713 -14.817   2.910  1.00  0.00    -0.046 A 
HETATM   20  C   UNL     1      42.995 -14.261   2.782  1.00  0.00     0.027 A 
HETATM   21  C   UNL     1      43.686 -13.856   3.917  1.00  0.00     0.116 A 
HETATM   22  N   UNL     1      43.195 -13.949   5.168  1.00  0.00    -0.273 NA
HETATM   23  C   UNL     1      41.953 -14.458   5.284  1.00  0.00     0.116 A 
HETATM   24  C   UNL     1      41.188 -14.893   4.209  1.00  0.00     0.027 A 
ENDBRANCH  16  19
ENDBRANCH  15  16
ENDBRANCH   2  15
TORSDOF 6
ENDMDL
MODEL 6
REMARK VINA RESULT:      -7.0      4.011      7.647
REMARK  6 active torsions:
REMARK  status: ('A' for Active; 'I' for Inactive)
REMARK    1  A    between atoms: C_2  and  C_3 
REMARK    2  A    between atoms: C_4  and  O_5 
REMARK    3  A    between atoms: C_6  and  C_7 
REMARK       I    between atoms: C_7  and  N_8 
REMARK    4  A    between atoms: N_8  and  C_9 
REMARK    5  A    between atoms: C_9  and  C_10 
REMARK    6  A    between atoms: C_10  and  C_11 
ROOT
HETATM    1  C   UNL     1      40.644 -15.822   1.165  1.00  0.00     0.254 C 
HETATM    2  N   UNL     1      41.579 -16.799   0.929  1.00  0.00    -0.356 N 
HETATM    3  O   UNL     1      39.907 -15.845   2.147  1.00  0.00    -0.268 OA
HETATM    4  H   UNL     1      42.173 -16.687   0.110  1.00  0.00     0.162 HD
ENDROOT
BRANCH   1   5
HETATM    5  C   UNL     1      40.560 -14.701   0.170  1.00  0.00     0.065 A 
HETATM    6  C   UNL     1      39.364 -14.071  -0.233  1.00  0.00     0.087 A 
HETATM    7  C   UNL     1      39.383 -13.011  -1.162  1.00  0.00    -0.024 A 
HETATM    8  C   UNL     1      40.615 -12.619  -1.711  1.00  0.00     0.010 A 
HETATM    9  C   UNL     1      41.801 -13.246  -1.333  1.00  0.00     0.002 A 
HETATM   10  C   UNL     1      41.772 -14.275  -0.395  1.00  0.00     0.020 A 
BRANCH   6  11
HETATM   11  O   UNL     1      38.170 -14.499   0.296  1.00  0.00    -0.359 OA
HETATM   12  H   UNL     1      37.513 -13.787   0.232  1.00  0.00     0.218 HD
ENDBRANCH   6  11
BRANCH   7  13
HETATM   13  C   UNL     1      38.143 -12.269  -1.603  1.00  0.00     0.037 C 
HETATM   14  C   UNL     1      37.640 -12.748  -2.958  1.00  0.00     0.010 C 
ENDBRANCH   7  13
ENDBRANCH   1   5
BRANCH   2  15
HETATM   15  C   UNL     1      41.793 -17.910   1.834  1.00  0.00     0.136 C 
BRANCH  15  16
HETATM   16  C   UNL     1      43.246 -17.992   2.392  1.00  0.00    -0.004 C 
HETATM   17  C   UNL     1      44.196 -17.404   1.327  1.00  0.00     0.021 C 
HETATM   18  C   UNL     1      43.312 -17.082   3.644  1.00  0.00     0.021 C 
BRANCH  16  19
HETATM   19  C   UNL     1      43.707 -19.434   2.684  1.00  0.00    -0.046 A 
HETATM   20  C   UNL     1      43.512 -20.468   1.754  1.00  0.00     0.027 A 
HETATM   21  C   UNL     1      43.947 -21.753   2.052  1.00  0.00     0.116 A 
HETATM   22  N   UNL     1      44.572 -22.087   3.197  1.00  0.00    -0.273 NA
HETATM   23  C   UNL     1      44.782 -21.086   4.075  1.00  0.00     0.116 A 
HETATM   24  C   UNL     1      44.380 -19.773   3.867  1.00  0.00     0.027 A 
ENDBRANCH  16  19
ENDBRANCH  15  16
ENDBRANCH   2  15
TORSDOF 6
ENDMDL
MODEL 7
REMARK VINA RESULT:      -7.0      2.111      4.156
REMARK  6 active torsions:
REMARK  status: ('A' for Active; 'I' for Inactive)
REMARK    1  A    between atoms: C_2  and  C_3 
REMARK    2  A    between atoms: C_4  and  O_5 
REMARK    3  A    between atoms: C_6  and  C_7 
REMARK       I    between atoms: C_7  and  N_8 
REMARK    4  A    between atoms: N_8  and  C_9 
REMARK    5  A    between atoms: C_9  and  C_10 
REMARK    6  A    between atoms: C_10  and  C_11 
ROOT
HETATM    1  C   UNL     1      43.335 -16.448   3.557  1.00  0.00     0.254 C 
HETATM    2  N   UNL     1      42.970 -15.702   4.651  1.00  0.00    -0.356 N 
HETATM    3  O   UNL     1      43.285 -16.001   2.415  1.00  0.00    -0.268 OA
HETATM    4  H   UNL     1      43.072 -16.135   5.565  1.00  0.00     0.162 HD
ENDROOT
BRANCH   1   5
HETATM    5  C   UNL     1      43.812 -17.849   3.813  1.00  0.00     0.065 A 
HETATM    6  C   UNL     1      43.987 -18.833   2.819  1.00  0.00     0.087 A 
HETATM    7  C   UNL     1      44.459 -20.119   3.151  1.00  0.00    -0.024 A 
HETATM    8  C   UNL     1      44.715 -20.415   4.500  1.00  0.00     0.010 A 
HETATM    9  C   UNL     1      44.529 -19.455   5.493  1.00  0.00     0.002 A 
HETATM   10  C   UNL     1      44.087 -18.180   5.149  1.00  0.00     0.020 A 
BRANCH   6  11
HETATM   11  O   UNL     1      43.696 -18.524   1.512  1.00  0.00    -0.359 OA
HETATM   12  H   UNL     1      44.491 -18.175   1.076  1.00  0.00     0.218 HD
ENDBRANCH   6  11
BRANCH   7  13
HETATM   13  C   UNL     1      44.705 -21.204   2.128  1.00  0.00     0.037 C 
HETATM   14  C   UNL     1      43.414 -21.876   1.683  1.00  0.00     0.010 C 
ENDBRANCH   7  13
ENDBRANCH   1   5
BRANCH   2  15
HETATM   15  C   UNL     1      42.535 -14.324   4.545  1.00  0.00     0.136 C 
BRANCH  15  16
HETATM   16  C   UNL     1      41.033 -14.114   4.906  1.00  0.00    -0.004 C 
HETATM   17  C   UNL     1      40.570 -15.332   5.733  1.00  0.00     0.021 C 
HETATM   18  C   UNL     1      40.945 -12.861   5.812  1.00  0.00     0.021 C 
BRANCH  16  19
HETATM   19  C   UNL     1      40.117 -14.015   3.669  1.00  0.00    -0.046 A 
HETATM   20  C   UNL     1      39.547 -12.794   3.275  1.00  0.00     0.027 A 
HETATM   21  C   UNL     1      38.732 -12.746   2.151  1.00  0.00     0.116 A 
HETATM   22  N   UNL     1      38.450 -13.815   1.382  1.00  0.00    -0.273 NA
HETATM   23  C   UNL     1      39.021 -14.979   1.748  1.00  0.00     0.116 A 
HETATM   24  C   UNL     1      39.846 -15.126   2.856  1.00  0.00     0.027 A 
ENDBRANCH  16  19
ENDBRANCH  15  16
ENDBRANCH   2  15
TORSDOF 6
ENDMDL
MODEL 8
REMARK VINA RESULT:      -7.0      2.183      3.337
REMARK  6 active torsions:
REMARK  status: ('A' for Active; 'I' for Inactive)
REMARK    1  A    between atoms: C_2  and  C_3 
REMARK    2  A    between atoms: C_4  and  O_5 
REMARK    3  A    between atoms: C_6  and  C_7 
REMARK       I    between atoms: C_7  and  N_8 
REMARK    4  A    between atoms: N_8  and  C_9 
REMARK    5  A    between atoms: C_9  and  C_10 
REMARK    6  A    between atoms: C_10  and  C_11 
ROOT
HETATM    1  C   UNL     1      43.780 -17.954   2.221  1.00  0.00     0.254 C 
HETATM    2  N   UNL     1      42.828 -17.277   2.941  1.00  0.00    -0.356 N 
HETATM    3  O   UNL     1      44.436 -17.416   1.334  1.00  0.00    -0.268 OA
HETATM    4  H   UNL     1      42.352 -17.787   3.681  1.00  0.00     0.162 HD
ENDROOT
BRANCH   1   5
HETATM    5  C   UNL     1      43.999 -19.399   2.567  1.00  0.00     0.065 A 
HETATM    6  C   UNL     1      44.444 -19.867   3.821  1.00  0.00     0.087 A 
HETATM    7  C   UNL     1      44.605 -21.247   4.062  1.00  0.00    -0.024 A 
HETATM    8  C   UNL     1      44.350 -22.147   3.014  1.00  0.00     0.010 A 
HETATM    9  C   UNL     1      43.926 -21.694   1.766  1.00  0.00     0.002 A 
HETATM   10  C   UNL     1      43.747 -20.330   1.548  1.00  0.00     0.020 A 
BRANCH   6  11
HETATM   11  O   UNL     1      44.718 -18.960   4.816  1.00  0.00    -0.359 OA
HETATM   12  H   UNL     1      44.050 -19.036   5.518  1.00  0.00     0.218 HD
ENDBRANCH   6  11
BRANCH   7  13
HETATM   13  C   UNL     1      45.038 -21.813   5.394  1.00  0.00     0.037 C 
HETATM   14  C   UNL     1      43.989 -21.601   6.476  1.00  0.00     0.010 C 
ENDBRANCH   7  13
ENDBRANCH   1   5
BRANCH   2  15
HETATM   15  C   UNL     1      42.549 -15.869   2.736  1.00  0.00     0.136 C 
BRANCH  15  16
HETATM   16  C   UNL     1      41.206 -15.600   1.993  1.00  0.00    -0.004 C 
HETATM   17  C   UNL     1      41.536 -15.300   0.515  1.00  0.00     0.021 C 
HETATM   18  C   UNL     1      40.380 -16.908   2.041  1.00  0.00     0.021 C 
BRANCH  16  19
HETATM   19  C   UNL     1      40.432 -14.389   2.552  1.00  0.00    -0.046 A 
HETATM   20  C   UNL     1      40.389 -14.120   3.929  1.00  0.00     0.027 A 
HETATM   21  C   UNL     1      39.685 -13.016   4.393  1.00  0.00     0.116 A 
HETATM   22  N   UNL     1      39.030 -12.152   3.593  1.00  0.00    -0.273 NA
HETATM   23  C   UNL     1      39.097 -12.399   2.270  1.00  0.00     0.116 A 
HETATM   24  C   UNL     1      39.773 -13.478   1.714  1.00  0.00     0.027 A 
ENDBRANCH  16  19
ENDBRANCH  15  16
ENDBRANCH   2  15
TORSDOF 6
ENDMDL
MODEL 9
REMARK VINA RESULT:      -7.0      1.920      2.777
REMARK  6 active torsions:
REMARK  status: ('A' for Active; 'I' for Inactive)
REMARK    1  A    between atoms: C_2  and  C_3 
REMARK    2  A    between atoms: C_4  and  O_5 
REMARK    3  A    between atoms: C_6  and  C_7 
REMARK       I    between atoms: C_7  and  N_8 
REMARK    4  A    between atoms: N_8  and  C_9 
REMARK    5  A    between atoms: C_9  and  C_10 
REMARK    6  A    between atoms: C_10  and  C_11 
ROOT
HETATM    1  C   UNL     1      43.455 -17.678   2.844  1.00  0.00     0.254 C 
HETATM    2  N   UNL     1      42.533 -17.218   3.752  1.00  0.00    -0.356 N 
HETATM    3  O   UNL     1      44.000 -16.936   2.032  1.00  0.00    -0.268 OA
HETATM    4  H   UNL     1      42.153 -17.892   4.413  1.00  0.00     0.162 HD
ENDROOT
BRANCH   1   5
HETATM    5  C   UNL     1      43.786 -19.142   2.887  1.00  0.00     0.065 A 
HETATM    6  C   UNL     1      44.366 -19.804   3.989  1.00  0.00     0.087 A 
HETATM    7  C   UNL     1      44.624 -21.189   3.946  1.00  0.00    -0.024 A 
HETATM    8  C   UNL     1      44.328 -21.892   2.767  1.00  0.00     0.010 A 
HETATM    9  C   UNL     1      43.771 -21.245   1.666  1.00  0.00     0.002 A 
HETATM   10  C   UNL     1      43.497 -19.881   1.729  1.00  0.00     0.020 A 
BRANCH   6  11
HETATM   11  O   UNL     1      44.675 -19.082   5.117  1.00  0.00    -0.359 OA
HETATM   12  H   UNL     1      44.447 -19.600   5.907  1.00  0.00     0.218 HD
ENDBRANCH   6  11
BRANCH   7  13
HETATM   13  C   UNL     1      45.206 -21.963   5.107  1.00  0.00     0.037 C 
HETATM   14  C   UNL     1      44.266 -21.993   6.303  1.00  0.00     0.010 C 
ENDBRANCH   7  13
ENDBRANCH   1   5
BRANCH   2  15
HETATM   15  C   UNL     1      42.159 -15.821   3.844  1.00  0.00     0.136 C 
BRANCH  15  16
HETATM   16  C   UNL     1      42.089 -15.289   5.308  1.00  0.00    -0.004 C 
HETATM   17  C   UNL     1      41.304 -16.318   6.149  1.00  0.00     0.021 C 
HETATM   18  C   UNL     1      43.539 -15.236   5.850  1.00  0.00     0.021 C 
BRANCH  16  19
HETATM   19  C   UNL     1      41.362 -13.934   5.430  1.00  0.00    -0.046 A 
HETATM   20  C   UNL     1      42.005 -12.727   5.114  1.00  0.00     0.027 A 
HETATM   21  C   UNL     1      41.313 -11.528   5.231  1.00  0.00     0.116 A 
HETATM   22  N   UNL     1      40.029 -11.438   5.626  1.00  0.00    -0.273 NA
HETATM   23  C   UNL     1      39.408 -12.601   5.902  1.00  0.00     0.116 A 
HETATM   24  C   UNL     1      40.017 -13.847   5.817  1.00  0.00     0.027 A 
ENDBRANCH  16  19
ENDBRANCH  15  16
ENDBRANCH   2  15
TORSDOF 6
ENDMDL
MODEL 10
REMARK VINA RESULT:      -6.9      3.668      7.098
REMARK  6 active torsions:
REMARK  status: ('A' for Active; 'I' for Inactive)
REMARK    1  A    between atoms: C_2  and  C_3 
REMARK    2  A    between atoms: C_4  and  O_5 
REMARK    3  A    between atoms: C_6  and  C_7 
REMARK       I    between atoms: C_7  and  N_8 
REMARK    4  A    between atoms: N_8  and  C_9 
REMARK    5  A    between atoms: C_9  and  C_10 
REMARK    6  A    between atoms: C_10  and  C_11 
ROOT
HETATM    1  C   UNL     1      41.432 -14.970   1.590  1.00  0.00     0.254 C 
HETATM    2  N   UNL     1      41.312 -16.162   2.259  1.00  0.00    -0.356 N 
HETATM    3  O   UNL     1      42.420 -14.251   1.705  1.00  0.00    -0.268 OA
HETATM    4  H   UNL     1      40.476 -16.714   2.083  1.00  0.00     0.162 HD
ENDROOT
BRANCH   1   5
HETATM    5  C   UNL     1      40.296 -14.574   0.690  1.00  0.00     0.065 A 
HETATM    6  C   UNL     1      40.407 -14.357  -0.698  1.00  0.00     0.087 A 
HETATM    7  C   UNL     1      39.279 -14.004  -1.467  1.00  0.00    -0.024 A 
HETATM    8  C   UNL     1      38.047 -13.835  -0.816  1.00  0.00     0.010 A 
HETATM    9  C   UNL     1      37.929 -14.030   0.559  1.00  0.00     0.002 A 
HETATM   10  C   UNL     1      39.045 -14.402   1.304  1.00  0.00     0.020 A 
BRANCH   6  11
HETATM   11  O   UNL     1      41.634 -14.497  -1.302  1.00  0.00    -0.359 OA
HETATM   12  H   UNL     1      42.325 -14.145  -0.717  1.00  0.00     0.218 HD
ENDBRANCH   6  11
BRANCH   7  13
HETATM   13  C   UNL     1      39.325 -13.798  -2.964  1.00  0.00     0.037 C 
HETATM   14  C   UNL     1      39.110 -15.096  -3.728  1.00  0.00     0.010 C 
ENDBRANCH   7  13
ENDBRANCH   1   5
BRANCH   2  15
HETATM   15  C   UNL     1      42.355 -16.680   3.122  1.00  0.00     0.136 C 
BRANCH  15  16
HETATM   16  C   UNL     1      43.126 -17.890   2.514  1.00  0.00    -0.004 C 
HETATM   17  C   UNL     1      42.152 -18.661   1.598  1.00  0.00     0.021 C 
HETATM   18  C   UNL     1      44.261 -17.318   1.629  1.00  0.00     0.021 C 
BRANCH  16  19
HETATM   19  C   UNL     1      43.647 -18.879   3.577  1.00  0.00    -0.046 A 
HETATM   20  C   UNL     1      44.404 -20.006   3.221  1.00  0.00     0.027 A 
HETATM   21  C   UNL     1      44.859 -20.869   4.210  1.00  0.00     0.116 A 
HETATM   22  N   UNL     1      44.630 -20.692   5.525  1.00  0.00    -0.273 NA
HETATM   23  C   UNL     1      43.927 -19.594   5.864  1.00  0.00     0.116 A 
HETATM   24  C   UNL     1      43.428 -18.677   4.948  1.00  0.00     0.027 A 
ENDBRANCH  16  19
ENDBRANCH  15  16
ENDBRANCH   2  15
TORSDOF 6
ENDMDL
