MODEL 1
REMARK VINA RESULT:      -6.5      0.000      0.000
REMARK  3 active torsions:
REMARK  status: ('A' for Active; 'I' for Inactive)
REMARK    1  A    between atoms: C_8  and  C_9 
REMARK    2  A    between atoms: C_10  and  O_11 
REMARK    3  A    between atoms: C_24  and  N_25 
ROOT
HETATM    1  C   UNL     1      41.841 -16.367   0.593  1.00  0.00     0.073 C 
HETATM    2  C   UNL     1      40.787 -15.602   1.304  1.00  0.00     0.062 A 
HETATM    3  N   UNL     1      40.690 -15.680   2.642  1.00  0.00    -0.177 NA
HETATM    4  N   UNL     1      39.634 -14.901   2.946  1.00  0.00    -0.256 N 
HETATM    5  H   UNL     1      39.360 -14.802   3.917  1.00  0.00     0.191 HD
HETATM    6  C   UNL     1      39.056 -14.350   1.849  1.00  0.00     0.175 A 
HETATM    7  C   UNL     1      39.790 -14.755   0.763  1.00  0.00     0.034 A 
HETATM    8  C   UNL     1      39.372 -14.337  -0.606  1.00  0.00     0.108 A 
HETATM    9  C   UNL     1      38.182 -13.379  -0.532  1.00  0.00     0.067 A 
HETATM   10  C   UNL     1      37.696 -12.786  -1.844  1.00  0.00     0.020 C 
HETATM   11  N   UNL     1      37.293 -12.295  -2.934  1.00  0.00    -0.096 N 
HETATM   12  C   UNL     1      37.555 -13.054   0.631  1.00  0.00     0.139 A 
HETATM   13  O   UNL     1      37.983 -13.567   1.871  1.00  0.00    -0.279 OA
ENDROOT
BRANCH   8  14
HETATM   14  C   UNL     1      40.608 -13.808  -1.341  1.00  0.00     0.000 A 
HETATM   15  C   UNL     1      41.034 -14.522  -2.496  1.00  0.00     0.076 A 
HETATM   16  C   UNL     1      42.113 -14.066  -3.251  1.00  0.00     0.038 A 
HETATM   17  C   UNL     1      42.786 -12.906  -2.884  1.00  0.00     0.015 A 
HETATM   18  C   UNL     1      42.409 -12.181  -1.752  1.00  0.00    -0.025 A 
HETATM   19  C   UNL     1      41.323 -12.618  -0.950  1.00  0.00    -0.016 A 
HETATM   20  C   UNL     1      43.123 -11.013  -1.433  1.00  0.00     0.012 A 
HETATM   21  C   UNL     1      41.038 -11.820   0.190  1.00  0.00     0.013 A 
HETATM   22  C   UNL     1      41.754 -10.660   0.499  1.00  0.00     0.001 A 
HETATM   23  C   UNL     1      42.796 -10.252  -0.316  1.00  0.00     0.001 A 
BRANCH  15  24
HETATM   24  O   UNL     1      40.326 -15.657  -2.806  1.00  0.00    -0.355 OA
HETATM   25  C   UNL     1      39.394 -15.593  -3.880  1.00  0.00     0.210 C 
ENDBRANCH  15  24
ENDBRANCH   8  14
BRANCH  12  26
HETATM   26  N   UNL     1      36.476 -12.209   0.750  1.00  0.00    -0.282 NA
HETATM   27  H   UNL     1      36.251 -11.909   1.695  1.00  0.00     0.126 HD
HETATM   28  H   UNL     1      36.516 -11.440   0.086  1.00  0.00     0.126 HD
ENDBRANCH  12  26
TORSDOF 3
ENDMDL
MODEL 2
REMARK VINA RESULT:      -6.5      3.075      5.241
REMARK  3 active torsions:
REMARK  status: ('A' for Active; 'I' for Inactive)
REMARK    1  A    between atoms: C_8  and  C_9 
REMARK    2  A    between atoms: C_10  and  O_11 
REMARK    3  A    between atoms: C_24  and  N_25 
ROOT
HETATM    1  C   UNL     1      41.576 -10.686  -2.881  1.00  0.00     0.073 C 
HETATM    2  C   UNL     1      41.683 -12.162  -2.989  1.00  0.00     0.062 A 
HETATM    3  N   UNL     1      42.876 -12.760  -2.828  1.00  0.00    -0.177 NA
HETATM    4  N   UNL     1      42.619 -14.070  -3.015  1.00  0.00    -0.256 N 
HETATM    5  H   UNL     1      43.382 -14.733  -2.943  1.00  0.00     0.191 HD
HETATM    6  C   UNL     1      41.317 -14.313  -3.303  1.00  0.00     0.175 A 
HETATM    7  C   UNL     1      40.665 -13.105  -3.269  1.00  0.00     0.034 A 
HETATM    8  C   UNL     1      39.210 -13.045  -3.585  1.00  0.00     0.108 A 
HETATM    9  C   UNL     1      38.650 -14.451  -3.800  1.00  0.00     0.067 A 
HETATM   10  C   UNL     1      37.153 -14.564  -4.040  1.00  0.00     0.020 C 
HETATM   11  N   UNL     1      35.912 -14.658  -4.239  1.00  0.00    -0.096 N 
HETATM   12  C   UNL     1      39.422 -15.572  -3.794  1.00  0.00     0.139 A 
HETATM   13  O   UNL     1      40.809 -15.514  -3.560  1.00  0.00    -0.279 OA
ENDROOT
BRANCH   8  14
HETATM   14  C   UNL     1      38.520 -12.212  -2.499  1.00  0.00     0.000 A 
HETATM   15  C   UNL     1      37.869 -11.016  -2.911  1.00  0.00     0.076 A 
HETATM   16  C   UNL     1      37.169 -10.239  -1.989  1.00  0.00     0.038 A 
HETATM   17  C   UNL     1      37.098 -10.625  -0.656  1.00  0.00     0.015 A 
HETATM   18  C   UNL     1      37.732 -11.785  -0.206  1.00  0.00    -0.025 A 
HETATM   19  C   UNL     1      38.465 -12.597  -1.110  1.00  0.00    -0.016 A 
HETATM   20  C   UNL     1      37.622 -12.128   1.153  1.00  0.00     0.012 A 
HETATM   21  C   UNL     1      39.089 -13.741  -0.546  1.00  0.00     0.013 A 
HETATM   22  C   UNL     1      38.974 -14.074   0.808  1.00  0.00     0.001 A 
HETATM   23  C   UNL     1      38.235 -13.269   1.658  1.00  0.00     0.001 A 
BRANCH  15  24
HETATM   24  O   UNL     1      37.973 -10.692  -4.241  1.00  0.00    -0.355 OA
HETATM   25  C   UNL     1      36.785 -10.688  -5.025  1.00  0.00     0.210 C 
ENDBRANCH  15  24
ENDBRANCH   8  14
BRANCH  12  26
HETATM   26  N   UNL     1      38.970 -16.856  -3.994  1.00  0.00    -0.282 NA
HETATM   27  H   UNL     1      39.583 -17.597  -3.662  1.00  0.00     0.126 HD
HETATM   28  H   UNL     1      38.005 -16.974  -3.698  1.00  0.00     0.126 HD
ENDBRANCH  12  26
TORSDOF 3
ENDMDL
MODEL 3
REMARK VINA RESULT:      -6.4      2.286      5.198
REMARK  3 active torsions:
REMARK  status: ('A' for Active; 'I' for Inactive)
REMARK    1  A    between atoms: C_8  and  C_9 
REMARK    2  A    between atoms: C_10  and  O_11 
REMARK    3  A    between atoms: C_24  and  N_25 
ROOT
HETATM    1  C   UNL     1      43.191 -11.169  -1.233  1.00  0.00     0.073 C 
HETATM    2  C   UNL     1      42.409 -12.059  -2.125  1.00  0.00     0.062 A 
HETATM    3  N   UNL     1      42.849 -12.316  -3.369  1.00  0.00    -0.177 NA
HETATM    4  N   UNL     1      41.904 -13.118  -3.898  1.00  0.00    -0.256 N 
HETATM    5  H   UNL     1      42.018 -13.449  -4.849  1.00  0.00     0.191 HD
HETATM    6  C   UNL     1      40.882 -13.360  -3.040  1.00  0.00     0.175 A 
HETATM    7  C   UNL     1      41.181 -12.715  -1.866  1.00  0.00     0.034 A 
HETATM    8  C   UNL     1      40.215 -12.766  -0.732  1.00  0.00     0.108 A 
HETATM    9  C   UNL     1      39.037 -13.679  -1.072  1.00  0.00     0.067 A 
HETATM   10  C   UNL     1      38.009 -13.910   0.023  1.00  0.00     0.020 C 
HETATM   11  N   UNL     1      37.156 -14.101   0.933  1.00  0.00    -0.096 N 
HETATM   12  C   UNL     1      38.874 -14.268  -2.289  1.00  0.00     0.139 A 
HETATM   13  O   UNL     1      39.811 -14.094  -3.326  1.00  0.00    -0.279 OA
ENDROOT
BRANCH   8  14
HETATM   14  C   UNL     1      40.992 -13.127   0.539  1.00  0.00     0.000 A 
HETATM   15  C   UNL     1      41.139 -12.110   1.523  1.00  0.00     0.076 A 
HETATM   16  C   UNL     1      41.780 -12.382   2.731  1.00  0.00     0.038 A 
HETATM   17  C   UNL     1      42.282 -13.652   2.988  1.00  0.00     0.015 A 
HETATM   18  C   UNL     1      42.169 -14.677   2.046  1.00  0.00    -0.025 A 
HETATM   19  C   UNL     1      41.535 -14.438   0.799  1.00  0.00    -0.016 A 
HETATM   20  C   UNL     1      42.692 -15.943   2.363  1.00  0.00     0.012 A 
HETATM   21  C   UNL     1      41.494 -15.541  -0.094  1.00  0.00     0.013 A 
HETATM   22  C   UNL     1      42.017 -16.797   0.231  1.00  0.00     0.001 A 
HETATM   23  C   UNL     1      42.613 -17.000   1.463  1.00  0.00     0.001 A 
BRANCH  15  24
HETATM   24  O   UNL     1      40.619 -10.878   1.210  1.00  0.00    -0.355 OA
HETATM   25  C   UNL     1      40.371  -9.965   2.273  1.00  0.00     0.210 C 
ENDBRANCH  15  24
ENDBRANCH   8  14
BRANCH  12  26
HETATM   26  N   UNL     1      37.829 -15.086  -2.649  1.00  0.00    -0.282 NA
HETATM   27  H   UNL     1      37.910 -16.058  -2.364  1.00  0.00     0.126 HD
HETATM   28  H   UNL     1      36.926 -14.677  -2.421  1.00  0.00     0.126 HD
ENDBRANCH  12  26
TORSDOF 3
ENDMDL
MODEL 4
REMARK VINA RESULT:      -6.4      3.878      6.367
REMARK  3 active torsions:
REMARK  status: ('A' for Active; 'I' for Inactive)
REMARK    1  A    between atoms: C_8  and  C_9 
REMARK    2  A    between atoms: C_10  and  O_11 
REMARK    3  A    between atoms: C_24  and  N_25 
ROOT
HETATM    1  C   UNL     1      39.753 -12.391   6.594  1.00  0.00     0.073 C 
HETATM    2  C   UNL     1      39.213 -12.174   5.229  1.00  0.00     0.062 A 
HETATM    3  N   UNL     1      38.551 -11.040   4.943  1.00  0.00    -0.177 NA
HETATM    4  N   UNL     1      38.184 -11.184   3.655  1.00  0.00    -0.256 N 
HETATM    5  H   UNL     1      37.661 -10.440   3.208  1.00  0.00     0.191 HD
HETATM    6  C   UNL     1      38.578 -12.369   3.127  1.00  0.00     0.175 A 
HETATM    7  C   UNL     1      39.275 -13.033   4.106  1.00  0.00     0.034 A 
HETATM    8  C   UNL     1      39.807 -14.399   3.833  1.00  0.00     0.108 A 
HETATM    9  C   UNL     1      39.554 -14.791   2.378  1.00  0.00     0.067 A 
HETATM   10  C   UNL     1      40.124 -16.123   1.917  1.00  0.00     0.020 C 
HETATM   11  N   UNL     1      40.597 -17.228   1.535  1.00  0.00    -0.096 N 
HETATM   12  C   UNL     1      38.849 -14.018   1.507  1.00  0.00     0.139 A 
HETATM   13  O   UNL     1      38.318 -12.771   1.887  1.00  0.00    -0.279 OA
ENDROOT
BRANCH   8  14
HETATM   14  C   UNL     1      41.270 -14.439   4.289  1.00  0.00     0.000 A 
HETATM   15  C   UNL     1      42.169 -13.521   3.678  1.00  0.00     0.076 A 
HETATM   16  C   UNL     1      43.500 -13.457   4.084  1.00  0.00     0.038 A 
HETATM   17  C   UNL     1      43.966 -14.292   5.094  1.00  0.00     0.015 A 
HETATM   18  C   UNL     1      43.122 -15.216   5.713  1.00  0.00    -0.025 A 
HETATM   19  C   UNL     1      41.762 -15.320   5.319  1.00  0.00    -0.016 A 
HETATM   20  C   UNL     1      43.648 -16.030   6.731  1.00  0.00     0.012 A 
HETATM   21  C   UNL     1      40.998 -16.306   5.997  1.00  0.00     0.013 A 
HETATM   22  C   UNL     1      41.530 -17.112   7.009  1.00  0.00     0.001 A 
HETATM   23  C   UNL     1      42.856 -16.971   7.380  1.00  0.00     0.001 A 
BRANCH  15  24
HETATM   24  O   UNL     1      41.646 -12.723   2.690  1.00  0.00    -0.355 OA
HETATM   25  C   UNL     1      42.275 -12.738   1.413  1.00  0.00     0.210 C 
ENDBRANCH  15  24
ENDBRANCH   8  14
BRANCH  12  26
HETATM   26  N   UNL     1      38.583 -14.331   0.193  1.00  0.00    -0.282 NA
HETATM   27  H   UNL     1      38.381 -13.543  -0.416  1.00  0.00     0.126 HD
HETATM   28  H   UNL     1      39.272 -14.970  -0.196  1.00  0.00     0.126 HD
ENDBRANCH  12  26
TORSDOF 3
ENDMDL
MODEL 5
REMARK VINA RESULT:      -6.3      2.337      4.509
REMARK  3 active torsions:
REMARK  status: ('A' for Active; 'I' for Inactive)
REMARK    1  A    between atoms: C_8  and  C_9 
REMARK    2  A    between atoms: C_10  and  O_11 
REMARK    3  A    between atoms: C_24  and  N_25 
ROOT
HETATM    1  C   UNL     1      42.508 -13.847   2.426  1.00  0.00     0.073 C 
HETATM    2  C   UNL     1      41.995 -14.758   1.373  1.00  0.00     0.062 A 
HETATM    3  N   UNL     1      41.765 -16.051   1.659  1.00  0.00    -0.177 NA
HETATM    4  N   UNL     1      41.342 -16.580   0.494  1.00  0.00    -0.256 N 
HETATM    5  H   UNL     1      41.103 -17.564   0.461  1.00  0.00     0.191 HD
HETATM    6  C   UNL     1      41.312 -15.673  -0.513  1.00  0.00     0.175 A 
HETATM    7  C   UNL     1      41.702 -14.469   0.018  1.00  0.00     0.034 A 
HETATM    8  C   UNL     1      41.806 -13.273  -0.866  1.00  0.00     0.108 A 
HETATM    9  C   UNL     1      41.323 -13.607  -2.278  1.00  0.00     0.067 A 
HETATM   10  C   UNL     1      41.279 -12.463  -3.277  1.00  0.00     0.020 C 
HETATM   11  N   UNL     1      41.242 -11.513  -4.105  1.00  0.00    -0.096 N 
HETATM   12  C   UNL     1      40.952 -14.859  -2.664  1.00  0.00     0.139 A 
HETATM   13  O   UNL     1      40.962 -15.944  -1.766  1.00  0.00    -0.279 OA
ENDROOT
BRANCH   8  14
HETATM   14  C   UNL     1      41.089 -12.107  -0.176  1.00  0.00     0.000 A 
HETATM   15  C   UNL     1      41.856 -10.939   0.093  1.00  0.00     0.076 A 
HETATM   16  C   UNL     1      41.259  -9.816   0.662  1.00  0.00     0.038 A 
HETATM   17  C   UNL     1      39.904  -9.824   0.973  1.00  0.00     0.015 A 
HETATM   18  C   UNL     1      39.116 -10.953   0.737  1.00  0.00    -0.025 A 
HETATM   19  C   UNL     1      39.689 -12.121   0.170  1.00  0.00    -0.016 A 
HETATM   20  C   UNL     1      37.751 -10.901   1.068  1.00  0.00     0.012 A 
HETATM   21  C   UNL     1      38.806 -13.218  -0.007  1.00  0.00     0.013 A 
HETATM   22  C   UNL     1      37.448 -13.157   0.325  1.00  0.00     0.001 A 
HETATM   23  C   UNL     1      36.919 -11.995   0.859  1.00  0.00     0.001 A 
BRANCH  15  24
HETATM   24  O   UNL     1      43.187 -10.993  -0.241  1.00  0.00    -0.355 OA
HETATM   25  C   UNL     1      43.665 -10.097  -1.239  1.00  0.00     0.210 C 
ENDBRANCH  15  24
ENDBRANCH   8  14
BRANCH  12  26
HETATM   26  N   UNL     1      40.523 -15.214  -3.922  1.00  0.00    -0.282 NA
HETATM   27  H   UNL     1      39.782 -15.908  -3.956  1.00  0.00     0.126 HD
HETATM   28  H   UNL     1      40.338 -14.403  -4.507  1.00  0.00     0.126 HD
ENDBRANCH  12  26
TORSDOF 3
ENDMDL
MODEL 6
REMARK VINA RESULT:      -6.2      4.455      6.779
REMARK  3 active torsions:
REMARK  status: ('A' for Active; 'I' for Inactive)
REMARK    1  A    between atoms: C_8  and  C_9 
REMARK    2  A    between atoms: C_10  and  O_11 
REMARK    3  A    between atoms: C_24  and  N_25 
ROOT
HETATM    1  C   UNL     1      41.931 -16.242   0.066  1.00  0.00     0.073 C 
HETATM    2  C   UNL     1      42.720 -17.059   1.021  1.00  0.00     0.062 A 
HETATM    3  N   UNL     1      43.801 -17.733   0.593  1.00  0.00    -0.177 NA
HETATM    4  N   UNL     1      44.249 -18.375   1.690  1.00  0.00    -0.256 N 
HETATM    5  H   UNL     1      45.073 -18.960   1.613  1.00  0.00     0.191 HD
HETATM    6  C   UNL     1      43.483 -18.141   2.785  1.00  0.00     0.175 A 
HETATM    7  C   UNL     1      42.494 -17.269   2.404  1.00  0.00     0.034 A 
HETATM    8  C   UNL     1      41.461 -16.850   3.393  1.00  0.00     0.108 A 
HETATM    9  C   UNL     1      41.778 -17.425   4.774  1.00  0.00     0.067 A 
HETATM   10  C   UNL     1      40.865 -17.009   5.916  1.00  0.00     0.020 C 
HETATM   11  N   UNL     1      40.108 -16.664   6.863  1.00  0.00    -0.096 N 
HETATM   12  C   UNL     1      42.812 -18.278   5.009  1.00  0.00     0.139 A 
HETATM   13  O   UNL     1      43.691 -18.676   3.983  1.00  0.00    -0.279 OA
ENDROOT
BRANCH   8  14
HETATM   14  C   UNL     1      41.324 -15.324   3.322  1.00  0.00     0.000 A 
HETATM   15  C   UNL     1      42.356 -14.550   3.922  1.00  0.00     0.076 A 
HETATM   16  C   UNL     1      42.332 -13.159   3.844  1.00  0.00     0.038 A 
HETATM   17  C   UNL     1      41.297 -12.511   3.178  1.00  0.00     0.015 A 
HETATM   18  C   UNL     1      40.258 -13.232   2.585  1.00  0.00    -0.025 A 
HETATM   19  C   UNL     1      40.240 -14.649   2.653  1.00  0.00    -0.016 A 
HETATM   20  C   UNL     1      39.242 -12.523   1.921  1.00  0.00     0.012 A 
HETATM   21  C   UNL     1      39.128 -15.282   2.037  1.00  0.00     0.013 A 
HETATM   22  C   UNL     1      38.121 -14.568   1.379  1.00  0.00     0.001 A 
HETATM   23  C   UNL     1      38.180 -13.187   1.317  1.00  0.00     0.001 A 
BRANCH  15  24
HETATM   24  O   UNL     1      43.351 -15.249   4.561  1.00  0.00    -0.355 OA
HETATM   25  C   UNL     1      43.865 -14.720   5.778  1.00  0.00     0.210 C 
ENDBRANCH  15  24
ENDBRANCH   8  14
BRANCH  12  26
HETATM   26  N   UNL     1      43.131 -18.832   6.227  1.00  0.00    -0.282 NA
HETATM   27  H   UNL     1      43.214 -18.179   7.001  1.00  0.00     0.126 HD
HETATM   28  H   UNL     1      42.553 -19.639   6.445  1.00  0.00     0.126 HD
ENDBRANCH  12  26
TORSDOF 3
ENDMDL
MODEL 7
REMARK VINA RESULT:      -6.1      3.037      4.865
REMARK  3 active torsions:
REMARK  status: ('A' for Active; 'I' for Inactive)
REMARK    1  A    between atoms: C_8  and  C_9 
REMARK    2  A    between atoms: C_10  and  O_11 
REMARK    3  A    between atoms: C_24  and  N_25 
ROOT
HETATM    1  C   UNL     1      40.841 -17.008   1.465  1.00  0.00     0.073 C 
HETATM    2  C   UNL     1      41.023 -16.708   2.906  1.00  0.00     0.062 A 
HETATM    3  N   UNL     1      41.669 -17.582   3.696  1.00  0.00    -0.177 NA
HETATM    4  N   UNL     1      41.629 -17.019   4.920  1.00  0.00    -0.256 N 
HETATM    5  H   UNL     1      42.060 -17.504   5.697  1.00  0.00     0.191 HD
HETATM    6  C   UNL     1      40.969 -15.834   4.930  1.00  0.00     0.175 A 
HETATM    7  C   UNL     1      40.582 -15.578   3.638  1.00  0.00     0.034 A 
HETATM    8  C   UNL     1      39.794 -14.350   3.335  1.00  0.00     0.108 A 
HETATM    9  C   UNL     1      39.643 -13.488   4.589  1.00  0.00     0.067 A 
HETATM   10  C   UNL     1      38.941 -12.150   4.421  1.00  0.00     0.020 C 
HETATM   11  N   UNL     1      38.360 -11.040   4.282  1.00  0.00    -0.096 N 
HETATM   12  C   UNL     1      40.093 -13.868   5.816  1.00  0.00     0.139 A 
HETATM   13  O   UNL     1      40.762 -15.091   6.012  1.00  0.00    -0.279 OA
ENDROOT
BRANCH   8  14
HETATM   14  C   UNL     1      40.434 -13.659   2.125  1.00  0.00     0.000 A 
HETATM   15  C   UNL     1      41.749 -13.142   2.291  1.00  0.00     0.076 A 
HETATM   16  C   UNL     1      42.418 -12.556   1.218  1.00  0.00     0.038 A 
HETATM   17  C   UNL     1      41.807 -12.470  -0.028  1.00  0.00     0.015 A 
HETATM   18  C   UNL     1      40.514 -12.955  -0.232  1.00  0.00    -0.025 A 
HETATM   19  C   UNL     1      39.794 -13.548   0.838  1.00  0.00    -0.016 A 
HETATM   20  C   UNL     1      39.949 -12.845  -1.515  1.00  0.00     0.012 A 
HETATM   21  C   UNL     1      38.479 -13.987   0.528  1.00  0.00     0.013 A 
HETATM   22  C   UNL     1      37.926 -13.873  -0.752  1.00  0.00     0.001 A 
HETATM   23  C   UNL     1      38.664 -13.306  -1.776  1.00  0.00     0.001 A 
BRANCH  15  24
HETATM   24  O   UNL     1      42.297 -13.260   3.545  1.00  0.00    -0.355 OA
HETATM   25  C   UNL     1      43.618 -13.779   3.652  1.00  0.00     0.210 C 
ENDBRANCH  15  24
ENDBRANCH   8  14
BRANCH  12  26
HETATM   26  N   UNL     1      39.971 -13.137   6.975  1.00  0.00    -0.282 NA
HETATM   27  H   UNL     1      39.182 -13.377   7.568  1.00  0.00     0.126 HD
HETATM   28  H   UNL     1      40.850 -13.076   7.484  1.00  0.00     0.126 HD
ENDBRANCH  12  26
TORSDOF 3
ENDMDL
MODEL 8
REMARK VINA RESULT:      -6.0      3.159      4.641
REMARK  3 active torsions:
REMARK  status: ('A' for Active; 'I' for Inactive)
REMARK    1  A    between atoms: C_8  and  C_9 
REMARK    2  A    between atoms: C_10  and  O_11 
REMARK    3  A    between atoms: C_24  and  N_25 
ROOT
HETATM    1  C   UNL     1      41.689 -14.829  -3.091  1.00  0.00     0.073 C 
HETATM    2  C   UNL     1      40.308 -15.271  -3.403  1.00  0.00     0.062 A 
HETATM    3  N   UNL     1      40.033 -16.582  -3.517  1.00  0.00    -0.177 NA
HETATM    4  N   UNL     1      38.723 -16.623  -3.827  1.00  0.00    -0.256 N 
HETATM    5  H   UNL     1      38.280 -17.523  -3.965  1.00  0.00     0.191 HD
HETATM    6  C   UNL     1      38.169 -15.389  -3.926  1.00  0.00     0.175 A 
HETATM    7  C   UNL     1      39.155 -14.481  -3.631  1.00  0.00     0.034 A 
HETATM    8  C   UNL     1      38.856 -13.022  -3.695  1.00  0.00     0.108 A 
HETATM    9  C   UNL     1      37.374 -12.792  -3.994  1.00  0.00     0.067 A 
HETATM   10  C   UNL     1      36.890 -11.352  -3.998  1.00  0.00     0.020 C 
HETATM   11  N   UNL     1      36.489 -10.156  -4.001  1.00  0.00    -0.096 N 
HETATM   12  C   UNL     1      36.499 -13.801  -4.258  1.00  0.00     0.139 A 
HETATM   13  O   UNL     1      36.902 -15.151  -4.248  1.00  0.00    -0.279 OA
ENDROOT
BRANCH   8  14
HETATM   14  C   UNL     1      39.385 -12.370  -2.413  1.00  0.00     0.000 A 
HETATM   15  C   UNL     1      40.349 -11.333  -2.560  1.00  0.00     0.076 A 
HETATM   16  C   UNL     1      40.831 -10.653  -1.443  1.00  0.00     0.038 A 
HETATM   17  C   UNL     1      40.374 -10.979  -0.171  1.00  0.00     0.015 A 
HETATM   18  C   UNL     1      39.438 -11.997   0.020  1.00  0.00    -0.025 A 
HETATM   19  C   UNL     1      38.931 -12.723  -1.090  1.00  0.00    -0.016 A 
HETATM   20  C   UNL     1      39.009 -12.280   1.328  1.00  0.00     0.012 A 
HETATM   21  C   UNL     1      38.002 -13.751  -0.783  1.00  0.00     0.013 A 
HETATM   22  C   UNL     1      37.581 -14.025   0.522  1.00  0.00     0.001 A 
HETATM   23  C   UNL     1      38.082 -13.285   1.579  1.00  0.00     0.001 A 
BRANCH  15  24
HETATM   24  O   UNL     1      40.756 -11.057  -3.842  1.00  0.00    -0.355 OA
HETATM   25  C   UNL     1      42.135 -11.223  -4.157  1.00  0.00     0.210 C 
ENDBRANCH  15  24
ENDBRANCH   8  14
BRANCH  12  26
HETATM   26  N   UNL     1      35.162 -13.648  -4.544  1.00  0.00    -0.282 NA
HETATM   27  H   UNL     1      34.518 -13.940  -3.815  1.00  0.00     0.126 HD
HETATM   28  H   UNL     1      34.953 -12.724  -4.915  1.00  0.00     0.126 HD
ENDBRANCH  12  26
TORSDOF 3
ENDMDL
MODEL 9
REMARK VINA RESULT:      -5.9      1.918      5.063
REMARK  3 active torsions:
REMARK  status: ('A' for Active; 'I' for Inactive)
REMARK    1  A    between atoms: C_8  and  C_9 
REMARK    2  A    between atoms: C_10  and  O_11 
REMARK    3  A    between atoms: C_24  and  N_25 
ROOT
HETATM    1  C   UNL     1      37.819 -12.351  -1.010  1.00  0.00     0.073 C 
HETATM    2  C   UNL     1      38.749 -13.475  -1.281  1.00  0.00     0.062 A 
HETATM    3  N   UNL     1      38.650 -14.164  -2.431  1.00  0.00    -0.177 NA
HETATM    4  N   UNL     1      39.606 -15.109  -2.337  1.00  0.00    -0.256 N 
HETATM    5  H   UNL     1      39.725 -15.764  -3.101  1.00  0.00     0.191 HD
HETATM    6  C   UNL     1      40.290 -15.048  -1.168  1.00  0.00     0.175 A 
HETATM    7  C   UNL     1      39.786 -13.984  -0.462  1.00  0.00     0.034 A 
HETATM    8  C   UNL     1      40.318 -13.683   0.897  1.00  0.00     0.108 A 
HETATM    9  C   UNL     1      41.482 -14.616   1.235  1.00  0.00     0.067 A 
HETATM   10  C   UNL     1      42.196 -14.372   2.554  1.00  0.00     0.020 C 
HETATM   11  N   UNL     1      42.788 -14.169   3.649  1.00  0.00    -0.096 N 
HETATM   12  C   UNL     1      41.884 -15.633   0.424  1.00  0.00     0.139 A 
HETATM   13  O   UNL     1      41.262 -15.883  -0.814  1.00  0.00    -0.279 OA
ENDROOT
BRANCH   8  14
HETATM   14  C   UNL     1      40.625 -12.183   0.968  1.00  0.00     0.000 A 
HETATM   15  C   UNL     1      39.949 -11.427   1.966  1.00  0.00     0.076 A 
HETATM   16  C   UNL     1      40.222 -10.070   2.131  1.00  0.00     0.038 A 
HETATM   17  C   UNL     1      41.159  -9.440   1.320  1.00  0.00     0.015 A 
HETATM   18  C   UNL     1      41.837 -10.141   0.321  1.00  0.00    -0.025 A 
HETATM   19  C   UNL     1      41.579 -11.521   0.113  1.00  0.00    -0.016 A 
HETATM   20  C   UNL     1      42.777  -9.451  -0.465  1.00  0.00     0.012 A 
HETATM   21  C   UNL     1      42.305 -12.132  -0.943  1.00  0.00     0.013 A 
HETATM   22  C   UNL     1      43.239 -11.438  -1.720  1.00  0.00     0.001 A 
HETATM   23  C   UNL     1      43.479 -10.096  -1.477  1.00  0.00     0.001 A 
BRANCH  15  24
HETATM   24  O   UNL     1      39.039 -12.109   2.736  1.00  0.00    -0.355 OA
HETATM   25  C   UNL     1      38.632 -11.524   3.968  1.00  0.00     0.210 C 
ENDBRANCH  15  24
ENDBRANCH   8  14
BRANCH  12  26
HETATM   26  N   UNL     1      42.915 -16.505   0.686  1.00  0.00    -0.282 NA
HETATM   27  H   UNL     1      43.144 -17.156  -0.060  1.00  0.00     0.126 HD
HETATM   28  H   UNL     1      43.731 -16.032   1.067  1.00  0.00     0.126 HD
ENDBRANCH  12  26
TORSDOF 3
ENDMDL
MODEL 10
REMARK VINA RESULT:      -5.9      4.457      7.185
REMARK  3 active torsions:
REMARK  status: ('A' for Active; 'I' for Inactive)
REMARK    1  A    between atoms: C_8  and  C_9 
REMARK    2  A    between atoms: C_10  and  O_11 
REMARK    3  A    between atoms: C_24  and  N_25 
ROOT
HETATM    1  C   UNL     1      40.322 -17.879   6.375  1.00  0.00     0.073 C 
HETATM    2  C   UNL     1      41.591 -17.186   6.708  1.00  0.00     0.062 A 
HETATM    3  N   UNL     1      42.264 -17.519   7.823  1.00  0.00    -0.177 NA
HETATM    4  N   UNL     1      43.329 -16.693   7.829  1.00  0.00    -0.256 N 
HETATM    5  H   UNL     1      43.995 -16.758   8.590  1.00  0.00     0.191 HD
HETATM    6  C   UNL     1      43.342 -15.847   6.769  1.00  0.00     0.175 A 
HETATM    7  C   UNL     1      42.247 -16.150   5.999  1.00  0.00     0.034 A 
HETATM    8  C   UNL     1      41.968 -15.354   4.770  1.00  0.00     0.108 A 
HETATM    9  C   UNL     1      43.089 -14.346   4.520  1.00  0.00     0.067 A 
HETATM   10  C   UNL     1      42.997 -13.519   3.247  1.00  0.00     0.020 C 
HETATM   11  N   UNL     1      42.921 -12.834   2.191  1.00  0.00    -0.096 N 
HETATM   12  C   UNL     1      44.132 -14.159   5.374  1.00  0.00     0.139 A 
HETATM   13  O   UNL     1      44.265 -14.915   6.555  1.00  0.00    -0.279 OA
ENDROOT
BRANCH   8  14
HETATM   14  C   UNL     1      41.682 -16.331   3.624  1.00  0.00     0.000 A 
HETATM   15  C   UNL     1      40.546 -16.063   2.809  1.00  0.00     0.076 A 
HETATM   16  C   UNL     1      40.258 -16.872   1.711  1.00  0.00     0.038 A 
HETATM   17  C   UNL     1      41.078 -17.951   1.400  1.00  0.00     0.015 A 
HETATM   18  C   UNL     1      42.196 -18.256   2.180  1.00  0.00    -0.025 A 
HETATM   19  C   UNL     1      42.517 -17.464   3.313  1.00  0.00    -0.016 A 
HETATM   20  C   UNL     1      42.991 -19.356   1.814  1.00  0.00     0.012 A 
HETATM   21  C   UNL     1      43.660 -17.875   4.048  1.00  0.00     0.013 A 
HETATM   22  C   UNL     1      44.445 -18.971   3.676  1.00  0.00     0.001 A 
HETATM   23  C   UNL     1      44.113 -19.710   2.554  1.00  0.00     0.001 A 
BRANCH  15  24
HETATM   24  O   UNL     1      39.779 -14.982   3.168  1.00  0.00    -0.355 OA
HETATM   25  C   UNL     1      39.192 -14.204   2.130  1.00  0.00     0.210 C 
ENDBRANCH  15  24
ENDBRANCH   8  14
BRANCH  12  26
HETATM   26  N   UNL     1      45.158 -13.259   5.202  1.00  0.00    -0.282 NA
HETATM   27  H   UNL     1      46.055 -13.657   4.936  1.00  0.00     0.126 HD
HETATM   28  H   UNL     1      44.883 -12.471   4.620  1.00  0.00     0.126 HD
ENDBRANCH  12  26
TORSDOF 3
ENDMDL
