MODEL 1
REMARK VINA RESULT:      -8.6      0.000      0.000
REMARK  5 active torsions:
REMARK  status: ('A' for Active; 'I' for Inactive)
REMARK    1  A    between atoms: C_2  and  O_3 
REMARK    2  A    between atoms: C_2  and  C_4 
REMARK    3  A    between atoms: C_4  and  N_5 
REMARK       I    between atoms: N_5  and  C_6 
REMARK    4  A    between atoms: C_6  and  C_7 
REMARK    5  A    between atoms: C_15  and  C_16 
ROOT
HETATM    1  C   UNL     1      43.816 -14.703   6.367  1.00  0.00     0.046 A 
HETATM    2  C   UNL     1      42.632 -14.278   5.725  1.00  0.00     0.008 A 
HETATM    3  C   UNL     1      41.926 -15.270   5.018  1.00  0.00     0.068 A 
HETATM    4  C   UNL     1      40.749 -14.923   4.369  1.00  0.00     0.032 A 
HETATM    5  C   UNL     1      40.243 -13.622   4.398  1.00  0.00     0.002 A 
HETATM    6  C   UNL     1      40.926 -12.636   5.093  1.00  0.00     0.001 A 
HETATM    7  C   UNL     1      42.110 -12.960   5.754  1.00  0.00     0.015 A 
HETATM    8  N   UNL     1      42.336 -16.548   4.944  1.00  0.00    -0.248 NA
HETATM    9  C   UNL     1      43.478 -16.932   5.562  1.00  0.00     0.068 A 
HETATM   10  C   UNL     1      44.246 -16.030   6.277  1.00  0.00     0.050 A 
ENDROOT
BRANCH   1  11
HETATM   11  C   UNL     1      44.666 -13.762   7.137  1.00  0.00     0.252 C 
HETATM   12  N   UNL     1      44.173 -13.405   8.375  1.00  0.00    -0.354 N 
HETATM   13  H   UNL     1      43.242 -13.688   8.655  1.00  0.00     0.162 HD
HETATM   14  O   UNL     1      45.722 -13.343   6.685  1.00  0.00    -0.268 OA
BRANCH  12  15
HETATM   15  C   UNL     1      44.904 -12.506   9.256  1.00  0.00     0.154 C 
BRANCH  15  16
HETATM   16  C   UNL     1      44.126 -12.193  10.542  1.00  0.00     0.132 C 
HETATM   17  C   UNL     1      44.610 -10.898  11.174  1.00  0.00     0.041 C 
BRANCH  16  18
HETATM   18  O   UNL     1      44.327 -13.251  11.486  1.00  0.00    -0.394 OA
HETATM   19  H   UNL     1      45.190 -13.074  11.901  1.00  0.00     0.210 HD
ENDBRANCH  16  18
ENDBRANCH  15  16
ENDBRANCH  12  15
ENDBRANCH   1  11
BRANCH   9  20
HETATM   20  C   UNL     1      43.840 -18.358   5.409  1.00  0.00    -0.007 A 
HETATM   21  C   UNL     1      44.272 -18.857   4.165  1.00  0.00     0.015 A 
HETATM   22  C   UNL     1      44.622 -20.202   3.998  1.00  0.00     0.024 A 
HETATM   23  C   UNL     1      44.540 -21.074   5.077  1.00  0.00     0.034 A 
HETATM   24 CL   UNL     1      44.968 -22.727   4.879  1.00  0.00    -0.084 Cl
HETATM   25  C   UNL     1      44.108 -20.614   6.317  1.00  0.00     0.024 A 
HETATM   26  C   UNL     1      43.760 -19.268   6.480  1.00  0.00     0.015 A 
ENDBRANCH   9  20
TORSDOF 5
ENDMDL
MODEL 2
REMARK VINA RESULT:      -8.5      1.524      1.811
REMARK  5 active torsions:
REMARK  status: ('A' for Active; 'I' for Inactive)
REMARK    1  A    between atoms: C_2  and  O_3 
REMARK    2  A    between atoms: C_2  and  C_4 
REMARK    3  A    between atoms: C_4  and  N_5 
REMARK       I    between atoms: N_5  and  C_6 
REMARK    4  A    between atoms: C_6  and  C_7 
REMARK    5  A    between atoms: C_15  and  C_16 
ROOT
HETATM    1  C   UNL     1      43.308 -15.352   5.996  1.00  0.00     0.046 A 
HETATM    2  C   UNL     1      42.227 -14.631   5.446  1.00  0.00     0.008 A 
HETATM    3  C   UNL     1      41.606 -15.213   4.324  1.00  0.00     0.068 A 
HETATM    4  C   UNL     1      40.531 -14.561   3.737  1.00  0.00     0.032 A 
HETATM    5  C   UNL     1      40.045 -13.347   4.226  1.00  0.00     0.002 A 
HETATM    6  C   UNL     1      40.644 -12.764   5.331  1.00  0.00     0.001 A 
HETATM    7  C   UNL     1      41.725 -13.399   5.939  1.00  0.00     0.015 A 
HETATM    8  N   UNL     1      42.003 -16.383   3.793  1.00  0.00    -0.248 NA
HETATM    9  C   UNL     1      43.047 -17.055   4.334  1.00  0.00     0.068 A 
HETATM   10  C   UNL     1      43.727 -16.562   5.434  1.00  0.00     0.050 A 
ENDROOT
BRANCH   1  11
HETATM   11  C   UNL     1      44.063 -14.851   7.172  1.00  0.00     0.252 C 
HETATM   12  N   UNL     1      44.750 -13.673   6.968  1.00  0.00    -0.354 N 
HETATM   13  H   UNL     1      44.811 -13.270   6.041  1.00  0.00     0.162 HD
HETATM   14  O   UNL     1      44.064 -15.458   8.233  1.00  0.00    -0.268 OA
BRANCH  12  15
HETATM   15  C   UNL     1      45.519 -13.046   8.033  1.00  0.00     0.154 C 
BRANCH  15  16
HETATM   16  C   UNL     1      44.632 -12.238   8.991  1.00  0.00     0.132 C 
HETATM   17  C   UNL     1      45.414 -11.107   9.640  1.00  0.00     0.041 C 
BRANCH  16  18
HETATM   18  O   UNL     1      44.151 -13.098  10.030  1.00  0.00    -0.394 OA
HETATM   19  H   UNL     1      43.185 -13.138   9.914  1.00  0.00     0.210 HD
ENDBRANCH  16  18
ENDBRANCH  15  16
ENDBRANCH  12  15
ENDBRANCH   1  11
BRANCH   9  20
HETATM   20  C   UNL     1      43.405 -18.325   3.666  1.00  0.00    -0.007 A 
HETATM   21  C   UNL     1      42.857 -18.653   2.411  1.00  0.00     0.015 A 
HETATM   22  C   UNL     1      43.184 -19.848   1.759  1.00  0.00     0.024 A 
HETATM   23  C   UNL     1      44.064 -20.741   2.359  1.00  0.00     0.034 A 
HETATM   24 CL   UNL     1      44.469 -22.211   1.565  1.00  0.00    -0.084 Cl
HETATM   25  C   UNL     1      44.615 -20.451   3.603  1.00  0.00     0.024 A 
HETATM   26  C   UNL     1      44.286 -19.254   4.251  1.00  0.00     0.015 A 
ENDBRANCH   9  20
TORSDOF 5
ENDMDL
MODEL 3
REMARK VINA RESULT:      -8.3      3.803      6.513
REMARK  5 active torsions:
REMARK  status: ('A' for Active; 'I' for Inactive)
REMARK    1  A    between atoms: C_2  and  O_3 
REMARK    2  A    between atoms: C_2  and  C_4 
REMARK    3  A    between atoms: C_4  and  N_5 
REMARK       I    between atoms: N_5  and  C_6 
REMARK    4  A    between atoms: C_6  and  C_7 
REMARK    5  A    between atoms: C_15  and  C_16 
ROOT
HETATM    1  C   UNL     1      42.955 -17.596   4.386  1.00  0.00     0.046 A 
HETATM    2  C   UNL     1      43.433 -18.780   3.782  1.00  0.00     0.008 A 
HETATM    3  C   UNL     1      43.089 -18.963   2.430  1.00  0.00     0.068 A 
HETATM    4  C   UNL     1      43.533 -20.103   1.772  1.00  0.00     0.032 A 
HETATM    5  C   UNL     1      44.312 -21.070   2.410  1.00  0.00     0.002 A 
HETATM    6  C   UNL     1      44.661 -20.900   3.741  1.00  0.00     0.001 A 
HETATM    7  C   UNL     1      44.228 -19.765   4.423  1.00  0.00     0.015 A 
HETATM    8  N   UNL     1      42.350 -18.080   1.736  1.00  0.00    -0.248 NA
HETATM    9  C   UNL     1      41.896 -16.955   2.337  1.00  0.00     0.068 A 
HETATM   10  C   UNL     1      42.176 -16.685   3.666  1.00  0.00     0.050 A 
ENDROOT
BRANCH   1  11
HETATM   11  C   UNL     1      43.232 -17.279   5.809  1.00  0.00     0.252 C 
HETATM   12  N   UNL     1      43.839 -16.061   6.031  1.00  0.00    -0.354 N 
HETATM   13  H   UNL     1      44.164 -15.503   5.252  1.00  0.00     0.162 HD
HETATM   14  O   UNL     1      42.938 -18.060   6.703  1.00  0.00    -0.268 OA
BRANCH  12  15
HETATM   15  C   UNL     1      44.154 -15.601   7.376  1.00  0.00     0.154 C 
BRANCH  15  16
HETATM   16  C   UNL     1      44.333 -14.078   7.441  1.00  0.00     0.132 C 
HETATM   17  C   UNL     1      45.623 -13.648   6.761  1.00  0.00     0.041 C 
BRANCH  16  18
HETATM   18  O   UNL     1      44.396 -13.667   8.811  1.00  0.00    -0.394 OA
HETATM   19  H   UNL     1      43.608 -14.048   9.238  1.00  0.00     0.210 HD
ENDBRANCH  16  18
ENDBRANCH  15  16
ENDBRANCH  12  15
ENDBRANCH   1  11
BRANCH   9  20
HETATM   20  C   UNL     1      41.086 -16.057   1.486  1.00  0.00    -0.007 A 
HETATM   21  C   UNL     1      39.893 -15.490   1.974  1.00  0.00     0.015 A 
HETATM   22  C   UNL     1      39.113 -14.636   1.187  1.00  0.00     0.024 A 
HETATM   23  C   UNL     1      39.512 -14.338  -0.110  1.00  0.00     0.034 A 
HETATM   24 CL   UNL     1      38.558 -13.290  -1.083  1.00  0.00    -0.084 Cl
HETATM   25  C   UNL     1      40.681 -14.888  -0.626  1.00  0.00     0.024 A 
HETATM   26  C   UNL     1      41.460 -15.741   0.165  1.00  0.00     0.015 A 
ENDBRANCH   9  20
TORSDOF 5
ENDMDL
MODEL 4
REMARK VINA RESULT:      -8.1      4.432      6.969
REMARK  5 active torsions:
REMARK  status: ('A' for Active; 'I' for Inactive)
REMARK    1  A    between atoms: C_2  and  O_3 
REMARK    2  A    between atoms: C_2  and  C_4 
REMARK    3  A    between atoms: C_4  and  N_5 
REMARK       I    between atoms: N_5  and  C_6 
REMARK    4  A    between atoms: C_6  and  C_7 
REMARK    5  A    between atoms: C_15  and  C_16 
ROOT
HETATM    1  C   UNL     1      42.843 -17.258   4.171  1.00  0.00     0.046 A 
HETATM    2  C   UNL     1      43.260 -18.429   3.501  1.00  0.00     0.008 A 
HETATM    3  C   UNL     1      42.749 -18.609   2.202  1.00  0.00     0.068 A 
HETATM    4  C   UNL     1      43.124 -19.737   1.483  1.00  0.00     0.032 A 
HETATM    5  C   UNL     1      43.993 -20.694   2.008  1.00  0.00     0.002 A 
HETATM    6  C   UNL     1      44.506 -20.527   3.286  1.00  0.00     0.001 A 
HETATM    7  C   UNL     1      44.145 -19.404   4.027  1.00  0.00     0.015 A 
HETATM    8  N   UNL     1      41.914 -17.734   1.615  1.00  0.00    -0.248 NA
HETATM    9  C   UNL     1      41.522 -16.621   2.279  1.00  0.00     0.068 A 
HETATM   10  C   UNL     1      41.964 -16.355   3.564  1.00  0.00     0.050 A 
ENDROOT
BRANCH   1  11
HETATM   11  C   UNL     1      43.293 -16.945   5.550  1.00  0.00     0.252 C 
HETATM   12  N   UNL     1      42.878 -17.836   6.518  1.00  0.00    -0.354 N 
HETATM   13  H   UNL     1      42.219 -18.569   6.289  1.00  0.00     0.162 HD
HETATM   14  O   UNL     1      43.978 -15.961   5.788  1.00  0.00    -0.268 OA
BRANCH  12  15
HETATM   15  C   UNL     1      43.257 -17.675   7.915  1.00  0.00     0.154 C 
BRANCH  15  16
HETATM   16  C   UNL     1      44.271 -18.735   8.367  1.00  0.00     0.132 C 
HETATM   17  C   UNL     1      43.899 -20.111   7.836  1.00  0.00     0.041 C 
BRANCH  16  18
HETATM   18  O   UNL     1      44.283 -18.799   9.797  1.00  0.00    -0.394 OA
HETATM   19  H   UNL     1      44.824 -19.577  10.022  1.00  0.00     0.210 HD
ENDBRANCH  16  18
ENDBRANCH  15  16
ENDBRANCH  12  15
ENDBRANCH   1  11
BRANCH   9  20
HETATM   20  C   UNL     1      40.596 -15.731   1.545  1.00  0.00    -0.007 A 
HETATM   21  C   UNL     1      40.944 -15.224   0.278  1.00  0.00     0.015 A 
HETATM   22  C   UNL     1      40.083 -14.383  -0.436  1.00  0.00     0.024 A 
HETATM   23  C   UNL     1      38.855 -14.030   0.112  1.00  0.00     0.034 A 
HETATM   24 CL   UNL     1      37.792 -12.997  -0.759  1.00  0.00    -0.084 Cl
HETATM   25  C   UNL     1      38.485 -14.507   1.365  1.00  0.00     0.024 A 
HETATM   26  C   UNL     1      39.349 -15.349   2.075  1.00  0.00     0.015 A 
ENDBRANCH   9  20
TORSDOF 5
ENDMDL
MODEL 5
REMARK VINA RESULT:      -8.1      4.394      6.990
REMARK  5 active torsions:
REMARK  status: ('A' for Active; 'I' for Inactive)
REMARK    1  A    between atoms: C_2  and  O_3 
REMARK    2  A    between atoms: C_2  and  C_4 
REMARK    3  A    between atoms: C_4  and  N_5 
REMARK       I    between atoms: N_5  and  C_6 
REMARK    4  A    between atoms: C_6  and  C_7 
REMARK    5  A    between atoms: C_15  and  C_16 
ROOT
HETATM    1  C   UNL     1      41.732 -15.527   1.786  1.00  0.00     0.046 A 
HETATM    2  C   UNL     1      42.064 -14.665   2.854  1.00  0.00     0.008 A 
HETATM    3  C   UNL     1      42.847 -15.229   3.879  1.00  0.00     0.068 A 
HETATM    4  C   UNL     1      43.217 -14.435   4.956  1.00  0.00     0.032 A 
HETATM    5  C   UNL     1      42.838 -13.095   5.053  1.00  0.00     0.002 A 
HETATM    6  C   UNL     1      42.068 -12.526   4.050  1.00  0.00     0.001 A 
HETATM    7  C   UNL     1      41.685 -13.302   2.957  1.00  0.00     0.015 A 
HETATM    8  N   UNL     1      43.264 -16.507   3.863  1.00  0.00    -0.248 NA
HETATM    9  C   UNL     1      42.928 -17.317   2.831  1.00  0.00     0.068 A 
HETATM   10  C   UNL     1      42.155 -16.859   1.778  1.00  0.00     0.050 A 
ENDROOT
BRANCH   1  11
HETATM   11  C   UNL     1      40.901 -15.070   0.644  1.00  0.00     0.252 C 
HETATM   12  N   UNL     1      41.570 -14.945  -0.554  1.00  0.00    -0.354 N 
HETATM   13  H   UNL     1      42.576 -15.050  -0.592  1.00  0.00     0.162 HD
HETATM   14  O   UNL     1      39.711 -14.824   0.783  1.00  0.00    -0.268 OA
BRANCH  12  15
HETATM   15  C   UNL     1      40.885 -14.527  -1.770  1.00  0.00     0.154 C 
BRANCH  15  16
HETATM   16  C   UNL     1      41.854 -13.959  -2.816  1.00  0.00     0.132 C 
HETATM   17  C   UNL     1      41.180 -12.892  -3.665  1.00  0.00     0.041 C 
BRANCH  16  18
HETATM   18  O   UNL     1      42.283 -15.012  -3.685  1.00  0.00    -0.394 OA
HETATM   19  H   UNL     1      41.730 -14.940  -4.483  1.00  0.00     0.210 HD
ENDBRANCH  16  18
ENDBRANCH  15  16
ENDBRANCH  12  15
ENDBRANCH   1  11
BRANCH   9  20
HETATM   20  C   UNL     1      43.431 -18.705   2.918  1.00  0.00    -0.007 A 
HETATM   21  C   UNL     1      44.147 -19.137   4.052  1.00  0.00     0.015 A 
HETATM   22  C   UNL     1      44.630 -20.447   4.157  1.00  0.00     0.024 A 
HETATM   23  C   UNL     1      44.409 -21.348   3.122  1.00  0.00     0.034 A 
HETATM   24 CL   UNL     1      45.000 -22.958   3.245  1.00  0.00    -0.084 Cl
HETATM   25  C   UNL     1      43.713 -20.950   1.985  1.00  0.00     0.024 A 
HETATM   26  C   UNL     1      43.230 -19.640   1.885  1.00  0.00     0.015 A 
ENDBRANCH   9  20
TORSDOF 5
ENDMDL
MODEL 6
REMARK VINA RESULT:      -8.1      2.886      5.418
REMARK  5 active torsions:
REMARK  status: ('A' for Active; 'I' for Inactive)
REMARK    1  A    between atoms: C_2  and  O_3 
REMARK    2  A    between atoms: C_2  and  C_4 
REMARK    3  A    between atoms: C_4  and  N_5 
REMARK       I    between atoms: N_5  and  C_6 
REMARK    4  A    between atoms: C_6  and  C_7 
REMARK    5  A    between atoms: C_15  and  C_16 
ROOT
HETATM    1  C   UNL     1      43.737 -14.848   6.000  1.00  0.00     0.046 A 
HETATM    2  C   UNL     1      43.841 -16.253   6.093  1.00  0.00     0.008 A 
HETATM    3  C   UNL     1      42.908 -16.990   5.340  1.00  0.00     0.068 A 
HETATM    4  C   UNL     1      42.958 -18.378   5.380  1.00  0.00     0.032 A 
HETATM    5  C   UNL     1      43.906 -19.062   6.142  1.00  0.00     0.002 A 
HETATM    6  C   UNL     1      44.832 -18.348   6.887  1.00  0.00     0.001 A 
HETATM    7  C   UNL     1      44.803 -16.955   6.863  1.00  0.00     0.015 A 
HETATM    8  N   UNL     1      41.967 -16.414   4.572  1.00  0.00    -0.248 NA
HETATM    9  C   UNL     1      41.882 -15.064   4.502  1.00  0.00     0.068 A 
HETATM   10  C   UNL     1      42.749 -14.251   5.211  1.00  0.00     0.050 A 
ENDROOT
BRANCH   1  11
HETATM   11  C   UNL     1      44.647 -13.946   6.750  1.00  0.00     0.252 C 
HETATM   12  N   UNL     1      44.213 -13.593   8.010  1.00  0.00    -0.354 N 
HETATM   13  H   UNL     1      43.286 -13.851   8.323  1.00  0.00     0.162 HD
HETATM   14  O   UNL     1      45.697 -13.554   6.262  1.00  0.00    -0.268 OA
BRANCH  12  15
HETATM   15  C   UNL     1      45.007 -12.732   8.875  1.00  0.00     0.154 C 
BRANCH  15  16
HETATM   16  C   UNL     1      44.249 -12.331  10.149  1.00  0.00     0.132 C 
HETATM   17  C   UNL     1      44.868 -11.099  10.790  1.00  0.00     0.041 C 
BRANCH  16  18
HETATM   18  O   UNL     1      44.313 -13.403  11.095  1.00  0.00    -0.394 OA
HETATM   19  H   UNL     1      43.650 -13.194  11.777  1.00  0.00     0.210 HD
ENDBRANCH  16  18
ENDBRANCH  15  16
ENDBRANCH  12  15
ENDBRANCH   1  11
BRANCH   9  20
HETATM   20  C   UNL     1      40.806 -14.536   3.636  1.00  0.00    -0.007 A 
HETATM   21  C   UNL     1      40.164 -15.371   2.701  1.00  0.00     0.015 A 
HETATM   22  C   UNL     1      39.141 -14.893   1.873  1.00  0.00     0.024 A 
HETATM   23  C   UNL     1      38.747 -13.563   1.964  1.00  0.00     0.034 A 
HETATM   24 CL   UNL     1      37.492 -12.969   0.950  1.00  0.00    -0.084 Cl
HETATM   25  C   UNL     1      39.367 -12.710   2.871  1.00  0.00     0.024 A 
HETATM   26  C   UNL     1      40.389 -13.193   3.698  1.00  0.00     0.015 A 
ENDBRANCH   9  20
TORSDOF 5
ENDMDL
MODEL 7
REMARK VINA RESULT:      -8.0      3.282      4.411
REMARK  5 active torsions:
REMARK  status: ('A' for Active; 'I' for Inactive)
REMARK    1  A    between atoms: C_2  and  O_3 
REMARK    2  A    between atoms: C_2  and  C_4 
REMARK    3  A    between atoms: C_4  and  N_5 
REMARK       I    between atoms: N_5  and  C_6 
REMARK    4  A    between atoms: C_6  and  C_7 
REMARK    5  A    between atoms: C_15  and  C_16 
ROOT
HETATM    1  C   UNL     1      42.705 -15.197   2.806  1.00  0.00     0.046 A 
HETATM    2  C   UNL     1      42.065 -15.042   1.557  1.00  0.00     0.008 A 
HETATM    3  C   UNL     1      41.972 -16.202   0.764  1.00  0.00     0.068 A 
HETATM    4  C   UNL     1      41.348 -16.122  -0.474  1.00  0.00     0.032 A 
HETATM    5  C   UNL     1      40.809 -14.928  -0.955  1.00  0.00     0.002 A 
HETATM    6  C   UNL     1      40.891 -13.778  -0.184  1.00  0.00     0.001 A 
HETATM    7  C   UNL     1      41.512 -13.833   1.063  1.00  0.00     0.015 A 
HETATM    8  N   UNL     1      42.456 -17.394   1.153  1.00  0.00    -0.248 NA
HETATM    9  C   UNL     1      43.072 -17.519   2.352  1.00  0.00     0.068 A 
HETATM   10  C   UNL     1      43.219 -16.436   3.202  1.00  0.00     0.050 A 
ENDROOT
BRANCH   1  11
HETATM   11  C   UNL     1      42.885 -14.056   3.738  1.00  0.00     0.252 C 
HETATM   12  N   UNL     1      41.929 -13.952   4.727  1.00  0.00    -0.354 N 
HETATM   13  H   UNL     1      41.115 -14.554   4.717  1.00  0.00     0.162 HD
HETATM   14  O   UNL     1      43.817 -13.276   3.615  1.00  0.00    -0.268 OA
BRANCH  12  15
HETATM   15  C   UNL     1      41.982 -12.897   5.729  1.00  0.00     0.154 C 
BRANCH  15  16
HETATM   16  C   UNL     1      41.093 -11.701   5.361  1.00  0.00     0.132 C 
HETATM   17  C   UNL     1      39.735 -12.162   4.857  1.00  0.00     0.041 C 
BRANCH  16  18
HETATM   18  O   UNL     1      41.721 -10.947   4.318  1.00  0.00    -0.394 OA
HETATM   19  H   UNL     1      41.030 -10.794   3.649  1.00  0.00     0.210 HD
ENDBRANCH  16  18
ENDBRANCH  15  16
ENDBRANCH  12  15
ENDBRANCH   1  11
BRANCH   9  20
HETATM   20  C   UNL     1      43.574 -18.872   2.676  1.00  0.00    -0.007 A 
HETATM   21  C   UNL     1      43.377 -19.941   1.781  1.00  0.00     0.015 A 
HETATM   22  C   UNL     1      43.846 -21.229   2.065  1.00  0.00     0.024 A 
HETATM   23  C   UNL     1      44.518 -21.470   3.258  1.00  0.00     0.034 A 
HETATM   24 CL   UNL     1      45.096 -23.050   3.613  1.00  0.00    -0.084 Cl
HETATM   25  C   UNL     1      44.721 -20.437   4.167  1.00  0.00     0.024 A 
HETATM   26  C   UNL     1      44.251 -19.150   3.878  1.00  0.00     0.015 A 
ENDBRANCH   9  20
TORSDOF 5
ENDMDL
MODEL 8
REMARK VINA RESULT:      -8.0      4.271      6.696
REMARK  5 active torsions:
REMARK  status: ('A' for Active; 'I' for Inactive)
REMARK    1  A    between atoms: C_2  and  O_3 
REMARK    2  A    between atoms: C_2  and  C_4 
REMARK    3  A    between atoms: C_4  and  N_5 
REMARK       I    between atoms: N_5  and  C_6 
REMARK    4  A    between atoms: C_6  and  C_7 
REMARK    5  A    between atoms: C_15  and  C_16 
ROOT
HETATM    1  C   UNL     1      41.860 -14.725   1.978  1.00  0.00     0.046 A 
HETATM    2  C   UNL     1      41.137 -14.354   3.132  1.00  0.00     0.008 A 
HETATM    3  C   UNL     1      41.098 -15.308   4.166  1.00  0.00     0.068 A 
HETATM    4  C   UNL     1      40.409 -15.006   5.334  1.00  0.00     0.032 A 
HETATM    5  C   UNL     1      39.757 -13.785   5.514  1.00  0.00     0.002 A 
HETATM    6  C   UNL     1      39.790 -12.836   4.504  1.00  0.00     0.001 A 
HETATM    7  C   UNL     1      40.475 -13.114   3.323  1.00  0.00     0.015 A 
HETATM    8  N   UNL     1      41.704 -16.505   4.082  1.00  0.00    -0.248 NA
HETATM    9  C   UNL     1      42.388 -16.842   2.962  1.00  0.00     0.068 A 
HETATM   10  C   UNL     1      42.479 -15.975   1.887  1.00  0.00     0.050 A 
ENDROOT
BRANCH   1  11
HETATM   11  C   UNL     1      41.974 -13.822   0.805  1.00  0.00     0.252 C 
HETATM   12  N   UNL     1      41.515 -14.347  -0.385  1.00  0.00    -0.354 N 
HETATM   13  H   UNL     1      41.237 -15.319  -0.442  1.00  0.00     0.162 HD
HETATM   14  O   UNL     1      42.449 -12.701   0.910  1.00  0.00    -0.268 OA
BRANCH  12  15
HETATM   15  C   UNL     1      41.541 -13.574  -1.619  1.00  0.00     0.154 C 
BRANCH  15  16
HETATM   16  C   UNL     1      41.221 -14.434  -2.849  1.00  0.00     0.132 C 
HETATM   17  C   UNL     1      40.625 -15.772  -2.443  1.00  0.00     0.041 C 
BRANCH  16  18
HETATM   18  O   UNL     1      42.428 -14.687  -3.577  1.00  0.00    -0.394 OA
HETATM   19  H   UNL     1      42.855 -15.438  -3.128  1.00  0.00     0.210 HD
ENDBRANCH  16  18
ENDBRANCH  15  16
ENDBRANCH  12  15
ENDBRANCH   1  11
BRANCH   9  20
HETATM   20  C   UNL     1      43.008 -18.184   2.972  1.00  0.00    -0.007 A 
HETATM   21  C   UNL     1      42.831 -19.062   1.885  1.00  0.00     0.015 A 
HETATM   22  C   UNL     1      43.412 -20.336   1.871  1.00  0.00     0.024 A 
HETATM   23  C   UNL     1      44.177 -20.756   2.952  1.00  0.00     0.034 A 
HETATM   24 CL   UNL     1      44.892 -22.319   2.942  1.00  0.00    -0.084 Cl
HETATM   25  C   UNL     1      44.364 -19.916   4.045  1.00  0.00     0.024 A 
HETATM   26  C   UNL     1      43.783 -18.642   4.054  1.00  0.00     0.015 A 
ENDBRANCH   9  20
TORSDOF 5
ENDMDL
MODEL 9
REMARK VINA RESULT:      -7.9      4.474      7.905
REMARK  5 active torsions:
REMARK  status: ('A' for Active; 'I' for Inactive)
REMARK    1  A    between atoms: C_2  and  O_3 
REMARK    2  A    between atoms: C_2  and  C_4 
REMARK    3  A    between atoms: C_4  and  N_5 
REMARK       I    between atoms: N_5  and  C_6 
REMARK    4  A    between atoms: C_6  and  C_7 
REMARK    5  A    between atoms: C_15  and  C_16 
ROOT
HETATM    1  C   UNL     1      42.469 -17.546   2.308  1.00  0.00     0.046 A 
HETATM    2  C   UNL     1      43.140 -18.771   2.518  1.00  0.00     0.008 A 
HETATM    3  C   UNL     1      43.931 -18.847   3.680  1.00  0.00     0.068 A 
HETATM    4  C   UNL     1      44.612 -20.026   3.952  1.00  0.00     0.032 A 
HETATM    5  C   UNL     1      44.535 -21.137   3.111  1.00  0.00     0.002 A 
HETATM    6  C   UNL     1      43.758 -21.076   1.965  1.00  0.00     0.001 A 
HETATM    7  C   UNL     1      43.063 -19.905   1.669  1.00  0.00     0.015 A 
HETATM    8  N   UNL     1      44.055 -17.829   4.550  1.00  0.00    -0.248 NA
HETATM    9  C   UNL     1      43.408 -16.662   4.325  1.00  0.00     0.068 A 
HETATM   10  C   UNL     1      42.611 -16.484   3.207  1.00  0.00     0.050 A 
ENDROOT
BRANCH   1  11
HETATM   11  C   UNL     1      41.611 -17.320   1.118  1.00  0.00     0.252 C 
HETATM   12  N   UNL     1      42.070 -16.363   0.238  1.00  0.00    -0.354 N 
HETATM   13  H   UNL     1      42.872 -15.793   0.475  1.00  0.00     0.162 HD
HETATM   14  O   UNL     1      40.574 -17.947   0.955  1.00  0.00    -0.268 OA
BRANCH  12  15
HETATM   15  C   UNL     1      41.348 -16.045  -0.986  1.00  0.00     0.154 C 
BRANCH  15  16
HETATM   16  C   UNL     1      40.727 -14.642  -0.946  1.00  0.00     0.132 C 
HETATM   17  C   UNL     1      41.563 -13.696  -0.098  1.00  0.00     0.041 C 
BRANCH  16  18
HETATM   18  O   UNL     1      39.420 -14.718  -0.368  1.00  0.00    -0.394 OA
HETATM   19  H   UNL     1      39.488 -14.284   0.500  1.00  0.00     0.210 HD
ENDBRANCH  16  18
ENDBRANCH  15  16
ENDBRANCH  12  15
ENDBRANCH   1  11
BRANCH   9  20
HETATM   20  C   UNL     1      43.621 -15.607   5.339  1.00  0.00    -0.007 A 
HETATM   21  C   UNL     1      44.277 -15.900   6.550  1.00  0.00     0.015 A 
HETATM   22  C   UNL     1      44.493 -14.917   7.522  1.00  0.00     0.024 A 
HETATM   23  C   UNL     1      44.048 -13.619   7.300  1.00  0.00     0.034 A 
HETATM   24 CL   UNL     1      44.308 -12.407   8.491  1.00  0.00    -0.084 Cl
HETATM   25  C   UNL     1      43.388 -13.298   6.118  1.00  0.00     0.024 A 
HETATM   26  C   UNL     1      43.176 -14.285   5.147  1.00  0.00     0.015 A 
ENDBRANCH   9  20
TORSDOF 5
ENDMDL
MODEL 10
REMARK VINA RESULT:      -7.4      2.536      3.142
REMARK  5 active torsions:
REMARK  status: ('A' for Active; 'I' for Inactive)
REMARK    1  A    between atoms: C_2  and  O_3 
REMARK    2  A    between atoms: C_2  and  C_4 
REMARK    3  A    between atoms: C_4  and  N_5 
REMARK       I    between atoms: N_5  and  C_6 
REMARK    4  A    between atoms: C_6  and  C_7 
REMARK    5  A    between atoms: C_15  and  C_16 
ROOT
HETATM    1  C   UNL     1      42.288 -14.993   4.501  1.00  0.00     0.046 A 
HETATM    2  C   UNL     1      41.226 -15.026   3.572  1.00  0.00     0.008 A 
HETATM    3  C   UNL     1      40.946 -16.282   3.002  1.00  0.00     0.068 A 
HETATM    4  C   UNL     1      39.908 -16.388   2.085  1.00  0.00     0.032 A 
HETATM    5  C   UNL     1      39.134 -15.288   1.714  1.00  0.00     0.002 A 
HETATM    6  C   UNL     1      39.397 -14.045   2.269  1.00  0.00     0.001 A 
HETATM    7  C   UNL     1      40.432 -13.913   3.192  1.00  0.00     0.015 A 
HETATM    8  N   UNL     1      41.635 -17.396   3.308  1.00  0.00    -0.248 NA
HETATM    9  C   UNL     1      42.654 -17.339   4.198  1.00  0.00     0.068 A 
HETATM   10  C   UNL     1      43.011 -16.150   4.809  1.00  0.00     0.050 A 
ENDROOT
BRANCH   1  11
HETATM   11  C   UNL     1      42.701 -13.734   5.170  1.00  0.00     0.252 C 
HETATM   12  N   UNL     1      41.767 -13.193   6.027  1.00  0.00    -0.354 N 
HETATM   13  H   UNL     1      40.835 -13.585   6.083  1.00  0.00     0.162 HD
HETATM   14  O   UNL     1      43.794 -13.230   4.957  1.00  0.00    -0.268 OA
BRANCH  12  15
HETATM   15  C   UNL     1      42.035 -11.971   6.773  1.00  0.00     0.154 C 
BRANCH  15  16
HETATM   16  C   UNL     1      40.752 -11.187   7.084  1.00  0.00     0.132 C 
HETATM   17  C   UNL     1      39.524 -12.077   6.970  1.00  0.00     0.041 C 
BRANCH  16  18
HETATM   18  O   UNL     1      40.612 -10.116   6.145  1.00  0.00    -0.394 OA
HETATM   19  H   UNL     1      41.452 -10.081   5.655  1.00  0.00     0.210 HD
ENDBRANCH  16  18
ENDBRANCH  15  16
ENDBRANCH  12  15
ENDBRANCH   1  11
BRANCH   9  20
HETATM   20  C   UNL     1      43.349 -18.619   4.455  1.00  0.00    -0.007 A 
HETATM   21  C   UNL     1      43.911 -19.355   3.393  1.00  0.00     0.015 A 
HETATM   22  C   UNL     1      44.576 -20.566   3.613  1.00  0.00     0.024 A 
HETATM   23  C   UNL     1      44.685 -21.067   4.905  1.00  0.00     0.034 A 
HETATM   24 CL   UNL     1      45.500 -22.555   5.183  1.00  0.00    -0.084 Cl
HETATM   25  C   UNL     1      44.134 -20.369   5.975  1.00  0.00     0.024 A 
HETATM   26  C   UNL     1      43.471 -19.157   5.750  1.00  0.00     0.015 A 
ENDBRANCH   9  20
TORSDOF 5
ENDMDL
