MODEL 1
REMARK VINA RESULT:      -9.1      0.000      0.000
REMARK  10 active torsions:
REMARK  status: ('A' for Active; 'I' for Inactive)
REMARK    1  A    between atoms: C_6  and  N_7 
REMARK    2  A    between atoms: C_6  and  C_29 
REMARK       I    between atoms: N_7  and  C_8 
REMARK    3  A    between atoms: N_7  and  C_23 
REMARK    4  A    between atoms: C_8  and  C_9 
REMARK    5  A    between atoms: C_9  and  N_10 
REMARK    6  A    between atoms: C_14  and  C_15 
REMARK    7  A    between atoms: C_23  and  C_24 
REMARK       I    between atoms: C_29  and  N_30 
REMARK    8  A    between atoms: N_30  and  C_31 
REMARK    9  A    between atoms: C_32  and  O_33 
REMARK   10  A    between atoms: C_36  and  O_37 
ROOT
HETATM    1  N   UNL     1      40.663 -14.837   1.713  1.00  0.00    -0.326 N 
HETATM    2  C   UNL     1      41.179 -15.102   0.434  1.00  0.00     0.239 C 
HETATM    3  O   UNL     1      42.103 -15.893   0.262  1.00  0.00    -0.271 OA
ENDROOT
BRANCH   1   4
HETATM    4  C   UNL     1      41.548 -14.905   2.930  1.00  0.00     0.120 C 
HETATM    5  C   UNL     1      42.823 -14.049   2.790  1.00  0.00     0.069 C 
HETATM    6  C   UNL     1      43.710 -14.115   4.030  1.00  0.00     0.237 C 
HETATM    7  N   UNL     1      42.943 -13.705   5.252  1.00  0.00    -0.075 N 
HETATM    8  C   UNL     1      43.817 -13.729   6.482  1.00  0.00     0.269 C 
HETATM    9  H   UNL     1      42.650 -12.723   5.128  1.00  0.00     0.279 HD
HETATM   10  C   UNL     1      41.681 -14.510   5.465  1.00  0.00     0.237 C 
HETATM   11  C   UNL     1      40.809 -14.403   4.219  1.00  0.00     0.069 C 
BRANCH   4  12
HETATM   12  C   UNL     1      41.819 -16.430   3.206  1.00  0.00     0.251 C 
HETATM   13  N   UNL     1      43.083 -16.897   2.925  1.00  0.00    -0.323 N 
HETATM   14  H   UNL     1      43.819 -16.278   2.604  1.00  0.00     0.169 HD
HETATM   15  O   UNL     1      40.906 -17.133   3.637  1.00  0.00    -0.270 OA
BRANCH  13  16
HETATM   16  C   UNL     1      43.549 -18.227   3.087  1.00  0.00     0.068 A 
HETATM   17  C   UNL     1      44.104 -18.557   4.342  1.00  0.00     0.097 A 
HETATM   18  C   UNL     1      44.568 -19.859   4.583  1.00  0.00     0.075 A 
HETATM   19  C   UNL     1      44.483 -20.829   3.581  1.00  0.00     0.070 A 
HETATM   20  C   UNL     1      43.958 -20.487   2.337  1.00  0.00     0.039 A 
HETATM   21  C   UNL     1      43.489 -19.197   2.088  1.00  0.00     0.035 A 
BRANCH  17  22
HETATM   22  O   UNL     1      44.110 -17.530   5.261  1.00  0.00    -0.354 OA
HETATM   23  C   UNL     1      44.832 -17.756   6.470  1.00  0.00     0.210 C 
ENDBRANCH  17  22
BRANCH  19  24
HETATM   24  O   UNL     1      44.886 -22.131   3.683  1.00  0.00    -0.356 OA
HETATM   25  C   UNL     1      45.126 -22.641   4.988  1.00  0.00     0.210 C 
ENDBRANCH  19  24
ENDBRANCH  13  16
ENDBRANCH   4  12
ENDBRANCH   1   4
BRANCH   1  26
HETATM   26  C   UNL     1      39.225 -15.112   1.853  1.00  0.00     0.192 C 
BRANCH  26  27
HETATM   27  C   UNL     1      38.361 -13.982   1.446  1.00  0.00     0.070 A 
HETATM   28  O   UNL     1      38.721 -12.779   1.982  1.00  0.00    -0.325 OA
HETATM   29  C   UNL     1      37.839 -11.855   1.531  1.00  0.00     0.142 A 
HETATM   30  C   UNL     1      36.913 -12.444   0.704  1.00  0.00     0.027 A 
HETATM   31  C   UNL     1      37.245 -13.819   0.650  1.00  0.00     0.036 A 
ENDBRANCH  26  27
ENDBRANCH   1  26
BRANCH   2  32
HETATM   32  C   UNL     1      40.558 -14.230  -0.683  1.00  0.00     0.228 C 
BRANCH  32  33
HETATM   33  N   UNL     1      41.477 -13.306  -1.323  1.00  0.00    -0.347 N 
HETATM   34  C   UNL     1      42.018 -12.139  -0.793  1.00  0.00     0.171 C 
HETATM   35  S   UNL     1      41.795 -11.478   0.706  1.00  0.00    -0.041 SA
HETATM   36  N   UNL     1      42.802 -11.550  -1.773  1.00  0.00    -0.357 N 
HETATM   37  C   UNL     1      42.708 -12.254  -3.034  1.00  0.00     0.135 C 
HETATM   38  H   UNL     1      43.198 -10.625  -1.662  1.00  0.00     0.162 HD
HETATM   39  C   UNL     1      42.037 -13.579  -2.636  1.00  0.00     0.155 C 
BRANCH  37  40
HETATM   40  C   UNL     1      41.911 -11.493  -4.076  1.00  0.00    -0.034 A 
HETATM   41  C   UNL     1      40.508 -11.519  -4.027  1.00  0.00     0.009 A 
HETATM   42  C   UNL     1      39.745 -10.790  -4.943  1.00  0.00     0.001 A 
HETATM   43  C   UNL     1      40.374 -10.023  -5.920  1.00  0.00     0.000 A 
HETATM   44  C   UNL     1      41.764  -9.983  -5.983  1.00  0.00     0.001 A 
HETATM   45  C   UNL     1      42.527 -10.710  -5.066  1.00  0.00     0.009 A 
ENDBRANCH  37  40
ENDBRANCH  32  33
ENDBRANCH   2  32
TORSDOF 10
ENDMDL
MODEL 2
REMARK VINA RESULT:      -8.9      1.964      2.531
REMARK  10 active torsions:
REMARK  status: ('A' for Active; 'I' for Inactive)
REMARK    1  A    between atoms: C_6  and  N_7 
REMARK    2  A    between atoms: C_6  and  C_29 
REMARK       I    between atoms: N_7  and  C_8 
REMARK    3  A    between atoms: N_7  and  C_23 
REMARK    4  A    between atoms: C_8  and  C_9 
REMARK    5  A    between atoms: C_9  and  N_10 
REMARK    6  A    between atoms: C_14  and  C_15 
REMARK    7  A    between atoms: C_23  and  C_24 
REMARK       I    between atoms: C_29  and  N_30 
REMARK    8  A    between atoms: N_30  and  C_31 
REMARK    9  A    between atoms: C_32  and  O_33 
REMARK   10  A    between atoms: C_36  and  O_37 
ROOT
HETATM    1  N   UNL     1      40.868 -14.109   2.081  1.00  0.00    -0.326 N 
HETATM    2  C   UNL     1      41.314 -14.309   0.763  1.00  0.00     0.239 C 
HETATM    3  O   UNL     1      42.095 -15.212   0.477  1.00  0.00    -0.271 OA
ENDROOT
BRANCH   1   4
HETATM    4  C   UNL     1      41.751 -14.452   3.253  1.00  0.00     0.120 C 
HETATM    5  C   UNL     1      43.087 -13.682   3.239  1.00  0.00     0.069 C 
HETATM    6  C   UNL     1      43.972 -14.026   4.433  1.00  0.00     0.237 C 
HETATM    7  N   UNL     1      43.244 -13.776   5.721  1.00  0.00    -0.075 N 
HETATM    8  C   UNL     1      44.119 -14.077   6.913  1.00  0.00     0.269 C 
HETATM    9  H   UNL     1      43.027 -12.769   5.772  1.00  0.00     0.279 HD
HETATM   10  C   UNL     1      41.925 -14.509   5.815  1.00  0.00     0.237 C 
HETATM   11  C   UNL     1      41.059 -14.124   4.621  1.00  0.00     0.069 C 
BRANCH   4  12
HETATM   12  C   UNL     1      41.905 -16.017   3.259  1.00  0.00     0.251 C 
HETATM   13  N   UNL     1      43.158 -16.519   2.986  1.00  0.00    -0.323 N 
HETATM   14  H   UNL     1      43.954 -15.909   2.840  1.00  0.00     0.169 HD
HETATM   15  O   UNL     1      40.918 -16.716   3.485  1.00  0.00    -0.270 OA
BRANCH  13  16
HETATM   16  C   UNL     1      43.527 -17.887   2.931  1.00  0.00     0.068 A 
HETATM   17  C   UNL     1      43.973 -18.474   4.134  1.00  0.00     0.097 A 
HETATM   18  C   UNL     1      44.336 -19.829   4.162  1.00  0.00     0.075 A 
HETATM   19  C   UNL     1      44.261 -20.597   2.998  1.00  0.00     0.070 A 
HETATM   20  C   UNL     1      43.845 -20.003   1.809  1.00  0.00     0.039 A 
HETATM   21  C   UNL     1      43.475 -18.659   1.771  1.00  0.00     0.035 A 
BRANCH  17  22
HETATM   22  O   UNL     1      43.980 -17.629   5.224  1.00  0.00    -0.354 OA
HETATM   23  C   UNL     1      44.942 -17.902   6.240  1.00  0.00     0.210 C 
ENDBRANCH  17  22
BRANCH  19  24
HETATM   24  O   UNL     1      44.573 -21.923   2.885  1.00  0.00    -0.356 OA
HETATM   25  C   UNL     1      44.722 -22.664   4.088  1.00  0.00     0.210 C 
ENDBRANCH  19  24
ENDBRANCH  13  16
ENDBRANCH   4  12
ENDBRANCH   1   4
BRANCH   1  26
HETATM   26  C   UNL     1      39.408 -14.166   2.239  1.00  0.00     0.192 C 
BRANCH  26  27
HETATM   27  C   UNL     1      38.755 -12.839   2.223  1.00  0.00     0.070 A 
HETATM   28  O   UNL     1      37.793 -12.699   1.263  1.00  0.00    -0.325 OA
HETATM   29  C   UNL     1      37.300 -11.441   1.366  1.00  0.00     0.142 A 
HETATM   30  C   UNL     1      37.927 -10.765   2.385  1.00  0.00     0.027 A 
HETATM   31  C   UNL     1      38.871 -11.664   2.938  1.00  0.00     0.036 A 
ENDBRANCH  26  27
ENDBRANCH   1  26
BRANCH   2  32
HETATM   32  C   UNL     1      40.824 -13.231  -0.232  1.00  0.00     0.228 C 
BRANCH  32  33
HETATM   33  N   UNL     1      40.471 -13.727  -1.550  1.00  0.00    -0.347 N 
HETATM   34  C   UNL     1      41.116 -13.473  -2.756  1.00  0.00     0.171 C 
HETATM   35  S   UNL     1      42.466 -12.562  -3.041  1.00  0.00    -0.041 SA
HETATM   36  N   UNL     1      40.405 -14.110  -3.762  1.00  0.00    -0.357 N 
HETATM   37  C   UNL     1      39.187 -14.713  -3.262  1.00  0.00     0.135 C 
HETATM   38  H   UNL     1      40.612 -13.966  -4.742  1.00  0.00     0.162 HD
HETATM   39  C   UNL     1      39.391 -14.682  -1.738  1.00  0.00     0.155 C 
BRANCH  37  40
HETATM   40  C   UNL     1      37.940 -13.966  -3.692  1.00  0.00    -0.034 A 
HETATM   41  C   UNL     1      36.875 -14.676  -4.270  1.00  0.00     0.009 A 
HETATM   42  C   UNL     1      35.694 -14.024  -4.634  1.00  0.00     0.001 A 
HETATM   43  C   UNL     1      35.559 -12.654  -4.424  1.00  0.00     0.000 A 
HETATM   44  C   UNL     1      36.603 -11.934  -3.850  1.00  0.00     0.001 A 
HETATM   45  C   UNL     1      37.783 -12.585  -3.484  1.00  0.00     0.009 A 
ENDBRANCH  37  40
ENDBRANCH  32  33
ENDBRANCH   2  32
TORSDOF 10
ENDMDL
MODEL 3
REMARK VINA RESULT:      -8.8      1.966      3.154
REMARK  10 active torsions:
REMARK  status: ('A' for Active; 'I' for Inactive)
REMARK    1  A    between atoms: C_6  and  N_7 
REMARK    2  A    between atoms: C_6  and  C_29 
REMARK       I    between atoms: N_7  and  C_8 
REMARK    3  A    between atoms: N_7  and  C_23 
REMARK    4  A    between atoms: C_8  and  C_9 
REMARK    5  A    between atoms: C_9  and  N_10 
REMARK    6  A    between atoms: C_14  and  C_15 
REMARK    7  A    between atoms: C_23  and  C_24 
REMARK       I    between atoms: C_29  and  N_30 
REMARK    8  A    between atoms: N_30  and  C_31 
REMARK    9  A    between atoms: C_32  and  O_33 
REMARK   10  A    between atoms: C_36  and  O_37 
ROOT
HETATM    1  N   UNL     1      40.360 -14.564   0.735  1.00  0.00    -0.326 N 
HETATM    2  C   UNL     1      39.566 -13.464   0.370  1.00  0.00     0.239 C 
HETATM    3  O   UNL     1      39.799 -12.332   0.788  1.00  0.00    -0.271 OA
ENDROOT
BRANCH   1   4
HETATM    4  C   UNL     1      41.035 -14.613   2.081  1.00  0.00     0.120 C 
HETATM    5  C   UNL     1      42.254 -13.673   2.172  1.00  0.00     0.069 C 
HETATM    6  C   UNL     1      42.927 -13.719   3.541  1.00  0.00     0.237 C 
HETATM    7  N   UNL     1      41.942 -13.398   4.626  1.00  0.00    -0.075 N 
HETATM    8  C   UNL     1      42.602 -13.404   5.983  1.00  0.00     0.269 C 
HETATM    9  H   UNL     1      41.608 -12.434   4.475  1.00  0.00     0.279 HD
HETATM   10  C   UNL     1      40.721 -14.290   4.610  1.00  0.00     0.237 C 
HETATM   11  C   UNL     1      40.062 -14.200   3.238  1.00  0.00     0.069 C 
BRANCH   4  12
HETATM   12  C   UNL     1      41.362 -16.125   2.367  1.00  0.00     0.251 C 
HETATM   13  N   UNL     1      42.692 -16.466   2.463  1.00  0.00    -0.323 N 
HETATM   14  H   UNL     1      43.424 -15.768   2.404  1.00  0.00     0.169 HD
HETATM   15  O   UNL     1      40.436 -16.928   2.475  1.00  0.00    -0.270 OA
BRANCH  13  16
HETATM   16  C   UNL     1      43.218 -17.760   2.708  1.00  0.00     0.068 A 
HETATM   17  C   UNL     1      43.691 -18.018   4.012  1.00  0.00     0.097 A 
HETATM   18  C   UNL     1      44.206 -19.283   4.334  1.00  0.00     0.075 A 
HETATM   19  C   UNL     1      44.255 -20.286   3.364  1.00  0.00     0.070 A 
HETATM   20  C   UNL     1      43.811 -20.015   2.072  1.00  0.00     0.039 A 
HETATM   21  C   UNL     1      43.291 -18.763   1.742  1.00  0.00     0.035 A 
BRANCH  17  22
HETATM   22  O   UNL     1      43.566 -16.964   4.893  1.00  0.00    -0.354 OA
HETATM   23  C   UNL     1      42.742 -17.180   6.036  1.00  0.00     0.210 C 
ENDBRANCH  17  22
BRANCH  19  24
HETATM   24  O   UNL     1      44.721 -21.559   3.543  1.00  0.00    -0.356 OA
HETATM   25  C   UNL     1      44.740 -22.068   4.869  1.00  0.00     0.210 C 
ENDBRANCH  19  24
ENDBRANCH  13  16
ENDBRANCH   4  12
ENDBRANCH   1   4
BRANCH   1  26
HETATM   26  C   UNL     1      40.967 -15.272  -0.401  1.00  0.00     0.192 C 
BRANCH  26  27
HETATM   27  C   UNL     1      41.558 -14.373  -1.417  1.00  0.00     0.070 A 
HETATM   28  O   UNL     1      41.220 -14.683  -2.704  1.00  0.00    -0.325 OA
HETATM   29  C   UNL     1      41.839 -13.787  -3.510  1.00  0.00     0.142 A 
HETATM   30  C   UNL     1      42.571 -12.897  -2.761  1.00  0.00     0.027 A 
HETATM   31  C   UNL     1      42.394 -13.275  -1.408  1.00  0.00     0.036 A 
ENDBRANCH  26  27
ENDBRANCH   1  26
BRANCH   2  32
HETATM   32  C   UNL     1      38.336 -13.840  -0.489  1.00  0.00     0.228 C 
BRANCH  32  33
HETATM   33  N   UNL     1      38.193 -13.084  -1.721  1.00  0.00    -0.347 N 
HETATM   34  C   UNL     1      38.019 -13.580  -3.009  1.00  0.00     0.171 C 
HETATM   35  S   UNL     1      37.905 -15.151  -3.511  1.00  0.00    -0.041 SA
HETATM   36  N   UNL     1      37.980 -12.501  -3.879  1.00  0.00    -0.357 N 
HETATM   37  C   UNL     1      38.249 -11.251  -3.199  1.00  0.00     0.135 C 
HETATM   38  H   UNL     1      37.985 -12.619  -4.884  1.00  0.00     0.162 HD
HETATM   39  C   UNL     1      38.115 -11.632  -1.716  1.00  0.00     0.155 C 
BRANCH  37  40
HETATM   40  C   UNL     1      39.616 -10.684  -3.529  1.00  0.00    -0.034 A 
HETATM   41  C   UNL     1      40.126 -10.821  -4.830  1.00  0.00     0.009 A 
HETATM   42  C   UNL     1      41.361 -10.268  -5.177  1.00  0.00     0.001 A 
HETATM   43  C   UNL     1      42.105  -9.570  -4.230  1.00  0.00     0.000 A 
HETATM   44  C   UNL     1      41.615  -9.422  -2.935  1.00  0.00     0.001 A 
HETATM   45  C   UNL     1      40.379  -9.972  -2.587  1.00  0.00     0.009 A 
ENDBRANCH  37  40
ENDBRANCH  32  33
ENDBRANCH   2  32
TORSDOF 10
ENDMDL
MODEL 4
REMARK VINA RESULT:      -8.8      2.468      3.580
REMARK  10 active torsions:
REMARK  status: ('A' for Active; 'I' for Inactive)
REMARK    1  A    between atoms: C_6  and  N_7 
REMARK    2  A    between atoms: C_6  and  C_29 
REMARK       I    between atoms: N_7  and  C_8 
REMARK    3  A    between atoms: N_7  and  C_23 
REMARK    4  A    between atoms: C_8  and  C_9 
REMARK    5  A    between atoms: C_9  and  N_10 
REMARK    6  A    between atoms: C_14  and  C_15 
REMARK    7  A    between atoms: C_23  and  C_24 
REMARK       I    between atoms: C_29  and  N_30 
REMARK    8  A    between atoms: N_30  and  C_31 
REMARK    9  A    between atoms: C_32  and  O_33 
REMARK   10  A    between atoms: C_36  and  O_37 
ROOT
HETATM    1  N   UNL     1      40.476 -12.841   3.038  1.00  0.00    -0.326 N 
HETATM    2  C   UNL     1      41.596 -12.701   2.202  1.00  0.00     0.239 C 
HETATM    3  O   UNL     1      42.726 -12.995   2.583  1.00  0.00    -0.271 OA
ENDROOT
BRANCH   1   4
HETATM    4  C   UNL     1      40.603 -12.675   4.530  1.00  0.00     0.120 C 
HETATM    5  C   UNL     1      41.559 -11.532   4.925  1.00  0.00     0.069 C 
HETATM    6  C   UNL     1      41.677 -11.363   6.437  1.00  0.00     0.237 C 
HETATM    7  N   UNL     1      40.325 -11.143   7.051  1.00  0.00    -0.075 N 
HETATM    8  C   UNL     1      40.428 -10.937   8.542  1.00  0.00     0.269 C 
HETATM    9  H   UNL     1      39.942 -10.265   6.666  1.00  0.00     0.279 HD
HETATM   10  C   UNL     1      39.332 -12.233   6.718  1.00  0.00     0.237 C 
HETATM   11  C   UNL     1      39.223 -12.358   5.202  1.00  0.00     0.069 C 
BRANCH   4  12
HETATM   12  C   UNL     1      41.003 -14.082   5.108  1.00  0.00     0.251 C 
HETATM   13  N   UNL     1      42.319 -14.462   4.963  1.00  0.00    -0.323 N 
HETATM   14  H   UNL     1      43.007 -13.843   4.551  1.00  0.00     0.169 HD
HETATM   15  O   UNL     1      40.140 -14.780   5.639  1.00  0.00    -0.270 OA
BRANCH  13  16
HETATM   16  C   UNL     1      42.900 -15.681   5.398  1.00  0.00     0.068 A 
HETATM   17  C   UNL     1      42.945 -16.734   4.459  1.00  0.00     0.097 A 
HETATM   18  C   UNL     1      43.524 -17.963   4.811  1.00  0.00     0.075 A 
HETATM   19  C   UNL     1      44.052 -18.146   6.090  1.00  0.00     0.070 A 
HETATM   20  C   UNL     1      43.980 -17.110   7.019  1.00  0.00     0.039 A 
HETATM   21  C   UNL     1      43.412 -15.883   6.679  1.00  0.00     0.035 A 
BRANCH  17  22
HETATM   22  O   UNL     1      42.421 -16.429   3.221  1.00  0.00    -0.354 OA
HETATM   23  C   UNL     1      42.146 -17.528   2.355  1.00  0.00     0.210 C 
ENDBRANCH  17  22
BRANCH  19  24
HETATM   24  O   UNL     1      44.650 -19.282   6.561  1.00  0.00    -0.356 OA
HETATM   25  C   UNL     1      43.838 -20.440   6.695  1.00  0.00     0.210 C 
ENDBRANCH  19  24
ENDBRANCH  13  16
ENDBRANCH   4  12
ENDBRANCH   1   4
BRANCH   1  26
HETATM   26  C   UNL     1      39.426 -13.716   2.498  1.00  0.00     0.192 C 
BRANCH  26  27
HETATM   27  C   UNL     1      38.364 -12.992   1.766  1.00  0.00     0.070 A 
HETATM   28  O   UNL     1      38.181 -11.702   2.176  1.00  0.00    -0.325 OA
HETATM   29  C   UNL     1      37.179 -11.179   1.427  1.00  0.00     0.142 A 
HETATM   30  C   UNL     1      36.714 -12.113   0.533  1.00  0.00     0.027 A 
HETATM   31  C   UNL     1      37.475 -13.287   0.752  1.00  0.00     0.036 A 
ENDBRANCH  26  27
ENDBRANCH   1  26
BRANCH   2  32
HETATM   32  C   UNL     1      41.278 -12.046   0.837  1.00  0.00     0.228 C 
BRANCH  32  33
HETATM   33  N   UNL     1      41.578 -12.866  -0.322  1.00  0.00    -0.347 N 
HETATM   34  C   UNL     1      42.269 -12.497  -1.472  1.00  0.00     0.171 C 
HETATM   35  S   UNL     1      42.962 -11.043  -1.845  1.00  0.00    -0.041 SA
HETATM   36  N   UNL     1      42.273 -13.583  -2.334  1.00  0.00    -0.357 N 
HETATM   37  C   UNL     1      41.473 -14.677  -1.826  1.00  0.00     0.135 C 
HETATM   38  H   UNL     1      42.609 -13.513  -3.286  1.00  0.00     0.162 HD
HETATM   39  C   UNL     1      41.245 -14.281  -0.358  1.00  0.00     0.155 C 
BRANCH  37  40
HETATM   40  C   UNL     1      40.172 -14.858  -2.584  1.00  0.00    -0.034 A 
HETATM   41  C   UNL     1      40.032 -15.940  -3.467  1.00  0.00     0.009 A 
HETATM   42  C   UNL     1      38.830 -16.161  -4.144  1.00  0.00     0.001 A 
HETATM   43  C   UNL     1      37.750 -15.305  -3.947  1.00  0.00     0.000 A 
HETATM   44  C   UNL     1      37.869 -14.228  -3.073  1.00  0.00     0.001 A 
HETATM   45  C   UNL     1      39.070 -14.007  -2.394  1.00  0.00     0.009 A 
ENDBRANCH  37  40
ENDBRANCH  32  33
ENDBRANCH   2  32
TORSDOF 10
ENDMDL
MODEL 5
REMARK VINA RESULT:      -8.3      2.402      3.640
REMARK  10 active torsions:
REMARK  status: ('A' for Active; 'I' for Inactive)
REMARK    1  A    between atoms: C_6  and  N_7 
REMARK    2  A    between atoms: C_6  and  C_29 
REMARK       I    between atoms: N_7  and  C_8 
REMARK    3  A    between atoms: N_7  and  C_23 
REMARK    4  A    between atoms: C_8  and  C_9 
REMARK    5  A    between atoms: C_9  and  N_10 
REMARK    6  A    between atoms: C_14  and  C_15 
REMARK    7  A    between atoms: C_23  and  C_24 
REMARK       I    between atoms: C_29  and  N_30 
REMARK    8  A    between atoms: N_30  and  C_31 
REMARK    9  A    between atoms: C_32  and  O_33 
REMARK   10  A    between atoms: C_36  and  O_37 
ROOT
HETATM    1  N   UNL     1      40.558 -14.409   1.097  1.00  0.00    -0.326 N 
HETATM    2  C   UNL     1      39.705 -13.315   0.873  1.00  0.00     0.239 C 
HETATM    3  O   UNL     1      39.930 -12.210   1.358  1.00  0.00    -0.271 OA
ENDROOT
BRANCH   1   4
HETATM    4  C   UNL     1      41.328 -14.532   2.387  1.00  0.00     0.120 C 
HETATM    5  C   UNL     1      42.607 -13.671   2.403  1.00  0.00     0.069 C 
HETATM    6  C   UNL     1      43.377 -13.791   3.714  1.00  0.00     0.237 C 
HETATM    7  N   UNL     1      42.499 -13.436   4.878  1.00  0.00    -0.075 N 
HETATM    8  C   UNL     1      43.257 -13.515   6.181  1.00  0.00     0.269 C 
HETATM    9  H   UNL     1      42.215 -12.450   4.771  1.00  0.00     0.279 HD
HETATM   10  C   UNL     1      41.226 -14.250   4.938  1.00  0.00     0.237 C 
HETATM   11  C   UNL     1      40.472 -14.087   3.623  1.00  0.00     0.069 C 
BRANCH   4  12
HETATM   12  C   UNL     1      41.578 -16.067   2.618  1.00  0.00     0.251 C 
HETATM   13  N   UNL     1      42.889 -16.487   2.638  1.00  0.00    -0.323 N 
HETATM   14  H   UNL     1      43.658 -15.831   2.559  1.00  0.00     0.169 HD
HETATM   15  O   UNL     1      40.613 -16.818   2.754  1.00  0.00    -0.270 OA
BRANCH  13  16
HETATM   16  C   UNL     1      43.349 -17.816   2.823  1.00  0.00     0.068 A 
HETATM   17  C   UNL     1      43.819 -18.152   4.111  1.00  0.00     0.097 A 
HETATM   18  C   UNL     1      44.271 -19.454   4.375  1.00  0.00     0.075 A 
HETATM   19  C   UNL     1      44.260 -20.417   3.363  1.00  0.00     0.070 A 
HETATM   20  C   UNL     1      43.819 -20.069   2.088  1.00  0.00     0.039 A 
HETATM   21  C   UNL     1      43.362 -18.780   1.816  1.00  0.00     0.035 A 
BRANCH  17  22
HETATM   22  O   UNL     1      43.756 -17.131   5.036  1.00  0.00    -0.354 OA
HETATM   23  C   UNL     1      43.076 -17.414   6.256  1.00  0.00     0.210 C 
ENDBRANCH  17  22
BRANCH  19  24
HETATM   24  O   UNL     1      44.661 -21.718   3.485  1.00  0.00    -0.356 OA
HETATM   25  C   UNL     1      44.947 -22.195   4.792  1.00  0.00     0.210 C 
ENDBRANCH  19  24
ENDBRANCH  13  16
ENDBRANCH   4  12
ENDBRANCH   1   4
BRANCH   1  26
HETATM   26  C   UNL     1      41.106 -15.009  -0.128  1.00  0.00     0.192 C 
BRANCH  26  27
HETATM   27  C   UNL     1      41.677 -14.021  -1.070  1.00  0.00     0.070 A 
HETATM   28  O   UNL     1      41.534 -14.355  -2.387  1.00  0.00    -0.325 OA
HETATM   29  C   UNL     1      42.110 -13.370  -3.118  1.00  0.00     0.142 A 
HETATM   30  C   UNL     1      42.620 -12.399  -2.291  1.00  0.00     0.027 A 
HETATM   31  C   UNL     1      42.346 -12.818  -0.967  1.00  0.00     0.036 A 
ENDBRANCH  26  27
ENDBRANCH   1  26
BRANCH   2  32
HETATM   32  C   UNL     1      38.430 -13.673   0.073  1.00  0.00     0.228 C 
BRANCH  32  33
HETATM   33  N   UNL     1      37.994 -12.661  -0.873  1.00  0.00    -0.347 N 
HETATM   34  C   UNL     1      37.058 -11.653  -0.670  1.00  0.00     0.171 C 
HETATM   35  S   UNL     1      36.191 -11.299   0.693  1.00  0.00    -0.041 SA
HETATM   36  N   UNL     1      36.920 -10.953  -1.859  1.00  0.00    -0.357 N 
HETATM   37  C   UNL     1      37.682 -11.559  -2.932  1.00  0.00     0.135 C 
HETATM   38  H   UNL     1      36.203 -10.252  -1.992  1.00  0.00     0.162 HD
HETATM   39  C   UNL     1      38.607 -12.534  -2.185  1.00  0.00     0.155 C 
BRANCH  37  40
HETATM   40  C   UNL     1      36.807 -12.260  -3.952  1.00  0.00    -0.034 A 
HETATM   41  C   UNL     1      36.089 -11.496  -4.888  1.00  0.00     0.009 A 
HETATM   42  C   UNL     1      35.312 -12.114  -5.871  1.00  0.00     0.001 A 
HETATM   43  C   UNL     1      35.242 -13.503  -5.935  1.00  0.00     0.000 A 
HETATM   44  C   UNL     1      35.948 -14.276  -5.018  1.00  0.00     0.001 A 
HETATM   45  C   UNL     1      36.727 -13.660  -4.036  1.00  0.00     0.009 A 
ENDBRANCH  37  40
ENDBRANCH  32  33
ENDBRANCH   2  32
TORSDOF 10
ENDMDL
MODEL 6
REMARK VINA RESULT:      -8.3      2.612      9.420
REMARK  10 active torsions:
REMARK  status: ('A' for Active; 'I' for Inactive)
REMARK    1  A    between atoms: C_6  and  N_7 
REMARK    2  A    between atoms: C_6  and  C_29 
REMARK       I    between atoms: N_7  and  C_8 
REMARK    3  A    between atoms: N_7  and  C_23 
REMARK    4  A    between atoms: C_8  and  C_9 
REMARK    5  A    between atoms: C_9  and  N_10 
REMARK    6  A    between atoms: C_14  and  C_15 
REMARK    7  A    between atoms: C_23  and  C_24 
REMARK       I    between atoms: C_29  and  N_30 
REMARK    8  A    between atoms: N_30  and  C_31 
REMARK    9  A    between atoms: C_32  and  O_33 
REMARK   10  A    between atoms: C_36  and  O_37 
ROOT
HETATM    1  N   UNL     1      41.330 -13.540   2.377  1.00  0.00    -0.326 N 
HETATM    2  C   UNL     1      41.938 -14.634   3.016  1.00  0.00     0.239 C 
HETATM    3  O   UNL     1      42.743 -15.356   2.433  1.00  0.00    -0.271 OA
ENDROOT
BRANCH   1   4
HETATM    4  C   UNL     1      41.057 -13.568   0.895  1.00  0.00     0.120 C 
HETATM    5  C   UNL     1      41.928 -12.569   0.109  1.00  0.00     0.069 C 
HETATM    6  C   UNL     1      41.654 -12.609  -1.392  1.00  0.00     0.237 C 
HETATM    7  N   UNL     1      41.847 -13.997  -1.928  1.00  0.00    -0.075 N 
HETATM    8  C   UNL     1      41.616 -14.046  -3.418  1.00  0.00     0.269 C 
HETATM    9  H   UNL     1      42.835 -14.258  -1.782  1.00  0.00     0.279 HD
HETATM   10  C   UNL     1      41.014 -15.036  -1.212  1.00  0.00     0.237 C 
HETATM   11  C   UNL     1      41.330 -14.984   0.278  1.00  0.00     0.069 C 
BRANCH   4  12
HETATM   12  C   UNL     1      39.509 -13.358   0.718  1.00  0.00     0.251 C 
HETATM   13  N   UNL     1      39.100 -12.136   0.232  1.00  0.00    -0.323 N 
HETATM   14  H   UNL     1      39.766 -11.426  -0.047  1.00  0.00     0.169 HD
HETATM   15  O   UNL     1      38.740 -14.267   1.028  1.00  0.00    -0.270 OA
BRANCH  13  16
HETATM   16  C   UNL     1      37.763 -11.723  -0.001  1.00  0.00     0.068 A 
HETATM   17  C   UNL     1      37.386 -11.519  -1.346  1.00  0.00     0.097 A 
HETATM   18  C   UNL     1      36.074 -11.130  -1.655  1.00  0.00     0.075 A 
HETATM   19  C   UNL     1      35.141 -10.941  -0.634  1.00  0.00     0.070 A 
HETATM   20  C   UNL     1      35.529 -11.119   0.693  1.00  0.00     0.039 A 
HETATM   21  C   UNL     1      36.828 -11.512   1.012  1.00  0.00     0.035 A 
BRANCH  17  22
HETATM   22  O   UNL     1      38.380 -11.763  -2.270  1.00  0.00    -0.354 OA
HETATM   23  C   UNL     1      38.137 -12.806  -3.211  1.00  0.00     0.210 C 
ENDBRANCH  17  22
BRANCH  19  24
HETATM   24  O   UNL     1      33.834 -10.573  -0.793  1.00  0.00    -0.356 OA
HETATM   25  C   UNL     1      33.368  -9.467  -0.032  1.00  0.00     0.210 C 
ENDBRANCH  19  24
ENDBRANCH  13  16
ENDBRANCH   4  12
ENDBRANCH   1   4
BRANCH   1  26
HETATM   26  C   UNL     1      41.560 -12.249   3.041  1.00  0.00     0.192 C 
BRANCH  26  27
HETATM   27  C   UNL     1      40.315 -11.545   3.420  1.00  0.00     0.070 A 
HETATM   28  O   UNL     1      40.127 -10.354   2.779  1.00  0.00    -0.325 OA
HETATM   29  C   UNL     1      38.964  -9.829   3.234  1.00  0.00     0.142 A 
HETATM   30  C   UNL     1      38.393 -10.668   4.160  1.00  0.00     0.027 A 
HETATM   31  C   UNL     1      39.265 -11.776   4.286  1.00  0.00     0.036 A 
ENDBRANCH  26  27
ENDBRANCH   1  26
BRANCH   2  32
HETATM   32  C   UNL     1      41.411 -14.892   4.446  1.00  0.00     0.228 C 
BRANCH  32  33
HETATM   33  N   UNL     1      42.077 -15.966   5.162  1.00  0.00    -0.347 N 
HETATM   34  C   UNL     1      43.180 -15.872   6.004  1.00  0.00     0.171 C 
HETATM   35  S   UNL     1      44.036 -14.530   6.450  1.00  0.00    -0.041 SA
HETATM   36  N   UNL     1      43.504 -17.153   6.425  1.00  0.00    -0.357 N 
HETATM   37  C   UNL     1      42.690 -18.157   5.773  1.00  0.00     0.135 C 
HETATM   38  H   UNL     1      44.349 -17.351   6.946  1.00  0.00     0.162 HD
HETATM   39  C   UNL     1      41.561 -17.325   5.144  1.00  0.00     0.155 C 
BRANCH  37  40
HETATM   40  C   UNL     1      43.459 -18.961   4.743  1.00  0.00    -0.034 A 
HETATM   41  C   UNL     1      44.400 -19.911   5.170  1.00  0.00     0.009 A 
HETATM   42  C   UNL     1      45.090 -20.701   4.247  1.00  0.00     0.001 A 
HETATM   43  C   UNL     1      44.848 -20.554   2.884  1.00  0.00     0.000 A 
HETATM   44  C   UNL     1      43.917 -19.619   2.442  1.00  0.00     0.001 A 
HETATM   45  C   UNL     1      43.225 -18.830   3.363  1.00  0.00     0.009 A 
ENDBRANCH  37  40
ENDBRANCH  32  33
ENDBRANCH   2  32
TORSDOF 10
ENDMDL
MODEL 7
REMARK VINA RESULT:      -8.2      3.224      8.408
REMARK  10 active torsions:
REMARK  status: ('A' for Active; 'I' for Inactive)
REMARK    1  A    between atoms: C_6  and  N_7 
REMARK    2  A    between atoms: C_6  and  C_29 
REMARK       I    between atoms: N_7  and  C_8 
REMARK    3  A    between atoms: N_7  and  C_23 
REMARK    4  A    between atoms: C_8  and  C_9 
REMARK    5  A    between atoms: C_9  and  N_10 
REMARK    6  A    between atoms: C_14  and  C_15 
REMARK    7  A    between atoms: C_23  and  C_24 
REMARK       I    between atoms: C_29  and  N_30 
REMARK    8  A    between atoms: N_30  and  C_31 
REMARK    9  A    between atoms: C_32  and  O_33 
REMARK   10  A    between atoms: C_36  and  O_37 
ROOT
HETATM    1  N   UNL     1      39.919 -13.229  -0.224  1.00  0.00    -0.326 N 
HETATM    2  C   UNL     1      39.783 -14.447   0.463  1.00  0.00     0.239 C 
HETATM    3  O   UNL     1      38.744 -14.747   1.045  1.00  0.00    -0.271 OA
ENDROOT
BRANCH   1   4
HETATM    4  C   UNL     1      39.184 -11.998   0.238  1.00  0.00     0.120 C 
HETATM    5  C   UNL     1      39.276 -10.834  -0.769  1.00  0.00     0.069 C 
HETATM    6  C   UNL     1      38.520  -9.594  -0.301  1.00  0.00     0.237 C 
HETATM    7  N   UNL     1      37.084  -9.924  -0.021  1.00  0.00    -0.075 N 
HETATM    8  C   UNL     1      36.314  -8.699   0.408  1.00  0.00     0.269 C 
HETATM    9  H   UNL     1      36.653 -10.238  -0.904  1.00  0.00     0.279 HD
HETATM   10  C   UNL     1      36.911 -11.051   0.972  1.00  0.00     0.237 C 
HETATM   11  C   UNL     1      37.657 -12.279   0.461  1.00  0.00     0.069 C 
BRANCH   4  12
HETATM   12  C   UNL     1      39.730 -11.657   1.673  1.00  0.00     0.251 C 
HETATM   13  N   UNL     1      38.961 -12.057   2.742  1.00  0.00    -0.323 N 
HETATM   14  H   UNL     1      38.110 -12.591   2.613  1.00  0.00     0.169 HD
HETATM   15  O   UNL     1      40.793 -11.045   1.780  1.00  0.00    -0.270 OA
BRANCH  13  16
HETATM   16  C   UNL     1      39.251 -11.853   4.116  1.00  0.00     0.068 A 
HETATM   17  C   UNL     1      38.932 -10.588   4.652  1.00  0.00     0.097 A 
HETATM   18  C   UNL     1      39.170 -10.320   6.008  1.00  0.00     0.075 A 
HETATM   19  C   UNL     1      39.728 -11.303   6.828  1.00  0.00     0.070 A 
HETATM   20  C   UNL     1      40.064 -12.541   6.284  1.00  0.00     0.039 A 
HETATM   21  C   UNL     1      39.826 -12.821   4.939  1.00  0.00     0.035 A 
BRANCH  17  22
HETATM   22  O   UNL     1      38.360  -9.707   3.758  1.00  0.00    -0.354 OA
HETATM   23  C   UNL     1      39.043  -8.472   3.552  1.00  0.00     0.210 C 
ENDBRANCH  17  22
BRANCH  19  24
HETATM   24  O   UNL     1      40.004 -11.181   8.161  1.00  0.00    -0.356 OA
HETATM   25  C   UNL     1      39.940  -9.878   8.725  1.00  0.00     0.210 C 
ENDBRANCH  19  24
ENDBRANCH  13  16
ENDBRANCH   4  12
ENDBRANCH   1   4
BRANCH   1  26
HETATM   26  C   UNL     1      40.257 -13.374  -1.647  1.00  0.00     0.192 C 
BRANCH  26  27
HETATM   27  C   UNL     1      39.261 -14.150  -2.419  1.00  0.00     0.070 A 
HETATM   28  O   UNL     1      39.794 -15.169  -3.156  1.00  0.00    -0.325 OA
HETATM   29  C   UNL     1      38.772 -15.774  -3.807  1.00  0.00     0.142 A 
HETATM   30  C   UNL     1      37.581 -15.162  -3.498  1.00  0.00     0.027 A 
HETATM   31  C   UNL     1      37.894 -14.110  -2.604  1.00  0.00     0.036 A 
ENDBRANCH  26  27
ENDBRANCH   1  26
BRANCH   2  32
HETATM   32  C   UNL     1      41.081 -15.287   0.508  1.00  0.00     0.228 C 
BRANCH  32  33
HETATM   33  N   UNL     1      41.414 -15.834   1.810  1.00  0.00    -0.347 N 
HETATM   34  C   UNL     1      42.157 -15.235   2.822  1.00  0.00     0.171 C 
HETATM   35  S   UNL     1      42.855 -13.736   2.849  1.00  0.00    -0.041 SA
HETATM   36  N   UNL     1      42.265 -16.141   3.866  1.00  0.00    -0.357 N 
HETATM   37  C   UNL     1      41.691 -17.426   3.525  1.00  0.00     0.135 C 
HETATM   38  H   UNL     1      42.867 -15.976   4.662  1.00  0.00     0.162 HD
HETATM   39  C   UNL     1      40.885 -17.114   2.254  1.00  0.00     0.155 C 
BRANCH  37  40
HETATM   40  C   UNL     1      42.739 -18.497   3.296  1.00  0.00    -0.034 A 
HETATM   41  C   UNL     1      43.634 -18.821   4.330  1.00  0.00     0.009 A 
HETATM   42  C   UNL     1      44.579 -19.836   4.166  1.00  0.00     0.001 A 
HETATM   43  C   UNL     1      44.644 -20.544   2.969  1.00  0.00     0.000 A 
HETATM   44  C   UNL     1      43.764 -20.239   1.935  1.00  0.00     0.001 A 
HETATM   45  C   UNL     1      42.817 -19.226   2.097  1.00  0.00     0.009 A 
ENDBRANCH  37  40
ENDBRANCH  32  33
ENDBRANCH   2  32
TORSDOF 10
ENDMDL
MODEL 8
REMARK VINA RESULT:      -8.2      2.739      8.935
REMARK  10 active torsions:
REMARK  status: ('A' for Active; 'I' for Inactive)
REMARK    1  A    between atoms: C_6  and  N_7 
REMARK    2  A    between atoms: C_6  and  C_29 
REMARK       I    between atoms: N_7  and  C_8 
REMARK    3  A    between atoms: N_7  and  C_23 
REMARK    4  A    between atoms: C_8  and  C_9 
REMARK    5  A    between atoms: C_9  and  N_10 
REMARK    6  A    between atoms: C_14  and  C_15 
REMARK    7  A    between atoms: C_23  and  C_24 
REMARK       I    between atoms: C_29  and  N_30 
REMARK    8  A    between atoms: N_30  and  C_31 
REMARK    9  A    between atoms: C_32  and  O_33 
REMARK   10  A    between atoms: C_36  and  O_37 
ROOT
HETATM    1  N   UNL     1      41.642 -13.974   4.013  1.00  0.00    -0.326 N 
HETATM    2  C   UNL     1      41.073 -15.020   3.268  1.00  0.00     0.239 C 
HETATM    3  O   UNL     1      40.309 -14.804   2.331  1.00  0.00    -0.271 OA
ENDROOT
BRANCH   1   4
HETATM    4  C   UNL     1      40.902 -12.675   4.206  1.00  0.00     0.120 C 
HETATM    5  C   UNL     1      39.643 -12.831   5.083  1.00  0.00     0.069 C 
HETATM    6  C   UNL     1      38.903 -11.512   5.284  1.00  0.00     0.237 C 
HETATM    7  N   UNL     1      39.818 -10.476   5.870  1.00  0.00    -0.075 N 
HETATM    8  C   UNL     1      39.091  -9.176   6.110  1.00  0.00     0.269 C 
HETATM    9  H   UNL     1      40.120 -10.811   6.798  1.00  0.00     0.279 HD
HETATM   10  C   UNL     1      41.074 -10.258   5.057  1.00  0.00     0.237 C 
HETATM   11  C   UNL     1      41.798 -11.590   4.897  1.00  0.00     0.069 C 
BRANCH   4  12
HETATM   12  C   UNL     1      40.624 -12.096   2.771  1.00  0.00     0.251 C 
HETATM   13  N   UNL     1      41.724 -11.768   2.010  1.00  0.00    -0.323 N 
HETATM   14  H   UNL     1      42.667 -11.941   2.338  1.00  0.00     0.169 HD
HETATM   15  O   UNL     1      39.461 -11.946   2.400  1.00  0.00    -0.270 OA
BRANCH  13  16
HETATM   16  C   UNL     1      41.714 -11.228   0.698  1.00  0.00     0.068 A 
HETATM   17  C   UNL     1      41.914 -12.135  -0.364  1.00  0.00     0.097 A 
HETATM   18  C   UNL     1      41.896 -11.677  -1.690  1.00  0.00     0.075 A 
HETATM   19  C   UNL     1      41.686 -10.322  -1.960  1.00  0.00     0.070 A 
HETATM   20  C   UNL     1      41.517  -9.430  -0.904  1.00  0.00     0.039 A 
HETATM   21  C   UNL     1      41.526  -9.876   0.418  1.00  0.00     0.035 A 
BRANCH  17  22
HETATM   22  O   UNL     1      42.082 -13.449   0.019  1.00  0.00    -0.354 OA
HETATM   23  C   UNL     1      41.437 -14.437  -0.781  1.00  0.00     0.210 C 
ENDBRANCH  17  22
BRANCH  19  24
HETATM   24  O   UNL     1      41.636  -9.745  -3.198  1.00  0.00    -0.356 OA
HETATM   25  C   UNL     1      42.550 -10.218  -4.177  1.00  0.00     0.210 C 
ENDBRANCH  19  24
ENDBRANCH  13  16
ENDBRANCH   4  12
ENDBRANCH   1   4
BRANCH   1  26
HETATM   26  C   UNL     1      43.112 -13.972   4.026  1.00  0.00     0.192 C 
BRANCH  26  27
HETATM   27  C   UNL     1      43.695 -14.235   5.360  1.00  0.00     0.070 A 
HETATM   28  O   UNL     1      44.865 -13.572   5.601  1.00  0.00    -0.325 OA
HETATM   29  C   UNL     1      45.277 -13.919   6.845  1.00  0.00     0.142 A 
HETATM   30  C   UNL     1      44.386 -14.795   7.415  1.00  0.00     0.027 A 
HETATM   31  C   UNL     1      43.364 -15.004   6.457  1.00  0.00     0.036 A 
ENDBRANCH  26  27
ENDBRANCH   1  26
BRANCH   2  32
HETATM   32  C   UNL     1      41.407 -16.428   3.815  1.00  0.00     0.228 C 
BRANCH  32  33
HETATM   33  N   UNL     1      42.335 -17.197   3.005  1.00  0.00    -0.347 N 
HETATM   34  C   UNL     1      42.102 -17.782   1.765  1.00  0.00     0.171 C 
HETATM   35  S   UNL     1      40.727 -17.759   0.848  1.00  0.00    -0.041 SA
HETATM   36  N   UNL     1      43.253 -18.458   1.390  1.00  0.00    -0.357 N 
HETATM   37  C   UNL     1      44.253 -18.441   2.436  1.00  0.00     0.135 C 
HETATM   38  H   UNL     1      43.281 -19.065   0.580  1.00  0.00     0.162 HD
HETATM   39  C   UNL     1      43.726 -17.361   3.395  1.00  0.00     0.155 C 
BRANCH  37  40
HETATM   40  C   UNL     1      44.418 -19.786   3.115  1.00  0.00    -0.034 A 
HETATM   41  C   UNL     1      44.617 -19.838   4.505  1.00  0.00     0.009 A 
HETATM   42  C   UNL     1      44.725 -21.064   5.167  1.00  0.00     0.001 A 
HETATM   43  C   UNL     1      44.633 -22.255   4.451  1.00  0.00     0.000 A 
HETATM   44  C   UNL     1      44.433 -22.222   3.074  1.00  0.00     0.001 A 
HETATM   45  C   UNL     1      44.324 -20.998   2.411  1.00  0.00     0.009 A 
ENDBRANCH  37  40
ENDBRANCH  32  33
ENDBRANCH   2  32
TORSDOF 10
ENDMDL
MODEL 9
REMARK VINA RESULT:      -8.1      2.619      3.725
REMARK  10 active torsions:
REMARK  status: ('A' for Active; 'I' for Inactive)
REMARK    1  A    between atoms: C_6  and  N_7 
REMARK    2  A    between atoms: C_6  and  C_29 
REMARK       I    between atoms: N_7  and  C_8 
REMARK    3  A    between atoms: N_7  and  C_23 
REMARK    4  A    between atoms: C_8  and  C_9 
REMARK    5  A    between atoms: C_9  and  N_10 
REMARK    6  A    between atoms: C_14  and  C_15 
REMARK    7  A    between atoms: C_23  and  C_24 
REMARK       I    between atoms: C_29  and  N_30 
REMARK    8  A    between atoms: N_30  and  C_31 
REMARK    9  A    between atoms: C_32  and  O_33 
REMARK   10  A    between atoms: C_36  and  O_37 
ROOT
HETATM    1  N   UNL     1      41.450 -13.179   3.835  1.00  0.00    -0.326 N 
HETATM    2  C   UNL     1      40.295 -13.486   3.096  1.00  0.00     0.239 C 
HETATM    3  O   UNL     1      39.501 -14.346   3.468  1.00  0.00    -0.271 OA
ENDROOT
BRANCH   1   4
HETATM    4  C   UNL     1      42.143 -14.235   4.656  1.00  0.00     0.120 C 
HETATM    5  C   UNL     1      43.272 -13.663   5.535  1.00  0.00     0.069 C 
HETATM    6  C   UNL     1      43.963 -14.735   6.372  1.00  0.00     0.237 C 
HETATM    7  N   UNL     1      42.966 -15.468   7.221  1.00  0.00    -0.075 N 
HETATM    8  C   UNL     1      43.639 -16.508   8.083  1.00  0.00     0.269 C 
HETATM    9  H   UNL     1      42.543 -14.787   7.871  1.00  0.00     0.279 HD
HETATM   10  C   UNL     1      41.830 -16.071   6.426  1.00  0.00     0.237 C 
HETATM   11  C   UNL     1      41.149 -14.968   5.622  1.00  0.00     0.069 C 
BRANCH   4  12
HETATM   12  C   UNL     1      42.607 -15.354   3.653  1.00  0.00     0.251 C 
HETATM   13  N   UNL     1      42.419 -16.660   4.048  1.00  0.00    -0.323 N 
HETATM   14  H   UNL     1      41.957 -16.889   4.920  1.00  0.00     0.169 HD
HETATM   15  O   UNL     1      43.123 -15.026   2.585  1.00  0.00    -0.270 OA
BRANCH  13  16
HETATM   16  C   UNL     1      42.765 -17.823   3.314  1.00  0.00     0.068 A 
HETATM   17  C   UNL     1      43.584 -18.768   3.969  1.00  0.00     0.097 A 
HETATM   18  C   UNL     1      43.950 -19.953   3.314  1.00  0.00     0.075 A 
HETATM   19  C   UNL     1      43.508 -20.198   2.011  1.00  0.00     0.070 A 
HETATM   20  C   UNL     1      42.722 -19.248   1.363  1.00  0.00     0.039 A 
HETATM   21  C   UNL     1      42.347 -18.069   2.007  1.00  0.00     0.035 A 
BRANCH  17  22
HETATM   22  O   UNL     1      43.935 -18.434   5.260  1.00  0.00    -0.354 OA
HETATM   23  C   UNL     1      45.276 -18.719   5.652  1.00  0.00     0.210 C 
ENDBRANCH  17  22
BRANCH  19  24
HETATM   24  O   UNL     1      43.780 -21.308   1.263  1.00  0.00    -0.356 OA
HETATM   25  C   UNL     1      44.630 -22.292   1.837  1.00  0.00     0.210 C 
ENDBRANCH  19  24
ENDBRANCH  13  16
ENDBRANCH   4  12
ENDBRANCH   1   4
BRANCH   1  26
HETATM   26  C   UNL     1      41.546 -11.770   4.245  1.00  0.00     0.192 C 
BRANCH  26  27
HETATM   27  C   UNL     1      40.847 -11.471   5.514  1.00  0.00     0.070 A 
HETATM   28  O   UNL     1      41.622 -10.845   6.448  1.00  0.00    -0.325 OA
HETATM   29  C   UNL     1      40.853 -10.650   7.546  1.00  0.00     0.142 A 
HETATM   30  C   UNL     1      39.586 -11.138   7.334  1.00  0.00     0.027 A 
HETATM   31  C   UNL     1      39.580 -11.672   6.024  1.00  0.00     0.036 A 
ENDBRANCH  26  27
ENDBRANCH   1  26
BRANCH   2  32
HETATM   32  C   UNL     1      40.198 -12.734   1.748  1.00  0.00     0.228 C 
BRANCH  32  33
HETATM   33  N   UNL     1      40.786 -13.426   0.615  1.00  0.00    -0.347 N 
HETATM   34  C   UNL     1      41.752 -12.950  -0.266  1.00  0.00     0.171 C 
HETATM   35  S   UNL     1      42.521 -11.486  -0.273  1.00  0.00    -0.041 SA
HETATM   36  N   UNL     1      41.977 -13.930  -1.221  1.00  0.00    -0.357 N 
HETATM   37  C   UNL     1      41.071 -15.048  -1.070  1.00  0.00     0.135 C 
HETATM   38  H   UNL     1      42.548 -13.763  -2.040  1.00  0.00     0.162 HD
HETATM   39  C   UNL     1      40.471 -14.816   0.327  1.00  0.00     0.155 C 
BRANCH  37  40
HETATM   40  C   UNL     1      40.010 -15.098  -2.152  1.00  0.00    -0.034 A 
HETATM   41  C   UNL     1      40.131 -16.031  -3.195  1.00  0.00     0.009 A 
HETATM   42  C   UNL     1      39.146 -16.134  -4.181  1.00  0.00     0.001 A 
HETATM   43  C   UNL     1      38.026 -15.309  -4.138  1.00  0.00     0.000 A 
HETATM   44  C   UNL     1      37.888 -14.380  -3.110  1.00  0.00     0.001 A 
HETATM   45  C   UNL     1      38.870 -14.277  -2.123  1.00  0.00     0.009 A 
ENDBRANCH  37  40
ENDBRANCH  32  33
ENDBRANCH   2  32
TORSDOF 10
ENDMDL
MODEL 10
REMARK VINA RESULT:      -8.0      4.505      8.715
REMARK  10 active torsions:
REMARK  status: ('A' for Active; 'I' for Inactive)
REMARK    1  A    between atoms: C_6  and  N_7 
REMARK    2  A    between atoms: C_6  and  C_29 
REMARK       I    between atoms: N_7  and  C_8 
REMARK    3  A    between atoms: N_7  and  C_23 
REMARK    4  A    between atoms: C_8  and  C_9 
REMARK    5  A    between atoms: C_9  and  N_10 
REMARK    6  A    between atoms: C_14  and  C_15 
REMARK    7  A    between atoms: C_23  and  C_24 
REMARK       I    between atoms: C_29  and  N_30 
REMARK    8  A    between atoms: N_30  and  C_31 
REMARK    9  A    between atoms: C_32  and  O_33 
REMARK   10  A    between atoms: C_36  and  O_37 
ROOT
HETATM    1  N   UNL     1      41.572 -12.088   5.180  1.00  0.00    -0.326 N 
HETATM    2  C   UNL     1      41.159 -13.241   5.869  1.00  0.00     0.239 C 
HETATM    3  O   UNL     1      40.010 -13.369   6.281  1.00  0.00    -0.271 OA
ENDROOT
BRANCH   1   4
HETATM    4  C   UNL     1      40.954 -10.748   5.482  1.00  0.00     0.120 C 
HETATM    5  C   UNL     1      40.999  -9.785   4.278  1.00  0.00     0.069 C 
HETATM    6  C   UNL     1      40.362  -8.433   4.586  1.00  0.00     0.237 C 
HETATM    7  N   UNL     1      38.948  -8.609   5.056  1.00  0.00    -0.075 N 
HETATM    8  C   UNL     1      38.292  -7.278   5.329  1.00  0.00     0.269 C 
HETATM    9  H   UNL     1      38.411  -9.041   4.288  1.00  0.00     0.279 HD
HETATM   10  C   UNL     1      38.823  -9.534   6.246  1.00  0.00     0.237 C 
HETATM   11  C   UNL     1      39.447 -10.879   5.894  1.00  0.00     0.069 C 
BRANCH   4  12
HETATM   12  C   UNL     1      41.666 -10.203   6.774  1.00  0.00     0.251 C 
HETATM   13  N   UNL     1      41.648 -11.017   7.883  1.00  0.00    -0.323 N 
HETATM   14  H   UNL     1      41.241 -11.945   7.854  1.00  0.00     0.169 HD
HETATM   15  O   UNL     1      42.185  -9.087   6.747  1.00  0.00    -0.270 OA
BRANCH  13  16
HETATM   16  C   UNL     1      42.216 -10.732   9.151  1.00  0.00     0.068 A 
HETATM   17  C   UNL     1      43.573 -11.078   9.332  1.00  0.00     0.097 A 
HETATM   18  C   UNL     1      44.209 -10.808  10.553  1.00  0.00     0.075 A 
HETATM   19  C   UNL     1      43.500 -10.200  11.592  1.00  0.00     0.070 A 
HETATM   20  C   UNL     1      42.154  -9.887  11.414  1.00  0.00     0.039 A 
HETATM   21  C   UNL     1      41.513 -10.145  10.202  1.00  0.00     0.035 A 
BRANCH  17  22
HETATM   22  O   UNL     1      44.178 -11.645   8.230  1.00  0.00    -0.354 OA
HETATM   23  C   UNL     1      44.828 -12.898   8.431  1.00  0.00     0.210 C 
ENDBRANCH  17  22
BRANCH  19  24
HETATM   24  O   UNL     1      43.996  -9.873  12.823  1.00  0.00    -0.356 OA
HETATM   25  C   UNL     1      43.076  -9.379  13.788  1.00  0.00     0.210 C 
ENDBRANCH  19  24
ENDBRANCH  13  16
ENDBRANCH   4  12
ENDBRANCH   1   4
BRANCH   1  26
HETATM   26  C   UNL     1      42.106 -12.348   3.835  1.00  0.00     0.192 C 
BRANCH  26  27
HETATM   27  C   UNL     1      41.100 -12.878   2.888  1.00  0.00     0.070 A 
HETATM   28  O   UNL     1      41.630 -13.575   1.840  1.00  0.00    -0.325 OA
HETATM   29  C   UNL     1      40.598 -13.984   1.063  1.00  0.00     0.142 A 
HETATM   30  C   UNL     1      39.404 -13.564   1.598  1.00  0.00     0.027 A 
HETATM   31  C   UNL     1      39.725 -12.846   2.775  1.00  0.00     0.036 A 
ENDBRANCH  26  27
ENDBRANCH   1  26
BRANCH   2  32
HETATM   32  C   UNL     1      42.303 -14.244   6.147  1.00  0.00     0.228 C 
BRANCH  32  33
HETATM   33  N   UNL     1      42.008 -15.623   5.801  1.00  0.00    -0.347 N 
HETATM   34  C   UNL     1      42.387 -16.773   6.486  1.00  0.00     0.171 C 
HETATM   35  S   UNL     1      43.256 -16.910   7.886  1.00  0.00    -0.041 SA
HETATM   36  N   UNL     1      41.929 -17.867   5.768  1.00  0.00    -0.357 N 
HETATM   37  C   UNL     1      41.329 -17.473   4.510  1.00  0.00     0.135 C 
HETATM   38  H   UNL     1      42.192 -18.815   6.004  1.00  0.00     0.162 HD
HETATM   39  C   UNL     1      41.144 -15.956   4.680  1.00  0.00     0.155 C 
BRANCH  37  40
HETATM   40  C   UNL     1      42.191 -17.820   3.312  1.00  0.00    -0.034 A 
HETATM   41  C   UNL     1      42.168 -16.988   2.181  1.00  0.00     0.009 A 
HETATM   42  C   UNL     1      42.986 -17.254   1.080  1.00  0.00     0.001 A 
HETATM   43  C   UNL     1      43.841 -18.352   1.094  1.00  0.00     0.000 A 
HETATM   44  C   UNL     1      43.880 -19.186   2.208  1.00  0.00     0.001 A 
HETATM   45  C   UNL     1      43.064 -18.921   3.310  1.00  0.00     0.009 A 
ENDBRANCH  37  40
ENDBRANCH  32  33
ENDBRANCH   2  32
TORSDOF 10
ENDMDL
