MODEL 1
REMARK VINA RESULT:      -8.8      0.000      0.000
REMARK  9 active torsions:
REMARK  status: ('A' for Active; 'I' for Inactive)
REMARK    1  A    between atoms: C_2  and  C_3 
REMARK    2  A    between atoms: C_3  and  C_4 
REMARK    3  A    between atoms: C_3  and  C_23 
REMARK    4  A    between atoms: C_4  and  C_5 
REMARK    5  A    between atoms: C_4  and  C_17 
REMARK    6  A    between atoms: C_15  and  O_16 
REMARK    7  A    between atoms: C_23  and  N_24 
REMARK    8  A    between atoms: N_31  and  N_32 
REMARK       I    between atoms: N_32  and  C_33 
REMARK    9  A    between atoms: C_33  and  C_34 
ROOT
HETATM    1  C   UNL     1      41.267 -13.857  -1.555  1.00  0.00     0.213 C 
HETATM    2  C   UNL     1      40.845 -15.053  -2.394  1.00  0.00    -0.011 C 
HETATM    3  N   UNL     1      40.495 -16.044  -3.091  1.00  0.00    -0.101 N 
ENDROOT
BRANCH   1   4
HETATM    4  C   UNL     1      41.668 -14.315  -0.167  1.00  0.00     0.249 C 
HETATM    5  N   UNL     1      41.959 -15.668  -0.030  1.00  0.00    -0.246 N 
HETATM    6  H   UNL     1      41.817 -16.330  -0.790  1.00  0.00     0.192 HD
HETATM    7  O   UNL     1      41.657 -13.546   0.798  1.00  0.00    -0.271 OA
BRANCH   5   8
HETATM    8  N   UNL     1      42.551 -16.087   1.117  1.00  0.00    -0.181 NA
HETATM    9  C   UNL     1      41.842 -16.698   2.015  1.00  0.00     0.035 C 
HETATM   10  C   UNL     1      40.359 -16.971   1.896  1.00  0.00     0.068 C 
BRANCH   9  11
HETATM   11  C   UNL     1      42.579 -17.259   3.229  1.00  0.00     0.074 C 
BRANCH  11  12
HETATM   12  C   UNL     1      42.965 -16.213   4.324  1.00  0.00     0.072 C 
BRANCH  12  13
HETATM   13  C   UNL     1      42.285 -14.840   4.286  1.00  0.00     0.061 C 
HETATM   14  C   UNL     1      43.152 -13.734   3.791  1.00  0.00     0.298 C 
HETATM   15  O   UNL     1      44.237 -13.993   3.265  1.00  0.00    -0.259 OA
HETATM   16  O   UNL     1      42.685 -12.437   3.839  1.00  0.00    -0.274 OA
HETATM   17  C   UNL     1      41.365 -12.159   4.222  1.00  0.00     0.092 A 
HETATM   18  C   UNL     1      40.499 -13.182   4.592  1.00  0.00     0.032 A 
HETATM   19  C   UNL     1      40.968 -10.822   4.202  1.00  0.00     0.038 A 
HETATM   20  C   UNL     1      39.196 -12.835   4.969  1.00  0.00     0.017 A 
HETATM   21  C   UNL     1      41.014 -14.553   4.613  1.00  0.00     0.091 C 
HETATM   22  C   UNL     1      38.781 -11.499   4.953  1.00  0.00     0.001 A 
HETATM   23  C   UNL     1      39.666 -10.493   4.568  1.00  0.00     0.003 A 
BRANCH  21  24
HETATM   24  O   UNL     1      40.114 -15.530   4.965  1.00  0.00    -0.359 OA
HETATM   25  H   UNL     1      40.553 -16.089   5.649  1.00  0.00     0.218 HD
ENDBRANCH  21  24
ENDBRANCH  12  13
BRANCH  12  26
HETATM   26  C   UNL     1      43.180 -16.777   5.734  1.00  0.00    -0.049 A 
HETATM   27  C   UNL     1      43.553 -15.898   6.771  1.00  0.00     0.008 A 
HETATM   28  C   UNL     1      43.770 -16.360   8.071  1.00  0.00     0.001 A 
HETATM   29  C   UNL     1      43.609 -17.708   8.365  1.00  0.00     0.000 A 
HETATM   30  C   UNL     1      43.219 -18.590   7.363  1.00  0.00     0.001 A 
HETATM   31  C   UNL     1      43.001 -18.128   6.062  1.00  0.00     0.008 A 
ENDBRANCH  12  26
ENDBRANCH  11  12
BRANCH  11  32
HETATM   32  C   UNL     1      43.763 -18.064   2.650  1.00  0.00     0.246 C 
BRANCH  32  33
HETATM   33  N   UNL     1      43.684 -19.570   2.861  1.00  0.00    -0.070 N 
HETATM   34  H   UNL     1      42.817 -19.767   3.407  1.00  0.00     0.279 HD
HETATM   35  C   UNL     1      43.653 -20.364   1.579  1.00  0.00     0.235 C 
HETATM   36  C   UNL     1      43.545 -21.853   1.872  1.00  0.00     0.028 C 
HETATM   37  C   UNL     1      44.650 -22.333   2.801  1.00  0.00     0.003 C 
HETATM   38  C   UNL     1      44.668 -21.509   4.081  1.00  0.00     0.028 C 
HETATM   39  C   UNL     1      44.804 -20.024   3.783  1.00  0.00     0.235 C 
ENDBRANCH  32  33
ENDBRANCH  11  32
ENDBRANCH   9  11
ENDBRANCH   5   8
ENDBRANCH   1   4
TORSDOF 9
ENDMDL
MODEL 2
REMARK VINA RESULT:      -8.3      1.757      2.144
REMARK  9 active torsions:
REMARK  status: ('A' for Active; 'I' for Inactive)
REMARK    1  A    between atoms: C_2  and  C_3 
REMARK    2  A    between atoms: C_3  and  C_4 
REMARK    3  A    between atoms: C_3  and  C_23 
REMARK    4  A    between atoms: C_4  and  C_5 
REMARK    5  A    between atoms: C_4  and  C_17 
REMARK    6  A    between atoms: C_15  and  O_16 
REMARK    7  A    between atoms: C_23  and  N_24 
REMARK    8  A    between atoms: N_31  and  N_32 
REMARK       I    between atoms: N_32  and  C_33 
REMARK    9  A    between atoms: C_33  and  C_34 
ROOT
HETATM    1  C   UNL     1      38.561 -13.868   0.533  1.00  0.00     0.213 C 
HETATM    2  C   UNL     1      38.079 -12.583   1.188  1.00  0.00    -0.011 C 
HETATM    3  N   UNL     1      37.678 -11.518   1.731  1.00  0.00    -0.101 N 
ENDROOT
BRANCH   1   4
HETATM    4  C   UNL     1      39.106 -14.812   1.585  1.00  0.00     0.249 C 
HETATM    5  N   UNL     1      39.826 -15.903   1.114  1.00  0.00    -0.246 N 
HETATM    6  H   UNL     1      39.901 -16.112   0.120  1.00  0.00     0.192 HD
HETATM    7  O   UNL     1      38.853 -14.662   2.784  1.00  0.00    -0.271 OA
BRANCH   5   8
HETATM    8  N   UNL     1      40.536 -16.642   2.005  1.00  0.00    -0.181 NA
HETATM    9  C   UNL     1      41.832 -16.609   1.971  1.00  0.00     0.035 C 
HETATM   10  C   UNL     1      42.645 -15.809   0.978  1.00  0.00     0.068 C 
BRANCH   9  11
HETATM   11  C   UNL     1      42.581 -17.357   3.073  1.00  0.00     0.074 C 
BRANCH  11  12
HETATM   12  C   UNL     1      43.176 -16.463   4.208  1.00  0.00     0.072 C 
BRANCH  12  13
HETATM   13  C   UNL     1      42.511 -15.111   4.489  1.00  0.00     0.061 C 
HETATM   14  C   UNL     1      43.342 -13.927   4.132  1.00  0.00     0.298 C 
HETATM   15  O   UNL     1      44.372 -14.077   3.470  1.00  0.00    -0.259 OA
HETATM   16  O   UNL     1      42.896 -12.664   4.463  1.00  0.00    -0.274 OA
HETATM   17  C   UNL     1      41.619 -12.470   5.009  1.00  0.00     0.092 A 
HETATM   18  C   UNL     1      40.779 -13.549   5.260  1.00  0.00     0.032 A 
HETATM   19  C   UNL     1      41.238 -11.155   5.275  1.00  0.00     0.038 A 
HETATM   20  C   UNL     1      39.519 -13.286   5.812  1.00  0.00     0.017 A 
HETATM   21  C   UNL     1      41.278 -14.897   4.978  1.00  0.00     0.091 C 
HETATM   22  C   UNL     1      39.120 -11.973   6.083  1.00  0.00     0.001 A 
HETATM   23  C   UNL     1      39.978 -10.908   5.813  1.00  0.00     0.003 A 
BRANCH  21  24
HETATM   24  O   UNL     1      40.403 -15.928   5.223  1.00  0.00    -0.359 OA
HETATM   25  H   UNL     1      40.502 -16.568   4.480  1.00  0.00     0.218 HD
ENDBRANCH  21  24
ENDBRANCH  12  13
BRANCH  12  26
HETATM   26  C   UNL     1      43.651 -17.210   5.460  1.00  0.00    -0.049 A 
HETATM   27  C   UNL     1      42.741 -18.042   6.144  1.00  0.00     0.008 A 
HETATM   28  C   UNL     1      43.119 -18.740   7.294  1.00  0.00     0.001 A 
HETATM   29  C   UNL     1      44.415 -18.627   7.780  1.00  0.00     0.000 A 
HETATM   30  C   UNL     1      45.336 -17.830   7.109  1.00  0.00     0.001 A 
HETATM   31  C   UNL     1      44.959 -17.134   5.957  1.00  0.00     0.008 A 
ENDBRANCH  12  26
ENDBRANCH  11  12
BRANCH  11  32
HETATM   32  C   UNL     1      43.609 -18.244   2.336  1.00  0.00     0.246 C 
BRANCH  32  33
HETATM   33  N   UNL     1      43.609 -19.709   2.747  1.00  0.00    -0.070 N 
HETATM   34  H   UNL     1      42.761 -19.874   3.332  1.00  0.00     0.279 HD
HETATM   35  C   UNL     1      43.603 -20.670   1.585  1.00  0.00     0.235 C 
HETATM   36  C   UNL     1      43.574 -22.109   2.077  1.00  0.00     0.028 C 
HETATM   37  C   UNL     1      44.714 -22.405   3.040  1.00  0.00     0.003 C 
HETATM   38  C   UNL     1      44.706 -21.417   4.197  1.00  0.00     0.028 C 
HETATM   39  C   UNL     1      44.762 -19.980   3.701  1.00  0.00     0.235 C 
ENDBRANCH  32  33
ENDBRANCH  11  32
ENDBRANCH   9  11
ENDBRANCH   5   8
ENDBRANCH   1   4
TORSDOF 9
ENDMDL
MODEL 3
REMARK VINA RESULT:      -8.0      2.594      5.710
REMARK  9 active torsions:
REMARK  status: ('A' for Active; 'I' for Inactive)
REMARK    1  A    between atoms: C_2  and  C_3 
REMARK    2  A    between atoms: C_3  and  C_4 
REMARK    3  A    between atoms: C_3  and  C_23 
REMARK    4  A    between atoms: C_4  and  C_5 
REMARK    5  A    between atoms: C_4  and  C_17 
REMARK    6  A    between atoms: C_15  and  O_16 
REMARK    7  A    between atoms: C_23  and  N_24 
REMARK    8  A    between atoms: N_31  and  N_32 
REMARK       I    between atoms: N_32  and  C_33 
REMARK    9  A    between atoms: C_33  and  C_34 
ROOT
HETATM    1  C   UNL     1      41.865  -9.685  -0.680  1.00  0.00     0.213 C 
HETATM    2  C   UNL     1      41.069  -9.968  -1.943  1.00  0.00    -0.011 C 
HETATM    3  N   UNL     1      40.409 -10.203  -2.992  1.00  0.00    -0.101 N 
ENDROOT
BRANCH   1   4
HETATM    4  C   UNL     1      42.334 -10.986  -0.061  1.00  0.00     0.249 C 
HETATM    5  N   UNL     1      42.126 -11.123   1.307  1.00  0.00    -0.246 N 
HETATM    6  H   UNL     1      41.771 -10.358   1.878  1.00  0.00     0.192 HD
HETATM    7  O   UNL     1      42.937 -11.837  -0.721  1.00  0.00    -0.271 OA
BRANCH   5   8
HETATM    8  N   UNL     1      42.301 -12.347   1.866  1.00  0.00    -0.181 NA
HETATM    9  C   UNL     1      41.591 -12.683   2.899  1.00  0.00     0.035 C 
HETATM   10  C   UNL     1      40.569 -11.790   3.566  1.00  0.00     0.068 C 
BRANCH   9  11
HETATM   11  C   UNL     1      41.736 -14.115   3.414  1.00  0.00     0.074 C 
BRANCH  11  12
HETATM   12  C   UNL     1      41.161 -15.226   2.478  1.00  0.00     0.072 C 
BRANCH  12  13
HETATM   13  C   UNL     1      40.456 -14.794   1.187  1.00  0.00     0.061 C 
HETATM   14  C   UNL     1      38.998 -14.527   1.339  1.00  0.00     0.298 C 
HETATM   15  O   UNL     1      38.500 -14.461   2.466  1.00  0.00    -0.259 OA
HETATM   16  O   UNL     1      38.240 -14.260   0.218  1.00  0.00    -0.274 OA
HETATM   17  C   UNL     1      38.842 -14.106  -1.039  1.00  0.00     0.092 A 
HETATM   18  C   UNL     1      40.216 -14.249  -1.195  1.00  0.00     0.032 A 
HETATM   19  C   UNL     1      38.002 -13.797  -2.109  1.00  0.00     0.038 A 
HETATM   20  C   UNL     1      40.751 -14.089  -2.480  1.00  0.00     0.017 A 
HETATM   21  C   UNL     1      41.014 -14.606  -0.021  1.00  0.00     0.091 C 
HETATM   22  C   UNL     1      39.923 -13.776  -3.563  1.00  0.00     0.001 A 
HETATM   23  C   UNL     1      38.550 -13.629  -3.378  1.00  0.00     0.003 A 
BRANCH  21  24
HETATM   24  O   UNL     1      42.369 -14.715  -0.221  1.00  0.00    -0.359 OA
HETATM   25  H   UNL     1      42.662 -13.877  -0.650  1.00  0.00     0.218 HD
ENDBRANCH  21  24
ENDBRANCH  12  13
BRANCH  12  26
HETATM   26  C   UNL     1      42.023 -16.488   2.340  1.00  0.00    -0.049 A 
HETATM   27  C   UNL     1      41.474 -17.623   1.710  1.00  0.00     0.008 A 
HETATM   28  C   UNL     1      42.212 -18.800   1.565  1.00  0.00     0.001 A 
HETATM   29  C   UNL     1      43.517 -18.865   2.037  1.00  0.00     0.000 A 
HETATM   30  C   UNL     1      44.087 -17.749   2.641  1.00  0.00     0.001 A 
HETATM   31  C   UNL     1      43.349 -16.571   2.785  1.00  0.00     0.008 A 
ENDBRANCH  12  26
ENDBRANCH  11  12
BRANCH  11  32
HETATM   32  C   UNL     1      41.147 -14.095   4.841  1.00  0.00     0.246 C 
BRANCH  32  33
HETATM   33  N   UNL     1      42.019 -14.743   5.907  1.00  0.00    -0.070 N 
HETATM   34  H   UNL     1      41.825 -14.260   6.811  1.00  0.00     0.279 HD
HETATM   35  C   UNL     1      41.781 -16.223   6.075  1.00  0.00     0.235 C 
HETATM   36  C   UNL     1      42.667 -16.789   7.174  1.00  0.00     0.028 C 
HETATM   37  C   UNL     1      44.138 -16.484   6.933  1.00  0.00     0.003 C 
HETATM   38  C   UNL     1      44.352 -14.987   6.756  1.00  0.00     0.028 C 
HETATM   39  C   UNL     1      43.483 -14.432   5.638  1.00  0.00     0.235 C 
ENDBRANCH  32  33
ENDBRANCH  11  32
ENDBRANCH   9  11
ENDBRANCH   5   8
ENDBRANCH   1   4
TORSDOF 9
ENDMDL
MODEL 4
REMARK VINA RESULT:      -7.9      3.050      5.813
REMARK  9 active torsions:
REMARK  status: ('A' for Active; 'I' for Inactive)
REMARK    1  A    between atoms: C_2  and  C_3 
REMARK    2  A    between atoms: C_3  and  C_4 
REMARK    3  A    between atoms: C_3  and  C_23 
REMARK    4  A    between atoms: C_4  and  C_5 
REMARK    5  A    between atoms: C_4  and  C_17 
REMARK    6  A    between atoms: C_15  and  O_16 
REMARK    7  A    between atoms: C_23  and  N_24 
REMARK    8  A    between atoms: N_31  and  N_32 
REMARK       I    between atoms: N_32  and  C_33 
REMARK    9  A    between atoms: C_33  and  C_34 
ROOT
HETATM    1  C   UNL     1      41.197  -9.191   6.773  1.00  0.00     0.213 C 
HETATM    2  C   UNL     1      41.714  -8.403   5.580  1.00  0.00    -0.011 C 
HETATM    3  N   UNL     1      42.143  -7.749   4.590  1.00  0.00    -0.101 N 
ENDROOT
BRANCH   1   4
HETATM    4  C   UNL     1      41.577 -10.651   6.632  1.00  0.00     0.249 C 
HETATM    5  N   UNL     1      41.223 -11.262   5.434  1.00  0.00    -0.246 N 
HETATM    6  H   UNL     1      40.657 -10.788   4.734  1.00  0.00     0.192 HD
HETATM    7  O   UNL     1      42.097 -11.278   7.560  1.00  0.00    -0.271 OA
BRANCH   5   8
HETATM    8  N   UNL     1      41.744 -12.484   5.155  1.00  0.00    -0.181 NA
HETATM    9  C   UNL     1      40.954 -13.507   5.058  1.00  0.00     0.035 C 
HETATM   10  C   UNL     1      39.455 -13.456   5.256  1.00  0.00     0.068 C 
BRANCH   9  11
HETATM   11  C   UNL     1      41.573 -14.833   4.619  1.00  0.00     0.074 C 
BRANCH  11  12
HETATM   12  C   UNL     1      41.260 -15.268   3.151  1.00  0.00     0.072 C 
BRANCH  12  13
HETATM   13  C   UNL     1      40.903 -14.179   2.134  1.00  0.00     0.061 C 
HETATM   14  C   UNL     1      39.531 -14.292   1.563  1.00  0.00     0.298 C 
HETATM   15  O   UNL     1      38.721 -15.077   2.063  1.00  0.00    -0.259 OA
HETATM   16  O   UNL     1      39.152 -13.444   0.543  1.00  0.00    -0.274 OA
HETATM   17  C   UNL     1      39.987 -12.398   0.127  1.00  0.00     0.092 A 
HETATM   18  C   UNL     1      41.234 -12.204   0.712  1.00  0.00     0.032 A 
HETATM   19  C   UNL     1      39.504 -11.566  -0.883  1.00  0.00     0.038 A 
HETATM   20  C   UNL     1      42.021 -11.144   0.244  1.00  0.00     0.017 A 
HETATM   21  C   UNL     1      41.670 -13.147   1.743  1.00  0.00     0.091 C 
HETATM   22  C   UNL     1      41.551 -10.299  -0.767  1.00  0.00     0.001 A 
HETATM   23  C   UNL     1      40.293 -10.509  -1.329  1.00  0.00     0.003 A 
BRANCH  21  24
HETATM   24  O   UNL     1      42.900 -12.902   2.305  1.00  0.00    -0.359 OA
HETATM   25  H   UNL     1      43.521 -13.572   1.936  1.00  0.00     0.218 HD
ENDBRANCH  21  24
ENDBRANCH  12  13
BRANCH  12  26
HETATM   26  C   UNL     1      42.136 -16.397   2.594  1.00  0.00    -0.049 A 
HETATM   27  C   UNL     1      41.518 -17.587   2.156  1.00  0.00     0.008 A 
HETATM   28  C   UNL     1      42.268 -18.649   1.647  1.00  0.00     0.001 A 
HETATM   29  C   UNL     1      43.650 -18.543   1.556  1.00  0.00     0.000 A 
HETATM   30  C   UNL     1      44.279 -17.370   1.960  1.00  0.00     0.001 A 
HETATM   31  C   UNL     1      43.528 -16.306   2.467  1.00  0.00     0.008 A 
ENDBRANCH  12  26
ENDBRANCH  11  12
BRANCH  11  32
HETATM   32  C   UNL     1      41.160 -15.853   5.703  1.00  0.00     0.246 C 
BRANCH  32  33
HETATM   33  N   UNL     1      42.273 -16.780   6.172  1.00  0.00    -0.070 N 
HETATM   34  H   UNL     1      42.158 -16.919   7.199  1.00  0.00     0.279 HD
HETATM   35  C   UNL     1      42.275 -18.125   5.488  1.00  0.00     0.235 C 
HETATM   36  C   UNL     1      43.395 -19.001   6.030  1.00  0.00     0.028 C 
HETATM   37  C   UNL     1      44.751 -18.320   5.928  1.00  0.00     0.003 C 
HETATM   38  C   UNL     1      44.721 -16.962   6.614  1.00  0.00     0.028 C 
HETATM   39  C   UNL     1      43.617 -16.080   6.051  1.00  0.00     0.235 C 
ENDBRANCH  32  33
ENDBRANCH  11  32
ENDBRANCH   9  11
ENDBRANCH   5   8
ENDBRANCH   1   4
TORSDOF 9
ENDMDL
MODEL 5
REMARK VINA RESULT:      -7.8      2.128      6.228
REMARK  9 active torsions:
REMARK  status: ('A' for Active; 'I' for Inactive)
REMARK    1  A    between atoms: C_2  and  C_3 
REMARK    2  A    between atoms: C_3  and  C_4 
REMARK    3  A    between atoms: C_3  and  C_23 
REMARK    4  A    between atoms: C_4  and  C_5 
REMARK    5  A    between atoms: C_4  and  C_17 
REMARK    6  A    between atoms: C_15  and  O_16 
REMARK    7  A    between atoms: C_23  and  N_24 
REMARK    8  A    between atoms: N_31  and  N_32 
REMARK       I    between atoms: N_32  and  C_33 
REMARK    9  A    between atoms: C_33  and  C_34 
ROOT
HETATM    1  C   UNL     1      44.154 -20.148   2.846  1.00  0.00     0.213 C 
HETATM    2  C   UNL     1      44.700 -20.974   3.999  1.00  0.00    -0.011 C 
HETATM    3  N   UNL     1      45.154 -21.660   4.956  1.00  0.00    -0.101 N 
ENDROOT
BRANCH   1   4
HETATM    4  C   UNL     1      43.309 -19.009   3.381  1.00  0.00     0.249 C 
HETATM    5  N   UNL     1      42.641 -18.245   2.431  1.00  0.00    -0.246 N 
HETATM    6  H   UNL     1      42.787 -18.378   1.432  1.00  0.00     0.192 HD
HETATM    7  O   UNL     1      43.282 -18.731   4.583  1.00  0.00    -0.271 OA
BRANCH   5   8
HETATM    8  N   UNL     1      41.689 -17.376   2.855  1.00  0.00    -0.181 NA
HETATM    9  C   UNL     1      41.946 -16.104   2.866  1.00  0.00     0.035 C 
HETATM   10  C   UNL     1      43.265 -15.492   2.453  1.00  0.00     0.068 C 
BRANCH   9  11
HETATM   11  C   UNL     1      40.801 -15.161   3.233  1.00  0.00     0.074 C 
BRANCH  11  12
HETATM   12  C   UNL     1      40.931 -13.703   2.685  1.00  0.00     0.072 C 
BRANCH  12  13
HETATM   13  C   UNL     1      40.569 -13.446   1.218  1.00  0.00     0.061 C 
HETATM   14  C   UNL     1      41.540 -12.586   0.484  1.00  0.00     0.298 C 
HETATM   15  O   UNL     1      42.630 -12.317   0.995  1.00  0.00    -0.259 OA
HETATM   16  O   UNL     1      41.247 -12.182  -0.802  1.00  0.00    -0.274 OA
HETATM   17  C   UNL     1      40.118 -12.674  -1.472  1.00  0.00     0.092 A 
HETATM   18  C   UNL     1      39.246 -13.558  -0.848  1.00  0.00     0.032 A 
HETATM   19  C   UNL     1      39.923 -12.242  -2.785  1.00  0.00     0.038 A 
HETATM   20  C   UNL     1      38.133 -14.006  -1.572  1.00  0.00     0.017 A 
HETATM   21  C   UNL     1      39.514 -13.931   0.543  1.00  0.00     0.091 C 
HETATM   22  C   UNL     1      37.924 -13.584  -2.890  1.00  0.00     0.001 A 
HETATM   23  C   UNL     1      38.819 -12.704  -3.496  1.00  0.00     0.003 A 
BRANCH  21  24
HETATM   24  O   UNL     1      38.636 -14.823   1.109  1.00  0.00    -0.359 OA
HETATM   25  H   UNL     1      39.154 -15.634   1.327  1.00  0.00     0.218 HD
ENDBRANCH  21  24
ENDBRANCH  12  13
BRANCH  12  26
HETATM   26  C   UNL     1      40.500 -12.591   3.650  1.00  0.00    -0.049 A 
HETATM   27  C   UNL     1      41.488 -11.914   4.394  1.00  0.00     0.008 A 
HETATM   28  C   UNL     1      41.151 -10.899   5.293  1.00  0.00     0.001 A 
HETATM   29  C   UNL     1      39.821 -10.534   5.461  1.00  0.00     0.000 A 
HETATM   30  C   UNL     1      38.832 -11.172   4.721  1.00  0.00     0.001 A 
HETATM   31  C   UNL     1      39.169 -12.186   3.820  1.00  0.00     0.008 A 
ENDBRANCH  12  26
ENDBRANCH  11  12
BRANCH  11  32
HETATM   32  C   UNL     1      40.659 -15.271   4.767  1.00  0.00     0.246 C 
BRANCH  32  33
HETATM   33  N   UNL     1      41.846 -15.902   5.481  1.00  0.00    -0.070 N 
HETATM   34  H   UNL     1      42.286 -16.581   4.824  1.00  0.00     0.279 HD
HETATM   35  C   UNL     1      42.885 -14.907   5.934  1.00  0.00     0.235 C 
HETATM   36  C   UNL     1      44.048 -15.615   6.611  1.00  0.00     0.028 C 
HETATM   37  C   UNL     1      43.586 -16.501   7.758  1.00  0.00     0.003 C 
HETATM   38  C   UNL     1      42.530 -17.488   7.280  1.00  0.00     0.028 C 
HETATM   39  C   UNL     1      41.357 -16.773   6.627  1.00  0.00     0.235 C 
ENDBRANCH  32  33
ENDBRANCH  11  32
ENDBRANCH   9  11
ENDBRANCH   5   8
ENDBRANCH   1   4
TORSDOF 9
ENDMDL
MODEL 6
REMARK VINA RESULT:      -7.7      1.578      6.632
REMARK  9 active torsions:
REMARK  status: ('A' for Active; 'I' for Inactive)
REMARK    1  A    between atoms: C_2  and  C_3 
REMARK    2  A    between atoms: C_3  and  C_4 
REMARK    3  A    between atoms: C_3  and  C_23 
REMARK    4  A    between atoms: C_4  and  C_5 
REMARK    5  A    between atoms: C_4  and  C_17 
REMARK    6  A    between atoms: C_15  and  O_16 
REMARK    7  A    between atoms: C_23  and  N_24 
REMARK    8  A    between atoms: N_31  and  N_32 
REMARK       I    between atoms: N_32  and  C_33 
REMARK    9  A    between atoms: C_33  and  C_34 
ROOT
HETATM    1  C   UNL     1      43.969 -19.753   2.112  1.00  0.00     0.213 C 
HETATM    2  C   UNL     1      44.563 -20.216   3.433  1.00  0.00    -0.011 C 
HETATM    3  N   UNL     1      45.056 -20.600   4.529  1.00  0.00    -0.101 N 
ENDROOT
BRANCH   1   4
HETATM    4  C   UNL     1      43.807 -18.247   2.118  1.00  0.00     0.249 C 
HETATM    5  N   UNL     1      43.436 -17.667   0.910  1.00  0.00    -0.246 N 
HETATM    6  H   UNL     1      43.373 -18.207   0.049  1.00  0.00     0.192 HD
HETATM    7  O   UNL     1      44.068 -17.570   3.117  1.00  0.00    -0.271 OA
BRANCH   5   8
HETATM    8  N   UNL     1      43.044 -16.368   0.911  1.00  0.00    -0.181 NA
HETATM    9  C   UNL     1      41.790 -16.080   1.076  1.00  0.00     0.035 C 
HETATM   10  C   UNL     1      40.691 -17.104   1.251  1.00  0.00     0.068 C 
BRANCH   9  11
HETATM   11  C   UNL     1      41.418 -14.603   1.195  1.00  0.00     0.074 C 
BRANCH  11  12
HETATM   12  C   UNL     1      41.030 -14.121   2.630  1.00  0.00     0.072 C 
BRANCH  12  13
HETATM   13  C   UNL     1      41.816 -14.682   3.820  1.00  0.00     0.061 C 
HETATM   14  C   UNL     1      43.214 -14.178   3.930  1.00  0.00     0.298 C 
HETATM   15  O   UNL     1      43.581 -13.231   3.231  1.00  0.00    -0.259 OA
HETATM   16  O   UNL     1      44.053 -14.715   4.885  1.00  0.00    -0.274 OA
HETATM   17  C   UNL     1      43.573 -15.629   5.833  1.00  0.00     0.092 A 
HETATM   18  C   UNL     1      42.246 -16.042   5.819  1.00  0.00     0.032 A 
HETATM   19  C   UNL     1      44.483 -16.089   6.786  1.00  0.00     0.038 A 
HETATM   20  C   UNL     1      41.834 -16.962   6.792  1.00  0.00     0.017 A 
HETATM   21  C   UNL     1      41.371 -15.531   4.762  1.00  0.00     0.091 C 
HETATM   22  C   UNL     1      42.733 -17.432   7.756  1.00  0.00     0.001 A 
HETATM   23  C   UNL     1      44.057 -16.994   7.753  1.00  0.00     0.003 A 
BRANCH  21  24
HETATM   24  O   UNL     1      40.064 -15.952   4.804  1.00  0.00    -0.359 OA
HETATM   25  H   UNL     1      39.523 -15.245   4.380  1.00  0.00     0.218 HD
ENDBRANCH  21  24
ENDBRANCH  12  13
BRANCH  12  26
HETATM   26  C   UNL     1      40.660 -12.638   2.754  1.00  0.00    -0.049 A 
HETATM   27  C   UNL     1      39.858 -12.223   3.837  1.00  0.00     0.008 A 
HETATM   28  C   UNL     1      39.486 -10.885   3.993  1.00  0.00     0.001 A 
HETATM   29  C   UNL     1      39.915  -9.933   3.077  1.00  0.00     0.000 A 
HETATM   30  C   UNL     1      40.726 -10.316   2.014  1.00  0.00     0.001 A 
HETATM   31  C   UNL     1      41.100 -11.654   1.858  1.00  0.00     0.008 A 
ENDBRANCH  12  26
ENDBRANCH  11  12
BRANCH  11  32
HETATM   32  C   UNL     1      40.341 -14.366   0.114  1.00  0.00     0.246 C 
BRANCH  32  33
HETATM   33  N   UNL     1      40.879 -14.123  -1.289  1.00  0.00    -0.070 N 
HETATM   34  H   UNL     1      41.303 -15.015  -1.624  1.00  0.00     0.279 HD
HETATM   35  C   UNL     1      39.831 -13.672  -2.275  1.00  0.00     0.235 C 
HETATM   36  C   UNL     1      40.439 -13.479  -3.656  1.00  0.00     0.028 C 
HETATM   37  C   UNL     1      41.626 -12.527  -3.627  1.00  0.00     0.003 C 
HETATM   38  C   UNL     1      42.664 -12.996  -2.618  1.00  0.00     0.028 C 
HETATM   39  C   UNL     1      42.056 -13.162  -1.234  1.00  0.00     0.235 C 
ENDBRANCH  32  33
ENDBRANCH  11  32
ENDBRANCH   9  11
ENDBRANCH   5   8
ENDBRANCH   1   4
TORSDOF 9
ENDMDL
MODEL 7
REMARK VINA RESULT:      -7.7      1.107      2.065
REMARK  9 active torsions:
REMARK  status: ('A' for Active; 'I' for Inactive)
REMARK    1  A    between atoms: C_2  and  C_3 
REMARK    2  A    between atoms: C_3  and  C_4 
REMARK    3  A    between atoms: C_3  and  C_23 
REMARK    4  A    between atoms: C_4  and  C_5 
REMARK    5  A    between atoms: C_4  and  C_17 
REMARK    6  A    between atoms: C_15  and  O_16 
REMARK    7  A    between atoms: C_23  and  N_24 
REMARK    8  A    between atoms: N_31  and  N_32 
REMARK       I    between atoms: N_32  and  C_33 
REMARK    9  A    between atoms: C_33  and  C_34 
ROOT
HETATM    1  C   UNL     1      40.543 -14.186  -2.357  1.00  0.00     0.213 C 
HETATM    2  C   UNL     1      40.190 -15.536  -2.959  1.00  0.00    -0.011 C 
HETATM    3  N   UNL     1      39.898 -16.657  -3.459  1.00  0.00    -0.101 N 
ENDROOT
BRANCH   1   4
HETATM    4  C   UNL     1      41.124 -14.374  -0.970  1.00  0.00     0.249 C 
HETATM    5  N   UNL     1      41.044 -15.657  -0.443  1.00  0.00    -0.246 N 
HETATM    6  H   UNL     1      40.540 -16.405  -0.915  1.00  0.00     0.192 HD
HETATM    7  O   UNL     1      41.567 -13.423  -0.319  1.00  0.00    -0.271 OA
BRANCH   5   8
HETATM    8  N   UNL     1      41.755 -15.939   0.679  1.00  0.00    -0.181 NA
HETATM    9  C   UNL     1      41.127 -16.175   1.789  1.00  0.00     0.035 C 
HETATM   10  C   UNL     1      39.623 -16.141   1.949  1.00  0.00     0.068 C 
BRANCH   9  11
HETATM   11  C   UNL     1      41.965 -16.609   2.991  1.00  0.00     0.074 C 
BRANCH  11  12
HETATM   12  C   UNL     1      42.323 -15.476   4.005  1.00  0.00     0.072 C 
BRANCH  12  13
HETATM   13  C   UNL     1      41.467 -14.204   4.002  1.00  0.00     0.061 C 
HETATM   14  C   UNL     1      40.283 -14.254   4.906  1.00  0.00     0.298 C 
HETATM   15  O   UNL     1      40.173 -15.170   5.724  1.00  0.00    -0.259 OA
HETATM   16  O   UNL     1      39.373 -13.217   4.884  1.00  0.00    -0.274 OA
HETATM   17  C   UNL     1      39.612 -12.064   4.124  1.00  0.00     0.092 A 
HETATM   18  C   UNL     1      40.759 -11.946   3.347  1.00  0.00     0.032 A 
HETATM   19  C   UNL     1      38.656 -11.050   4.194  1.00  0.00     0.038 A 
HETATM   20  C   UNL     1      40.933 -10.769   2.607  1.00  0.00     0.017 A 
HETATM   21  C   UNL     1      41.692 -13.074   3.311  1.00  0.00     0.091 C 
HETATM   22  C   UNL     1      39.985  -9.742   2.668  1.00  0.00     0.001 A 
HETATM   23  C   UNL     1      38.848  -9.882   3.461  1.00  0.00     0.003 A 
BRANCH  21  24
HETATM   24  O   UNL     1      42.820 -12.901   2.547  1.00  0.00    -0.359 OA
HETATM   25  H   UNL     1      43.252 -12.071   2.859  1.00  0.00     0.218 HD
ENDBRANCH  21  24
ENDBRANCH  12  13
BRANCH  12  26
HETATM   26  C   UNL     1      42.757 -15.947   5.399  1.00  0.00    -0.049 A 
HETATM   27  C   UNL     1      42.286 -17.186   5.878  1.00  0.00     0.008 A 
HETATM   28  C   UNL     1      42.644 -17.659   7.143  1.00  0.00     0.001 A 
HETATM   29  C   UNL     1      43.487 -16.908   7.952  1.00  0.00     0.000 A 
HETATM   30  C   UNL     1      43.983 -15.693   7.491  1.00  0.00     0.001 A 
HETATM   31  C   UNL     1      43.626 -15.220   6.225  1.00  0.00     0.008 A 
ENDBRANCH  12  26
ENDBRANCH  11  12
BRANCH  11  32
HETATM   32  C   UNL     1      43.178 -17.356   2.393  1.00  0.00     0.246 C 
BRANCH  32  33
HETATM   33  N   UNL     1      43.318 -18.808   2.825  1.00  0.00    -0.070 N 
HETATM   34  H   UNL     1      42.475 -19.054   3.387  1.00  0.00     0.279 HD
HETATM   35  C   UNL     1      43.447 -19.777   1.676  1.00  0.00     0.235 C 
HETATM   36  C   UNL     1      43.554 -21.206   2.188  1.00  0.00     0.028 C 
HETATM   37  C   UNL     1      44.689 -21.370   3.188  1.00  0.00     0.003 C 
HETATM   38  C   UNL     1      44.544 -20.375   4.330  1.00  0.00     0.028 C 
HETATM   39  C   UNL     1      44.464 -18.946   3.815  1.00  0.00     0.235 C 
ENDBRANCH  32  33
ENDBRANCH  11  32
ENDBRANCH   9  11
ENDBRANCH   5   8
ENDBRANCH   1   4
TORSDOF 9
ENDMDL
MODEL 8
REMARK VINA RESULT:      -7.4      3.991      7.926
REMARK  9 active torsions:
REMARK  status: ('A' for Active; 'I' for Inactive)
REMARK    1  A    between atoms: C_2  and  C_3 
REMARK    2  A    between atoms: C_3  and  C_4 
REMARK    3  A    between atoms: C_3  and  C_23 
REMARK    4  A    between atoms: C_4  and  C_5 
REMARK    5  A    between atoms: C_4  and  C_17 
REMARK    6  A    between atoms: C_15  and  O_16 
REMARK    7  A    between atoms: C_23  and  N_24 
REMARK    8  A    between atoms: N_31  and  N_32 
REMARK       I    between atoms: N_32  and  C_33 
REMARK    9  A    between atoms: C_33  and  C_34 
ROOT
HETATM    1  C   UNL     1      33.722 -10.544   1.146  1.00  0.00     0.213 C 
HETATM    2  C   UNL     1      32.596 -10.302   0.153  1.00  0.00    -0.011 C 
HETATM    3  N   UNL     1      31.663 -10.100  -0.671  1.00  0.00    -0.101 N 
ENDROOT
BRANCH   1   4
HETATM    4  C   UNL     1      34.955 -11.040   0.419  1.00  0.00     0.249 C 
HETATM    5  N   UNL     1      35.950 -11.599   1.213  1.00  0.00    -0.246 N 
HETATM    6  H   UNL     1      35.899 -11.586   2.230  1.00  0.00     0.192 HD
HETATM    7  O   UNL     1      35.098 -10.883  -0.797  1.00  0.00    -0.271 OA
BRANCH   5   8
HETATM    8  N   UNL     1      36.959 -12.272   0.605  1.00  0.00    -0.181 NA
HETATM    9  C   UNL     1      38.126 -12.319   1.169  1.00  0.00     0.035 C 
HETATM   10  C   UNL     1      38.473 -11.646   2.479  1.00  0.00     0.068 C 
BRANCH   9  11
HETATM   11  C   UNL     1      39.191 -13.193   0.508  1.00  0.00     0.074 C 
BRANCH  11  12
HETATM   12  C   UNL     1      40.643 -13.014   1.058  1.00  0.00     0.072 C 
BRANCH  12  13
HETATM   13  C   UNL     1      41.342 -14.234   1.667  1.00  0.00     0.061 C 
HETATM   14  C   UNL     1      42.148 -13.940   2.886  1.00  0.00     0.298 C 
HETATM   15  O   UNL     1      42.047 -12.841   3.437  1.00  0.00    -0.259 OA
HETATM   16  O   UNL     1      42.923 -14.937   3.440  1.00  0.00    -0.274 OA
HETATM   17  C   UNL     1      42.863 -16.251   2.954  1.00  0.00     0.092 A 
HETATM   18  C   UNL     1      42.042 -16.578   1.881  1.00  0.00     0.032 A 
HETATM   19  C   UNL     1      43.652 -17.202   3.601  1.00  0.00     0.038 A 
HETATM   20  C   UNL     1      42.035 -17.909   1.441  1.00  0.00     0.017 A 
HETATM   21  C   UNL     1      41.274 -15.507   1.243  1.00  0.00     0.091 C 
HETATM   22  C   UNL     1      42.819 -18.875   2.081  1.00  0.00     0.001 A 
HETATM   23  C   UNL     1      43.626 -18.522   3.161  1.00  0.00     0.003 A 
BRANCH  21  24
HETATM   24  O   UNL     1      40.462 -15.885   0.201  1.00  0.00    -0.359 OA
HETATM   25  H   UNL     1      39.561 -16.023   0.577  1.00  0.00     0.218 HD
ENDBRANCH  21  24
ENDBRANCH  12  13
BRANCH  12  26
HETATM   26  C   UNL     1      41.559 -12.106   0.227  1.00  0.00    -0.049 A 
HETATM   27  C   UNL     1      42.269 -12.661  -0.856  1.00  0.00     0.008 A 
HETATM   28  C   UNL     1      43.123 -11.881  -1.640  1.00  0.00     0.001 A 
HETATM   29  C   UNL     1      43.277 -10.528  -1.364  1.00  0.00     0.000 A 
HETATM   30  C   UNL     1      42.568  -9.954  -0.314  1.00  0.00     0.001 A 
HETATM   31  C   UNL     1      41.712 -10.734   0.469  1.00  0.00     0.008 A 
ENDBRANCH  12  26
ENDBRANCH  11  12
BRANCH  11  32
HETATM   32  C   UNL     1      39.033 -12.949  -1.009  1.00  0.00     0.246 C 
BRANCH  32  33
HETATM   33  N   UNL     1      38.831 -14.204  -1.846  1.00  0.00    -0.070 N 
HETATM   34  H   UNL     1      38.753 -15.012  -1.191  1.00  0.00     0.279 HD
HETATM   35  C   UNL     1      37.608 -14.160  -2.727  1.00  0.00     0.235 C 
HETATM   36  C   UNL     1      37.461 -15.457  -3.507  1.00  0.00     0.028 C 
HETATM   37  C   UNL     1      38.713 -15.786  -4.307  1.00  0.00     0.003 C 
HETATM   38  C   UNL     1      39.934 -15.813  -3.400  1.00  0.00     0.028 C 
HETATM   39  C   UNL     1      40.092 -14.504  -2.642  1.00  0.00     0.235 C 
ENDBRANCH  32  33
ENDBRANCH  11  32
ENDBRANCH   9  11
ENDBRANCH   5   8
ENDBRANCH   1   4
TORSDOF 9
ENDMDL
MODEL 9
REMARK VINA RESULT:      -7.4      3.277      6.234
REMARK  9 active torsions:
REMARK  status: ('A' for Active; 'I' for Inactive)
REMARK    1  A    between atoms: C_2  and  C_3 
REMARK    2  A    between atoms: C_3  and  C_4 
REMARK    3  A    between atoms: C_3  and  C_23 
REMARK    4  A    between atoms: C_4  and  C_5 
REMARK    5  A    between atoms: C_4  and  C_17 
REMARK    6  A    between atoms: C_15  and  O_16 
REMARK    7  A    between atoms: C_23  and  N_24 
REMARK    8  A    between atoms: N_31  and  N_32 
REMARK       I    between atoms: N_32  and  C_33 
REMARK    9  A    between atoms: C_33  and  C_34 
ROOT
HETATM    1  C   UNL     1      36.354  -9.631   1.562  1.00  0.00     0.213 C 
HETATM    2  C   UNL     1      35.076 -10.309   1.095  1.00  0.00    -0.011 C 
HETATM    3  N   UNL     1      34.015 -10.870   0.707  1.00  0.00    -0.101 N 
ENDROOT
BRANCH   1   4
HETATM    4  C   UNL     1      37.512 -10.606   1.490  1.00  0.00     0.249 C 
HETATM    5  N   UNL     1      37.765 -11.341   2.642  1.00  0.00    -0.246 N 
HETATM    6  H   UNL     1      37.267 -11.168   3.513  1.00  0.00     0.192 HD
HETATM    7  O   UNL     1      38.236 -10.680   0.492  1.00  0.00    -0.271 OA
BRANCH   5   8
HETATM    8  N   UNL     1      38.622 -12.391   2.562  1.00  0.00    -0.181 NA
HETATM    9  C   UNL     1      39.738 -12.354   3.222  1.00  0.00     0.035 C 
HETATM   10  C   UNL     1      40.188 -11.194   4.083  1.00  0.00     0.068 C 
BRANCH   9  11
HETATM   11  C   UNL     1      40.609 -13.609   3.199  1.00  0.00     0.074 C 
BRANCH  11  12
HETATM   12  C   UNL     1      40.762 -14.295   1.803  1.00  0.00     0.072 C 
BRANCH  12  13
HETATM   13  C   UNL     1      40.998 -13.403   0.580  1.00  0.00     0.061 C 
HETATM   14  C   UNL     1      40.044 -13.629  -0.543  1.00  0.00     0.298 C 
HETATM   15  O   UNL     1      39.041 -14.325  -0.366  1.00  0.00    -0.259 OA
HETATM   16  O   UNL     1      40.244 -12.974  -1.741  1.00  0.00    -0.274 OA
HETATM   17  C   UNL     1      41.249 -12.006  -1.875  1.00  0.00     0.092 A 
HETATM   18  C   UNL     1      42.091 -11.699  -0.812  1.00  0.00     0.032 A 
HETATM   19  C   UNL     1      41.351 -11.367  -3.111  1.00  0.00     0.038 A 
HETATM   20  C   UNL     1      43.077 -10.726  -1.015  1.00  0.00     0.017 A 
HETATM   21  C   UNL     1      41.929 -12.444   0.438  1.00  0.00     0.091 C 
HETATM   22  C   UNL     1      43.193 -10.075  -2.248  1.00  0.00     0.001 A 
HETATM   23  C   UNL     1      42.330 -10.393  -3.294  1.00  0.00     0.003 A 
BRANCH  21  24
HETATM   24  O   UNL     1      42.770 -12.091   1.465  1.00  0.00    -0.359 OA
HETATM   25  H   UNL     1      43.342 -12.873   1.649  1.00  0.00     0.218 HD
ENDBRANCH  21  24
ENDBRANCH  12  13
BRANCH  12  26
HETATM   26  C   UNL     1      41.553 -15.609   1.794  1.00  0.00    -0.049 A 
HETATM   27  C   UNL     1      42.925 -15.581   2.116  1.00  0.00     0.008 A 
HETATM   28  C   UNL     1      43.695 -16.747   2.115  1.00  0.00     0.001 A 
HETATM   29  C   UNL     1      43.108 -17.966   1.801  1.00  0.00     0.000 A 
HETATM   30  C   UNL     1      41.751 -18.021   1.502  1.00  0.00     0.001 A 
HETATM   31  C   UNL     1      40.980 -16.855   1.505  1.00  0.00     0.008 A 
ENDBRANCH  12  26
ENDBRANCH  11  12
BRANCH  11  32
HETATM   32  C   UNL     1      40.043 -14.517   4.313  1.00  0.00     0.246 C 
BRANCH  32  33
HETATM   33  N   UNL     1      41.068 -15.011   5.324  1.00  0.00    -0.070 N 
HETATM   34  H   UNL     1      40.728 -14.747   6.274  1.00  0.00     0.279 HD
HETATM   35  C   UNL     1      41.302 -16.501   5.278  1.00  0.00     0.235 C 
HETATM   36  C   UNL     1      42.314 -16.919   6.334  1.00  0.00     0.028 C 
HETATM   37  C   UNL     1      43.618 -16.144   6.211  1.00  0.00     0.003 C 
HETATM   38  C   UNL     1      43.356 -14.646   6.248  1.00  0.00     0.028 C 
HETATM   39  C   UNL     1      42.363 -14.229   5.174  1.00  0.00     0.235 C 
ENDBRANCH  32  33
ENDBRANCH  11  32
ENDBRANCH   9  11
ENDBRANCH   5   8
ENDBRANCH   1   4
TORSDOF 9
ENDMDL
MODEL 10
REMARK VINA RESULT:      -7.3      2.902      5.983
REMARK  9 active torsions:
REMARK  status: ('A' for Active; 'I' for Inactive)
REMARK    1  A    between atoms: C_2  and  C_3 
REMARK    2  A    between atoms: C_3  and  C_4 
REMARK    3  A    between atoms: C_3  and  C_23 
REMARK    4  A    between atoms: C_4  and  C_5 
REMARK    5  A    between atoms: C_4  and  C_17 
REMARK    6  A    between atoms: C_15  and  O_16 
REMARK    7  A    between atoms: C_23  and  N_24 
REMARK    8  A    between atoms: N_31  and  N_32 
REMARK       I    between atoms: N_32  and  C_33 
REMARK    9  A    between atoms: C_33  and  C_34 
ROOT
HETATM    1  C   UNL     1      37.467  -9.390   2.928  1.00  0.00     0.213 C 
HETATM    2  C   UNL     1      36.553 -10.102   1.944  1.00  0.00    -0.011 C 
HETATM    3  N   UNL     1      35.795 -10.693   1.127  1.00  0.00    -0.101 N 
ENDROOT
BRANCH   1   4
HETATM    4  C   UNL     1      38.632 -10.286   3.294  1.00  0.00     0.249 C 
HETATM    5  N   UNL     1      38.319 -11.612   3.571  1.00  0.00    -0.246 N 
HETATM    6  H   UNL     1      37.357 -11.940   3.623  1.00  0.00     0.192 HD
HETATM    7  O   UNL     1      39.777  -9.843   3.417  1.00  0.00    -0.271 OA
BRANCH   5   8
HETATM    8  N   UNL     1      39.335 -12.508   3.667  1.00  0.00    -0.181 NA
HETATM    9  C   UNL     1      39.418 -13.472   2.803  1.00  0.00     0.035 C 
HETATM   10  C   UNL     1      38.436 -13.702   1.676  1.00  0.00     0.068 C 
BRANCH   9  11
HETATM   11  C   UNL     1      40.647 -14.377   2.879  1.00  0.00     0.074 C 
BRANCH  11  12
HETATM   12  C   UNL     1      41.125 -14.976   1.517  1.00  0.00     0.072 C 
BRANCH  12  13
HETATM   13  C   UNL     1      41.531 -14.005   0.402  1.00  0.00     0.061 C 
HETATM   14  C   UNL     1      42.339 -12.840   0.861  1.00  0.00     0.298 C 
HETATM   15  O   UNL     1      42.798 -12.824   2.006  1.00  0.00    -0.259 OA
HETATM   16  O   UNL     1      42.647 -11.837  -0.035  1.00  0.00    -0.274 OA
HETATM   17  C   UNL     1      42.325 -11.960  -1.394  1.00  0.00     0.092 A 
HETATM   18  C   UNL     1      41.660 -13.083  -1.871  1.00  0.00     0.032 A 
HETATM   19  C   UNL     1      42.711 -10.914  -2.232  1.00  0.00     0.038 A 
HETATM   20  C   UNL     1      41.363 -13.139  -3.239  1.00  0.00     0.017 A 
HETATM   21  C   UNL     1      41.266 -14.116  -0.911  1.00  0.00     0.091 C 
HETATM   22  C   UNL     1      41.745 -12.100  -4.094  1.00  0.00     0.001 A 
HETATM   23  C   UNL     1      42.420 -10.989  -3.592  1.00  0.00     0.003 A 
BRANCH  21  24
HETATM   24  O   UNL     1      40.630 -15.216  -1.434  1.00  0.00    -0.359 OA
HETATM   25  H   UNL     1      40.901 -15.990  -0.885  1.00  0.00     0.218 HD
ENDBRANCH  21  24
ENDBRANCH  12  13
BRANCH  12  26
HETATM   26  C   UNL     1      41.999 -16.232   1.615  1.00  0.00    -0.049 A 
HETATM   27  C   UNL     1      41.407 -17.493   1.394  1.00  0.00     0.008 A 
HETATM   28  C   UNL     1      42.155 -18.670   1.478  1.00  0.00     0.001 A 
HETATM   29  C   UNL     1      43.510 -18.612   1.777  1.00  0.00     0.000 A 
HETATM   30  C   UNL     1      44.120 -17.378   1.977  1.00  0.00     0.001 A 
HETATM   31  C   UNL     1      43.373 -16.200   1.890  1.00  0.00     0.008 A 
ENDBRANCH  12  26
ENDBRANCH  11  12
BRANCH  11  32
HETATM   32  C   UNL     1      40.317 -15.420   3.969  1.00  0.00     0.246 C 
BRANCH  32  33
HETATM   33  N   UNL     1      41.524 -15.992   4.700  1.00  0.00    -0.070 N 
HETATM   34  H   UNL     1      42.313 -16.041   4.019  1.00  0.00     0.279 HD
HETATM   35  C   UNL     1      41.953 -15.181   5.897  1.00  0.00     0.235 C 
HETATM   36  C   UNL     1      43.178 -15.799   6.554  1.00  0.00     0.028 C 
HETATM   37  C   UNL     1      42.953 -17.259   6.919  1.00  0.00     0.003 C 
HETATM   38  C   UNL     1      42.510 -18.054   5.699  1.00  0.00     0.028 C 
HETATM   39  C   UNL     1      41.270 -17.446   5.062  1.00  0.00     0.235 C 
ENDBRANCH  32  33
ENDBRANCH  11  32
ENDBRANCH   9  11
ENDBRANCH   5   8
ENDBRANCH   1   4
TORSDOF 9
ENDMDL
