MODEL 1
REMARK VINA RESULT:      -9.5      0.000      0.000
REMARK  3 active torsions:
REMARK  status: ('A' for Active; 'I' for Inactive)
REMARK    1  A    between atoms: O_2  and  C_3 
REMARK    2  A    between atoms: C_4  and  N_5 
REMARK       I    between atoms: N_5  and  C_6 
REMARK       I    between atoms: C_6  and  N_7 
REMARK    3  A    between atoms: C_10  and  C_11 
ROOT
HETATM    1  N   UNL     1      41.765 -14.596  -0.897  1.00  0.00    -0.306 N 
HETATM    2  C   UNL     1      41.962 -14.308   0.431  1.00  0.00     0.323 C 
HETATM    3  N   UNL     1      42.348 -15.393   1.225  1.00  0.00    -0.330 N 
HETATM    4  C   UNL     1      42.939 -15.020   2.507  1.00  0.00     0.155 C 
HETATM    5  C   UNL     1      43.387 -16.179   3.340  1.00  0.00     0.001 C 
HETATM    6  C   UNL     1      43.149 -17.472   3.063  1.00  0.00    -0.046 C 
HETATM    7  C   UNL     1      42.379 -17.824   1.824  1.00  0.00     0.059 C 
HETATM    8  C   UNL     1      42.554 -16.761   0.739  1.00  0.00     0.132 C 
HETATM    9  O   UNL     1      41.846 -13.184   0.916  1.00  0.00    -0.247 OA
HETATM   10  H   UNL     1      42.115 -15.473  -1.251  1.00  0.00     0.171 HD
ENDROOT
BRANCH   1  11
HETATM   11  C   UNL     1      41.353 -13.721  -1.931  1.00  0.00     0.072 A 
HETATM   12  C   UNL     1      39.958 -13.581  -2.124  1.00  0.00     0.095 A 
HETATM   13  C   UNL     1      39.474 -12.738  -3.131  1.00  0.00     0.042 A 
HETATM   14  C   UNL     1      40.368 -12.040  -3.943  1.00  0.00     0.045 A 
HETATM   15  C   UNL     1      41.735 -12.182  -3.741  1.00  0.00     0.118 A 
HETATM   16  C   UNL     1      42.237 -13.010  -2.744  1.00  0.00     0.074 A 
HETATM   17  F   UNL     1      42.584 -11.502  -4.525  1.00  0.00    -0.206 F 
BRANCH  12  18
HETATM   18  O   UNL     1      39.168 -14.319  -1.271  1.00  0.00    -0.354 OA
HETATM   19  C   UNL     1      38.288 -13.596  -0.418  1.00  0.00     0.210 C 
ENDBRANCH  12  18
ENDBRANCH   1  11
BRANCH   6  20
HETATM   20  C   UNL     1      43.647 -18.570   3.842  1.00  0.00    -0.002 A 
HETATM   21  C   UNL     1      43.954 -19.910   3.437  1.00  0.00     0.003 A 
HETATM   22  C   UNL     1      44.439 -20.577   4.566  1.00  0.00     0.043 A 
HETATM   23  C   UNL     1      43.868 -20.637   2.229  1.00  0.00     0.014 A 
HETATM   24  C   UNL     1      44.854 -21.915   4.544  1.00  0.00     0.030 A 
HETATM   25  N   UNL     1      44.408 -19.686   5.612  1.00  0.00    -0.364 N 
HETATM   26  C   UNL     1      44.769 -22.602   3.330  1.00  0.00     0.002 A 
HETATM   27  C   UNL     1      44.281 -21.975   2.187  1.00  0.00     0.001 A 
HETATM   28  H   UNL     1      44.697 -19.901   6.556  1.00  0.00     0.165 HD
HETATM   29  C   UNL     1      43.933 -18.475   5.189  1.00  0.00     0.101 A 
ENDBRANCH   6  20
TORSDOF 3
ENDMDL
MODEL 2
REMARK VINA RESULT:      -9.2      1.832      2.435
REMARK  3 active torsions:
REMARK  status: ('A' for Active; 'I' for Inactive)
REMARK    1  A    between atoms: O_2  and  C_3 
REMARK    2  A    between atoms: C_4  and  N_5 
REMARK       I    between atoms: N_5  and  C_6 
REMARK       I    between atoms: C_6  and  N_7 
REMARK    3  A    between atoms: C_10  and  C_11 
ROOT
HETATM    1  N   UNL     1      39.754 -14.614  -0.120  1.00  0.00    -0.306 N 
HETATM    2  C   UNL     1      40.857 -14.243   0.609  1.00  0.00     0.323 C 
HETATM    3  N   UNL     1      41.462 -15.272   1.339  1.00  0.00    -0.330 N 
HETATM    4  C   UNL     1      42.827 -14.982   1.769  1.00  0.00     0.155 C 
HETATM    5  C   UNL     1      43.487 -16.096   2.517  1.00  0.00     0.001 C 
HETATM    6  C   UNL     1      42.880 -17.222   2.930  1.00  0.00    -0.046 C 
HETATM    7  C   UNL     1      41.423 -17.417   2.630  1.00  0.00     0.059 C 
HETATM    8  C   UNL     1      41.009 -16.666   1.364  1.00  0.00     0.132 C 
HETATM    9  O   UNL     1      41.325 -13.106   0.618  1.00  0.00    -0.247 OA
HETATM   10  H   UNL     1      39.588 -15.598  -0.264  1.00  0.00     0.171 HD
ENDROOT
BRANCH   1  11
HETATM   11  C   UNL     1      38.926 -13.801  -0.931  1.00  0.00     0.072 A 
HETATM   12  C   UNL     1      39.119 -13.897  -2.330  1.00  0.00     0.095 A 
HETATM   13  C   UNL     1      38.342 -13.119  -3.196  1.00  0.00     0.042 A 
HETATM   14  C   UNL     1      37.381 -12.250  -2.678  1.00  0.00     0.045 A 
HETATM   15  C   UNL     1      37.198 -12.168  -1.303  1.00  0.00     0.118 A 
HETATM   16  C   UNL     1      37.956 -12.935  -0.426  1.00  0.00     0.074 A 
HETATM   17  F   UNL     1      36.269 -11.332  -0.817  1.00  0.00    -0.206 F 
BRANCH  12  18
HETATM   18  O   UNL     1      40.095 -14.781  -2.731  1.00  0.00    -0.354 OA
HETATM   19  C   UNL     1      41.263 -14.227  -3.327  1.00  0.00     0.210 C 
ENDBRANCH  12  18
ENDBRANCH   1  11
BRANCH   6  20
HETATM   20  C   UNL     1      43.550 -18.307   3.587  1.00  0.00    -0.002 A 
HETATM   21  C   UNL     1      43.778 -19.647   3.133  1.00  0.00     0.003 A 
HETATM   22  C   UNL     1      44.507 -20.300   4.132  1.00  0.00     0.043 A 
HETATM   23  C   UNL     1      43.437 -20.386   1.978  1.00  0.00     0.014 A 
HETATM   24  C   UNL     1      44.923 -21.633   4.028  1.00  0.00     0.030 A 
HETATM   25  N   UNL     1      44.696 -19.399   5.154  1.00  0.00    -0.364 N 
HETATM   26  C   UNL     1      44.582 -22.332   2.867  1.00  0.00     0.002 A 
HETATM   27  C   UNL     1      43.847 -21.721   1.856  1.00  0.00     0.001 A 
HETATM   28  H   UNL     1      45.189 -19.602   6.012  1.00  0.00     0.165 HD
HETATM   29  C   UNL     1      44.125 -18.197   4.837  1.00  0.00     0.101 A 
ENDBRANCH   6  20
TORSDOF 3
ENDMDL
MODEL 3
REMARK VINA RESULT:      -8.9      1.959      2.335
REMARK  3 active torsions:
REMARK  status: ('A' for Active; 'I' for Inactive)
REMARK    1  A    between atoms: O_2  and  C_3 
REMARK    2  A    between atoms: C_4  and  N_5 
REMARK       I    between atoms: N_5  and  C_6 
REMARK       I    between atoms: C_6  and  N_7 
REMARK    3  A    between atoms: C_10  and  C_11 
ROOT
HETATM    1  N   UNL     1      39.657 -14.646   0.308  1.00  0.00    -0.306 N 
HETATM    2  C   UNL     1      40.942 -14.394   0.718  1.00  0.00     0.323 C 
HETATM    3  N   UNL     1      41.540 -15.414   1.466  1.00  0.00    -0.330 N 
HETATM    4  C   UNL     1      42.996 -15.328   1.547  1.00  0.00     0.155 C 
HETATM    5  C   UNL     1      43.638 -16.440   2.314  1.00  0.00     0.001 C 
HETATM    6  C   UNL     1      42.982 -17.372   3.025  1.00  0.00    -0.046 C 
HETATM    7  C   UNL     1      41.483 -17.334   3.074  1.00  0.00     0.059 C 
HETATM    8  C   UNL     1      40.902 -16.687   1.816  1.00  0.00     0.132 C 
HETATM    9  O   UNL     1      41.565 -13.371   0.441  1.00  0.00    -0.247 OA
HETATM   10  H   UNL     1      39.315 -15.593   0.367  1.00  0.00     0.171 HD
ENDROOT
BRANCH   1  11
HETATM   11  C   UNL     1      38.794 -13.805  -0.434  1.00  0.00     0.072 A 
HETATM   12  C   UNL     1      37.992 -12.906   0.308  1.00  0.00     0.095 A 
HETATM   13  C   UNL     1      37.110 -12.046  -0.356  1.00  0.00     0.042 A 
HETATM   14  C   UNL     1      37.022 -12.079  -1.748  1.00  0.00     0.045 A 
HETATM   15  C   UNL     1      37.817 -12.963  -2.466  1.00  0.00     0.118 A 
HETATM   16  C   UNL     1      38.703 -13.822  -1.827  1.00  0.00     0.074 A 
HETATM   17  F   UNL     1      37.727 -12.982  -3.804  1.00  0.00    -0.206 F 
BRANCH  12  18
HETATM   18  O   UNL     1      38.156 -12.961   1.674  1.00  0.00    -0.354 OA
HETATM   19  C   UNL     1      38.514 -11.750   2.331  1.00  0.00     0.210 C 
ENDBRANCH  12  18
ENDBRANCH   1  11
BRANCH   6  20
HETATM   20  C   UNL     1      43.617 -18.469   3.698  1.00  0.00    -0.002 A 
HETATM   21  C   UNL     1      43.854 -19.807   3.240  1.00  0.00     0.003 A 
HETATM   22  C   UNL     1      44.536 -20.474   4.262  1.00  0.00     0.043 A 
HETATM   23  C   UNL     1      43.556 -20.531   2.065  1.00  0.00     0.014 A 
HETATM   24  C   UNL     1      44.947 -21.810   4.161  1.00  0.00     0.030 A 
HETATM   25  N   UNL     1      44.689 -19.586   5.300  1.00  0.00    -0.364 N 
HETATM   26  C   UNL     1      44.649 -22.494   2.980  1.00  0.00     0.002 A 
HETATM   27  C   UNL     1      43.961 -21.867   1.945  1.00  0.00     0.001 A 
HETATM   28  H   UNL     1      45.144 -19.801   6.175  1.00  0.00     0.165 HD
HETATM   29  C   UNL     1      44.140 -18.376   4.973  1.00  0.00     0.101 A 
ENDBRANCH   6  20
TORSDOF 3
ENDMDL
MODEL 4
REMARK VINA RESULT:      -8.8      4.939      6.730
REMARK  3 active torsions:
REMARK  status: ('A' for Active; 'I' for Inactive)
REMARK    1  A    between atoms: O_2  and  C_3 
REMARK    2  A    between atoms: C_4  and  N_5 
REMARK       I    between atoms: N_5  and  C_6 
REMARK       I    between atoms: C_6  and  N_7 
REMARK    3  A    between atoms: C_10  and  C_11 
ROOT
HETATM    1  N   UNL     1      41.803 -12.829   6.368  1.00  0.00    -0.306 N 
HETATM    2  C   UNL     1      42.295 -13.272   5.166  1.00  0.00     0.323 C 
HETATM    3  N   UNL     1      42.731 -14.601   5.153  1.00  0.00    -0.330 N 
HETATM    4  C   UNL     1      42.864 -15.180   3.819  1.00  0.00     0.155 C 
HETATM    5  C   UNL     1      43.294 -16.612   3.808  1.00  0.00     0.001 C 
HETATM    6  C   UNL     1      43.694 -17.312   4.883  1.00  0.00    -0.046 C 
HETATM    7  C   UNL     1      43.720 -16.638   6.224  1.00  0.00     0.059 C 
HETATM    8  C   UNL     1      42.689 -15.512   6.302  1.00  0.00     0.132 C 
HETATM    9  O   UNL     1      42.336 -12.588   4.144  1.00  0.00    -0.247 OA
HETATM   10  H   UNL     1      41.581 -13.515   7.073  1.00  0.00     0.171 HD
ENDROOT
BRANCH   1  11
HETATM   11  C   UNL     1      41.315 -11.541   6.693  1.00  0.00     0.072 A 
HETATM   12  C   UNL     1      42.075 -10.790   7.621  1.00  0.00     0.095 A 
HETATM   13  C   UNL     1      41.653  -9.509   7.996  1.00  0.00     0.042 A 
HETATM   14  C   UNL     1      40.483  -8.977   7.455  1.00  0.00     0.045 A 
HETATM   15  C   UNL     1      39.747  -9.721   6.541  1.00  0.00     0.118 A 
HETATM   16  C   UNL     1      40.151 -10.993   6.152  1.00  0.00     0.074 A 
HETATM   17  F   UNL     1      38.626  -9.197   6.024  1.00  0.00    -0.206 F 
BRANCH  12  18
HETATM   18  O   UNL     1      43.208 -11.413   8.095  1.00  0.00    -0.354 OA
HETATM   19  C   UNL     1      43.595 -11.121   9.433  1.00  0.00     0.210 C 
ENDBRANCH  12  18
ENDBRANCH   1  11
BRANCH   6  20
HETATM   20  C   UNL     1      44.037 -18.704   4.859  1.00  0.00    -0.002 A 
HETATM   21  C   UNL     1      44.005 -19.633   3.767  1.00  0.00     0.003 A 
HETATM   22  C   UNL     1      44.468 -20.858   4.258  1.00  0.00     0.043 A 
HETATM   23  C   UNL     1      43.625 -19.570   2.408  1.00  0.00     0.014 A 
HETATM   24  C   UNL     1      44.586 -22.005   3.463  1.00  0.00     0.030 A 
HETATM   25  N   UNL     1      44.750 -20.683   5.592  1.00  0.00    -0.364 N 
HETATM   26  C   UNL     1      44.214 -21.905   2.120  1.00  0.00     0.002 A 
HETATM   27  C   UNL     1      43.738 -20.707   1.597  1.00  0.00     0.001 A 
HETATM   28  H   UNL     1      45.098 -21.408   6.204  1.00  0.00     0.165 HD
HETATM   29  C   UNL     1      44.496 -19.392   5.965  1.00  0.00     0.101 A 
ENDBRANCH   6  20
TORSDOF 3
ENDMDL
MODEL 5
REMARK VINA RESULT:      -8.8      2.785      3.565
REMARK  3 active torsions:
REMARK  status: ('A' for Active; 'I' for Inactive)
REMARK    1  A    between atoms: O_2  and  C_3 
REMARK    2  A    between atoms: C_4  and  N_5 
REMARK       I    between atoms: N_5  and  C_6 
REMARK       I    between atoms: C_6  and  N_7 
REMARK    3  A    between atoms: C_10  and  C_11 
ROOT
HETATM    1  N   UNL     1      39.341 -13.606   2.193  1.00  0.00    -0.306 N 
HETATM    2  C   UNL     1      40.705 -13.489   2.299  1.00  0.00     0.323 C 
HETATM    3  N   UNL     1      41.368 -14.633   2.756  1.00  0.00    -0.330 N 
HETATM    4  C   UNL     1      42.803 -14.646   2.485  1.00  0.00     0.155 C 
HETATM    5  C   UNL     1      43.505 -15.886   2.939  1.00  0.00     0.001 C 
HETATM    6  C   UNL     1      42.955 -16.863   3.679  1.00  0.00    -0.046 C 
HETATM    7  C   UNL     1      41.520 -16.740   4.100  1.00  0.00     0.059 C 
HETATM    8  C   UNL     1      40.718 -15.899   3.106  1.00  0.00     0.132 C 
HETATM    9  O   UNL     1      41.335 -12.477   1.995  1.00  0.00    -0.247 OA
HETATM   10  H   UNL     1      38.939 -14.530   2.227  1.00  0.00     0.171 HD
ENDROOT
BRANCH   1  11
HETATM   11  C   UNL     1      38.407 -12.624   1.786  1.00  0.00     0.072 A 
HETATM   12  C   UNL     1      37.754 -12.844   0.550  1.00  0.00     0.095 A 
HETATM   13  C   UNL     1      36.821 -11.913   0.078  1.00  0.00     0.042 A 
HETATM   14  C   UNL     1      36.539 -10.770   0.827  1.00  0.00     0.045 A 
HETATM   15  C   UNL     1      37.183 -10.567   2.041  1.00  0.00     0.118 A 
HETATM   16  C   UNL     1      38.109 -11.481   2.530  1.00  0.00     0.074 A 
HETATM   17  F   UNL     1      36.900  -9.468   2.754  1.00  0.00    -0.206 F 
BRANCH  12  18
HETATM   18  O   UNL     1      38.111 -14.000  -0.107  1.00  0.00    -0.354 OA
HETATM   19  C   UNL     1      38.141 -13.952  -1.529  1.00  0.00     0.210 C 
ENDBRANCH  12  18
ENDBRANCH   1  11
BRANCH   6  20
HETATM   20  C   UNL     1      43.629 -18.075   4.046  1.00  0.00    -0.002 A 
HETATM   21  C   UNL     1      43.725 -19.316   3.335  1.00  0.00     0.003 A 
HETATM   22  C   UNL     1      44.522 -20.169   4.106  1.00  0.00     0.043 A 
HETATM   23  C   UNL     1      43.216 -19.815   2.116  1.00  0.00     0.014 A 
HETATM   24  C   UNL     1      44.844 -21.475   3.715  1.00  0.00     0.030 A 
HETATM   25  N   UNL     1      44.875 -19.480   5.243  1.00  0.00    -0.364 N 
HETATM   26  C   UNL     1      44.335 -21.933   2.498  1.00  0.00     0.002 A 
HETATM   27  C   UNL     1      43.530 -21.118   1.708  1.00  0.00     0.001 A 
HETATM   28  H   UNL     1      45.447 -19.857   5.985  1.00  0.00     0.165 HD
HETATM   29  C   UNL     1      44.345 -18.220   5.218  1.00  0.00     0.101 A 
ENDBRANCH   6  20
TORSDOF 3
ENDMDL
MODEL 6
REMARK VINA RESULT:      -8.6      4.822      6.074
REMARK  3 active torsions:
REMARK  status: ('A' for Active; 'I' for Inactive)
REMARK    1  A    between atoms: O_2  and  C_3 
REMARK    2  A    between atoms: C_4  and  N_5 
REMARK       I    between atoms: N_5  and  C_6 
REMARK       I    between atoms: C_6  and  N_7 
REMARK    3  A    between atoms: C_10  and  C_11 
ROOT
HETATM    1  N   UNL     1      41.661 -13.100   6.145  1.00  0.00    -0.306 N 
HETATM    2  C   UNL     1      42.382 -13.506   5.049  1.00  0.00     0.323 C 
HETATM    3  N   UNL     1      42.779 -14.847   5.060  1.00  0.00    -0.330 N 
HETATM    4  C   UNL     1      43.173 -15.370   3.754  1.00  0.00     0.155 C 
HETATM    5  C   UNL     1      43.562 -16.814   3.760  1.00  0.00     0.001 C 
HETATM    6  C   UNL     1      43.713 -17.574   4.858  1.00  0.00    -0.046 C 
HETATM    7  C   UNL     1      43.476 -16.962   6.207  1.00  0.00     0.059 C 
HETATM    8  C   UNL     1      42.477 -15.806   6.127  1.00  0.00     0.132 C 
HETATM    9  O   UNL     1      42.650 -12.779   4.094  1.00  0.00    -0.247 OA
HETATM   10  H   UNL     1      41.281 -13.809   6.753  1.00  0.00     0.171 HD
ENDROOT
BRANCH   1  11
HETATM   11  C   UNL     1      41.147 -11.812   6.426  1.00  0.00     0.072 A 
HETATM   12  C   UNL     1      39.919 -11.471   5.808  1.00  0.00     0.095 A 
HETATM   13  C   UNL     1      39.350 -10.213   6.034  1.00  0.00     0.042 A 
HETATM   14  C   UNL     1      39.995  -9.297   6.865  1.00  0.00     0.045 A 
HETATM   15  C   UNL     1      41.198  -9.644   7.470  1.00  0.00     0.118 A 
HETATM   16  C   UNL     1      41.777 -10.891   7.263  1.00  0.00     0.074 A 
HETATM   17  F   UNL     1      41.806  -8.758   8.270  1.00  0.00    -0.206 F 
BRANCH  12  18
HETATM   18  O   UNL     1      39.373 -12.447   5.006  1.00  0.00    -0.354 OA
HETATM   19  C   UNL     1      39.066 -12.084   3.664  1.00  0.00     0.210 C 
ENDBRANCH  12  18
ENDBRANCH   1  11
BRANCH   6  20
HETATM   20  C   UNL     1      44.021 -18.975   4.835  1.00  0.00    -0.002 A 
HETATM   21  C   UNL     1      44.060 -19.882   3.725  1.00  0.00     0.003 A 
HETATM   22  C   UNL     1      44.446 -21.128   4.229  1.00  0.00     0.043 A 
HETATM   23  C   UNL     1      43.802 -19.783   2.340  1.00  0.00     0.014 A 
HETATM   24  C   UNL     1      44.603 -22.263   3.423  1.00  0.00     0.030 A 
HETATM   25  N   UNL     1      44.615 -20.985   5.586  1.00  0.00    -0.364 N 
HETATM   26  C   UNL     1      44.353 -22.128   2.055  1.00  0.00     0.002 A 
HETATM   27  C   UNL     1      43.955 -20.908   1.518  1.00  0.00     0.001 A 
HETATM   28  H   UNL     1      44.889 -21.731   6.210  1.00  0.00     0.165 HD
HETATM   29  C   UNL     1      44.362 -19.695   5.962  1.00  0.00     0.101 A 
ENDBRANCH   6  20
TORSDOF 3
ENDMDL
MODEL 7
REMARK VINA RESULT:      -8.6      1.982      2.542
REMARK  3 active torsions:
REMARK  status: ('A' for Active; 'I' for Inactive)
REMARK    1  A    between atoms: O_2  and  C_3 
REMARK    2  A    between atoms: C_4  and  N_5 
REMARK       I    between atoms: N_5  and  C_6 
REMARK       I    between atoms: C_6  and  N_7 
REMARK    3  A    between atoms: C_10  and  C_11 
ROOT
HETATM    1  N   UNL     1      40.021 -14.007  -0.745  1.00  0.00    -0.306 N 
HETATM    2  C   UNL     1      39.595 -14.480   0.472  1.00  0.00     0.323 C 
HETATM    3  N   UNL     1      40.450 -15.399   1.088  1.00  0.00    -0.330 N 
HETATM    4  C   UNL     1      40.210 -15.582   2.517  1.00  0.00     0.155 C 
HETATM    5  C   UNL     1      41.150 -16.536   3.182  1.00  0.00     0.001 C 
HETATM    6  C   UNL     1      42.048 -17.311   2.550  1.00  0.00    -0.046 C 
HETATM    7  C   UNL     1      42.152 -17.237   1.055  1.00  0.00     0.059 C 
HETATM    8  C   UNL     1      41.726 -15.863   0.535  1.00  0.00     0.132 C 
HETATM    9  O   UNL     1      38.557 -14.120   1.024  1.00  0.00    -0.247 OA
HETATM   10  H   UNL     1      40.983 -14.164  -1.005  1.00  0.00     0.171 HD
ENDROOT
BRANCH   1  11
HETATM   11  C   UNL     1      39.368 -13.095  -1.608  1.00  0.00     0.072 A 
HETATM   12  C   UNL     1      39.963 -11.818  -1.747  1.00  0.00     0.095 A 
HETATM   13  C   UNL     1      39.372 -10.860  -2.579  1.00  0.00     0.042 A 
HETATM   14  C   UNL     1      38.197 -11.166  -3.267  1.00  0.00     0.045 A 
HETATM   15  C   UNL     1      37.625 -12.425  -3.125  1.00  0.00     0.118 A 
HETATM   16  C   UNL     1      38.198 -13.392  -2.308  1.00  0.00     0.074 A 
HETATM   17  F   UNL     1      36.498 -12.708  -3.794  1.00  0.00    -0.206 F 
BRANCH  12  18
HETATM   18  O   UNL     1      41.116 -11.623  -1.021  1.00  0.00    -0.354 OA
HETATM   19  C   UNL     1      42.312 -11.392  -1.757  1.00  0.00     0.210 C 
ENDBRANCH  12  18
ENDBRANCH   1  11
BRANCH   6  20
HETATM   20  C   UNL     1      42.984 -18.170   3.216  1.00  0.00    -0.002 A 
HETATM   21  C   UNL     1      43.412 -19.494   2.872  1.00  0.00     0.003 A 
HETATM   22  C   UNL     1      44.362 -19.877   3.824  1.00  0.00     0.043 A 
HETATM   23  C   UNL     1      43.090 -20.418   1.853  1.00  0.00     0.014 A 
HETATM   24  C   UNL     1      45.012 -21.118   3.798  1.00  0.00     0.030 A 
HETATM   25  N   UNL     1      44.489 -18.839   4.715  1.00  0.00    -0.364 N 
HETATM   26  C   UNL     1      44.681 -22.004   2.770  1.00  0.00     0.002 A 
HETATM   27  C   UNL     1      43.732 -21.663   1.811  1.00  0.00     0.001 A 
HETATM   28  H   UNL     1      45.106 -18.844   5.515  1.00  0.00     0.165 HD
HETATM   29  C   UNL     1      43.666 -17.806   4.360  1.00  0.00     0.101 A 
ENDBRANCH   6  20
TORSDOF 3
ENDMDL
MODEL 8
REMARK VINA RESULT:      -8.5      1.726      2.038
REMARK  3 active torsions:
REMARK  status: ('A' for Active; 'I' for Inactive)
REMARK    1  A    between atoms: O_2  and  C_3 
REMARK    2  A    between atoms: C_4  and  N_5 
REMARK       I    between atoms: N_5  and  C_6 
REMARK       I    between atoms: C_6  and  N_7 
REMARK    3  A    between atoms: C_10  and  C_11 
ROOT
HETATM    1  N   UNL     1      41.865 -13.211   0.311  1.00  0.00    -0.306 N 
HETATM    2  C   UNL     1      41.585 -14.516  -0.011  1.00  0.00     0.323 C 
HETATM    3  N   UNL     1      42.145 -15.474   0.842  1.00  0.00    -0.330 N 
HETATM    4  C   UNL     1      41.531 -16.796   0.749  1.00  0.00     0.155 C 
HETATM    5  C   UNL     1      42.104 -17.809   1.688  1.00  0.00     0.001 C 
HETATM    6  C   UNL     1      43.192 -17.629   2.455  1.00  0.00    -0.046 C 
HETATM    7  C   UNL     1      43.917 -16.316   2.399  1.00  0.00     0.059 C 
HETATM    8  C   UNL     1      42.973 -15.176   2.014  1.00  0.00     0.132 C 
HETATM    9  O   UNL     1      40.872 -14.855  -0.954  1.00  0.00    -0.247 OA
HETATM   10  H   UNL     1      42.245 -13.018   1.225  1.00  0.00     0.171 HD
ENDROOT
BRANCH   1  11
HETATM   11  C   UNL     1      41.464 -12.037  -0.369  1.00  0.00     0.072 A 
HETATM   12  C   UNL     1      40.277 -11.414   0.088  1.00  0.00     0.095 A 
HETATM   13  C   UNL     1      39.814 -10.251  -0.538  1.00  0.00     0.042 A 
HETATM   14  C   UNL     1      40.521  -9.711  -1.612  1.00  0.00     0.045 A 
HETATM   15  C   UNL     1      41.686 -10.328  -2.049  1.00  0.00     0.118 A 
HETATM   16  C   UNL     1      42.166 -11.481  -1.438  1.00  0.00     0.074 A 
HETATM   17  F   UNL     1      42.359  -9.797  -3.079  1.00  0.00    -0.206 F 
BRANCH  12  18
HETATM   18  O   UNL     1      39.659 -12.035   1.150  1.00  0.00    -0.354 OA
HETATM   19  C   UNL     1      38.528 -11.378   1.712  1.00  0.00     0.210 C 
ENDBRANCH  12  18
ENDBRANCH   1  11
BRANCH   6  20
HETATM   20  C   UNL     1      43.684 -18.592   3.398  1.00  0.00    -0.002 A 
HETATM   21  C   UNL     1      43.986 -19.981   3.210  1.00  0.00     0.003 A 
HETATM   22  C   UNL     1      44.467 -20.464   4.431  1.00  0.00     0.043 A 
HETATM   23  C   UNL     1      43.899 -20.888   2.131  1.00  0.00     0.014 A 
HETATM   24  C   UNL     1      44.876 -21.791   4.621  1.00  0.00     0.030 A 
HETATM   25  N   UNL     1      44.438 -19.419   5.324  1.00  0.00    -0.364 N 
HETATM   26  C   UNL     1      44.789 -22.659   3.530  1.00  0.00     0.002 A 
HETATM   27  C   UNL     1      44.306 -22.218   2.302  1.00  0.00     0.001 A 
HETATM   28  H   UNL     1      44.725 -19.484   6.290  1.00  0.00     0.165 HD
HETATM   29  C   UNL     1      43.969 -18.288   4.714  1.00  0.00     0.101 A 
ENDBRANCH   6  20
TORSDOF 3
ENDMDL
MODEL 9
REMARK VINA RESULT:      -8.5      5.680      9.783
REMARK  3 active torsions:
REMARK  status: ('A' for Active; 'I' for Inactive)
REMARK    1  A    between atoms: O_2  and  C_3 
REMARK    2  A    between atoms: C_4  and  N_5 
REMARK       I    between atoms: N_5  and  C_6 
REMARK       I    between atoms: C_6  and  N_7 
REMARK    3  A    between atoms: C_10  and  C_11 
ROOT
HETATM    1  N   UNL     1      43.174 -17.380   4.378  1.00  0.00    -0.306 N 
HETATM    2  C   UNL     1      41.942 -17.067   4.896  1.00  0.00     0.323 C 
HETATM    3  N   UNL     1      41.743 -15.713   5.185  1.00  0.00    -0.330 N 
HETATM    4  C   UNL     1      40.343 -15.329   5.341  1.00  0.00     0.155 C 
HETATM    5  C   UNL     1      40.129 -13.874   5.612  1.00  0.00     0.001 C 
HETATM    6  C   UNL     1      41.099 -12.980   5.863  1.00  0.00    -0.046 C 
HETATM    7  C   UNL     1      42.528 -13.437   5.875  1.00  0.00     0.059 C 
HETATM    8  C   UNL     1      42.732 -14.652   4.969  1.00  0.00     0.132 C 
HETATM    9  O   UNL     1      41.043 -17.887   5.077  1.00  0.00    -0.247 OA
HETATM   10  H   UNL     1      43.752 -16.627   4.037  1.00  0.00     0.171 HD
ENDROOT
BRANCH   1  11
HETATM   11  C   UNL     1      43.672 -18.654   4.012  1.00  0.00     0.072 A 
HETATM   12  C   UNL     1      44.400 -19.357   5.002  1.00  0.00     0.095 A 
HETATM   13  C   UNL     1      44.929 -20.621   4.713  1.00  0.00     0.042 A 
HETATM   14  C   UNL     1      44.739 -21.182   3.450  1.00  0.00     0.045 A 
HETATM   15  C   UNL     1      44.019 -20.483   2.488  1.00  0.00     0.118 A 
HETATM   16  C   UNL     1      43.482 -19.230   2.756  1.00  0.00     0.074 A 
HETATM   17  F   UNL     1      43.840 -21.035   1.280  1.00  0.00    -0.206 F 
BRANCH  12  18
HETATM   18  O   UNL     1      44.530 -18.709   6.209  1.00  0.00    -0.354 OA
HETATM   19  C   UNL     1      43.859 -19.282   7.326  1.00  0.00     0.210 C 
ENDBRANCH  12  18
ENDBRANCH   1  11
BRANCH   6  20
HETATM   20  C   UNL     1      40.874 -11.576   6.053  1.00  0.00    -0.002 A 
HETATM   21  C   UNL     1      40.174 -10.899   7.105  1.00  0.00     0.003 A 
HETATM   22  C   UNL     1      40.270  -9.528   6.845  1.00  0.00     0.043 A 
HETATM   23  C   UNL     1      39.458 -11.302   8.255  1.00  0.00     0.014 A 
HETATM   24  C   UNL     1      39.708  -8.551   7.677  1.00  0.00     0.030 A 
HETATM   25  N   UNL     1      40.980  -9.383   5.677  1.00  0.00    -0.364 N 
HETATM   26  C   UNL     1      39.018  -8.983   8.813  1.00  0.00     0.002 A 
HETATM   27  C   UNL     1      38.892 -10.339   9.099  1.00  0.00     0.001 A 
HETATM   28  H   UNL     1      41.197  -8.496   5.246  1.00  0.00     0.165 HD
HETATM   29  C   UNL     1      41.349 -10.607   5.192  1.00  0.00     0.101 A 
ENDBRANCH   6  20
TORSDOF 3
ENDMDL
MODEL 10
REMARK VINA RESULT:      -8.4      5.519      6.922
REMARK  3 active torsions:
REMARK  status: ('A' for Active; 'I' for Inactive)
REMARK    1  A    between atoms: O_2  and  C_3 
REMARK    2  A    between atoms: C_4  and  N_5 
REMARK       I    between atoms: N_5  and  C_6 
REMARK       I    between atoms: C_6  and  N_7 
REMARK    3  A    between atoms: C_10  and  C_11 
ROOT
HETATM    1  N   UNL     1      40.967 -12.143   6.624  1.00  0.00    -0.306 N 
HETATM    2  C   UNL     1      40.359 -13.191   5.979  1.00  0.00     0.323 C 
HETATM    3  N   UNL     1      41.183 -14.293   5.723  1.00  0.00    -0.330 N 
HETATM    4  C   UNL     1      40.463 -15.526   5.420  1.00  0.00     0.155 C 
HETATM    5  C   UNL     1      41.344 -16.712   5.185  1.00  0.00     0.001 C 
HETATM    6  C   UNL     1      42.683 -16.678   5.086  1.00  0.00    -0.046 C 
HETATM    7  C   UNL     1      43.392 -15.362   5.223  1.00  0.00     0.059 C 
HETATM    8  C   UNL     1      42.597 -14.390   6.097  1.00  0.00     0.132 C 
HETATM    9  O   UNL     1      39.171 -13.208   5.660  1.00  0.00    -0.247 OA
HETATM   10  H   UNL     1      41.861 -12.307   7.061  1.00  0.00     0.171 HD
ENDROOT
BRANCH   1  11
HETATM   11  C   UNL     1      40.404 -10.898   6.994  1.00  0.00     0.072 A 
HETATM   12  C   UNL     1      40.653  -9.808   6.126  1.00  0.00     0.095 A 
HETATM   13  C   UNL     1      40.134  -8.543   6.427  1.00  0.00     0.042 A 
HETATM   14  C   UNL     1      39.375  -8.360   7.583  1.00  0.00     0.045 A 
HETATM   15  C   UNL     1      39.134  -9.439   8.425  1.00  0.00     0.118 A 
HETATM   16  C   UNL     1      39.636 -10.704   8.142  1.00  0.00     0.074 A 
HETATM   17  F   UNL     1      38.399  -9.252   9.531  1.00  0.00    -0.206 F 
BRANCH  12  18
HETATM   18  O   UNL     1      41.416 -10.100   5.018  1.00  0.00    -0.354 OA
HETATM   19  C   UNL     1      40.812  -9.898   3.745  1.00  0.00     0.210 C 
ENDBRANCH  12  18
ENDBRANCH   1  11
BRANCH   6  20
HETATM   20  C   UNL     1      43.511 -17.838   4.927  1.00  0.00    -0.002 A 
HETATM   21  C   UNL     1      43.542 -18.799   3.863  1.00  0.00     0.003 A 
HETATM   22  C   UNL     1      44.551 -19.717   4.170  1.00  0.00     0.043 A 
HETATM   23  C   UNL     1      42.814 -18.994   2.668  1.00  0.00     0.014 A 
HETATM   24  C   UNL     1      44.877 -20.799   3.341  1.00  0.00     0.030 A 
HETATM   25  N   UNL     1      45.094 -19.340   5.375  1.00  0.00    -0.364 N 
HETATM   26  C   UNL     1      44.148 -20.956   2.160  1.00  0.00     0.002 A 
HETATM   27  C   UNL     1      43.129 -20.069   1.827  1.00  0.00     0.001 A 
HETATM   28  H   UNL     1      45.843 -19.830   5.843  1.00  0.00     0.165 HD
HETATM   29  C   UNL     1      44.477 -18.211   5.841  1.00  0.00     0.101 A 
ENDBRANCH   6  20
TORSDOF 3
ENDMDL
