MODEL 1
REMARK VINA RESULT:      -7.7      0.000      0.000
REMARK  5 active torsions:
REMARK  status: ('A' for Active; 'I' for Inactive)
REMARK    1  A    between atoms: C_8  and  N_9 
REMARK       I    between atoms: N_9  and  C_10 
REMARK    2  A    between atoms: C_10  and  C_11 
REMARK    3  A    between atoms: C_11  and  N_12 
REMARK    4  A    between atoms: N_12  and  C_13 
REMARK    5  A    between atoms: C_13  and  C_14 
ROOT
HETATM    1  C   UNL     1      41.356 -16.875   1.211  1.00  0.00     0.372 C 
ENDROOT
BRANCH   1   2
HETATM    2  C   UNL     1      40.468 -16.042   2.149  1.00  0.00     0.250 C 
HETATM    3  N   UNL     1      41.135 -15.659   3.293  1.00  0.00    -0.322 N 
HETATM    4  H   UNL     1      42.102 -15.975   3.339  1.00  0.00     0.169 HD
HETATM    5  O   UNL     1      39.317 -15.764   1.832  1.00  0.00    -0.271 OA
BRANCH   3   6
HETATM    6  C   UNL     1      40.647 -14.949   4.373  1.00  0.00     0.085 A 
HETATM    7  C   UNL     1      40.569 -15.516   5.631  1.00  0.00     0.052 A 
HETATM    8  C   UNL     1      40.928 -16.858   6.148  1.00  0.00     0.072 C 
HETATM    9  N   UNL     1      40.040 -14.554   6.443  1.00  0.00    -0.280 N 
HETATM   10  H   UNL     1      39.837 -14.612   7.435  1.00  0.00     0.189 HD
HETATM   11  N   UNL     1      39.766 -13.408   5.815  1.00  0.00    -0.177 NA
HETATM   12  C   UNL     1      40.136 -13.629   4.543  1.00  0.00     0.079 A 
HETATM   13  C   UNL     1      39.960 -12.527   3.565  1.00  0.00     0.075 C 
ENDBRANCH   3   6
ENDBRANCH   1   2
BRANCH   1  14
HETATM   14  N   UNL     1      41.740 -18.149   1.861  1.00  0.00     0.100 N 
HETATM   15  H   UNL     1      41.259 -18.907   1.371  1.00  0.00     0.317 HD
BRANCH  14  16
HETATM   16  C   UNL     1      43.188 -18.437   1.824  1.00  0.00     0.251 C 
HETATM   17  C   UNL     1      43.963 -17.317   1.109  1.00  0.00     0.048 C 
BRANCH  16  18
HETATM   18  C   UNL     1      43.750 -18.874   3.175  1.00  0.00    -0.002 A 
HETATM   19  C   UNL     1      44.166 -20.207   3.413  1.00  0.00     0.064 A 
HETATM   20 CL   UNL     1      44.045 -21.403   2.154  1.00  0.00    -0.082 Cl
HETATM   21  C   UNL     1      44.679 -20.575   4.671  1.00  0.00     0.056 A 
HETATM   22 CL   UNL     1      45.219 -22.180   5.027  1.00  0.00    -0.083 Cl
HETATM   23  C   UNL     1      44.775 -19.635   5.698  1.00  0.00     0.026 A 
HETATM   24  C   UNL     1      44.357 -18.326   5.483  1.00  0.00     0.002 A 
HETATM   25  C   UNL     1      43.849 -17.952   4.238  1.00  0.00     0.011 A 
ENDBRANCH  16  18
ENDBRANCH  14  16
ENDBRANCH   1  14
TORSDOF 5
ENDMDL
MODEL 2
REMARK VINA RESULT:      -7.6      2.130      3.500
REMARK  5 active torsions:
REMARK  status: ('A' for Active; 'I' for Inactive)
REMARK    1  A    between atoms: C_8  and  N_9 
REMARK       I    between atoms: N_9  and  C_10 
REMARK    2  A    between atoms: C_10  and  C_11 
REMARK    3  A    between atoms: C_11  and  N_12 
REMARK    4  A    between atoms: N_12  and  C_13 
REMARK    5  A    between atoms: C_13  and  C_14 
ROOT
HETATM    1  C   UNL     1      42.701 -16.782   5.970  1.00  0.00     0.372 C 
ENDROOT
BRANCH   1   2
HETATM    2  C   UNL     1      41.430 -16.179   5.350  1.00  0.00     0.250 C 
HETATM    3  N   UNL     1      41.527 -16.054   3.982  1.00  0.00    -0.322 N 
HETATM    4  H   UNL     1      42.410 -16.381   3.593  1.00  0.00     0.169 HD
HETATM    5  O   UNL     1      40.468 -15.898   6.056  1.00  0.00    -0.271 OA
BRANCH   3   6
HETATM    6  C   UNL     1      40.608 -15.516   3.102  1.00  0.00     0.085 A 
HETATM    7  C   UNL     1      40.274 -16.161   1.926  1.00  0.00     0.052 A 
HETATM    8  C   UNL     1      40.721 -17.439   1.325  1.00  0.00     0.072 C 
HETATM    9  N   UNL     1      39.361 -15.358   1.304  1.00  0.00    -0.280 N 
HETATM   10  H   UNL     1      38.895 -15.509   0.417  1.00  0.00     0.189 HD
HETATM   11  N   UNL     1      39.077 -14.241   1.978  1.00  0.00    -0.177 NA
HETATM   12  C   UNL     1      39.829 -14.322   3.088  1.00  0.00     0.079 A 
HETATM   13  C   UNL     1      39.740 -13.213   4.071  1.00  0.00     0.075 C 
ENDBRANCH   3   6
ENDBRANCH   1   2
BRANCH   1  14
HETATM   14  N   UNL     1      42.875 -18.184   5.528  1.00  0.00     0.100 N 
HETATM   15  H   UNL     1      42.290 -18.326   4.701  1.00  0.00     0.317 HD
BRANCH  14  16
HETATM   16  C   UNL     1      44.262 -18.539   5.164  1.00  0.00     0.251 C 
HETATM   17  C   UNL     1      45.251 -18.132   6.270  1.00  0.00     0.048 C 
BRANCH  16  18
HETATM   18  C   UNL     1      44.402 -19.966   4.641  1.00  0.00    -0.002 A 
HETATM   19  C   UNL     1      44.255 -20.274   3.267  1.00  0.00     0.064 A 
HETATM   20 CL   UNL     1      43.905 -19.015   2.117  1.00  0.00    -0.082 Cl
HETATM   21  C   UNL     1      44.390 -21.602   2.820  1.00  0.00     0.056 A 
HETATM   22 CL   UNL     1      44.238 -22.048   1.154  1.00  0.00    -0.083 Cl
HETATM   23  C   UNL     1      44.660 -22.629   3.726  1.00  0.00     0.026 A 
HETATM   24  C   UNL     1      44.791 -22.344   5.080  1.00  0.00     0.002 A 
HETATM   25  C   UNL     1      44.661 -21.030   5.532  1.00  0.00     0.011 A 
ENDBRANCH  16  18
ENDBRANCH  14  16
ENDBRANCH   1  14
TORSDOF 5
ENDMDL
MODEL 3
REMARK VINA RESULT:      -7.3      3.596      6.909
REMARK  5 active torsions:
REMARK  status: ('A' for Active; 'I' for Inactive)
REMARK    1  A    between atoms: C_8  and  N_9 
REMARK       I    between atoms: N_9  and  C_10 
REMARK    2  A    between atoms: C_10  and  C_11 
REMARK    3  A    between atoms: C_11  and  N_12 
REMARK    4  A    between atoms: N_12  and  C_13 
REMARK    5  A    between atoms: C_13  and  C_14 
ROOT
HETATM    1  C   UNL     1      44.404 -18.268   6.930  1.00  0.00     0.372 C 
ENDROOT
BRANCH   1   2
HETATM    2  C   UNL     1      44.138 -19.577   6.169  1.00  0.00     0.250 C 
HETATM    3  N   UNL     1      44.588 -19.523   4.868  1.00  0.00    -0.322 N 
HETATM    4  H   UNL     1      45.028 -18.641   4.613  1.00  0.00     0.169 HD
HETATM    5  O   UNL     1      43.609 -20.528   6.734  1.00  0.00    -0.271 OA
BRANCH   3   6
HETATM    6  C   UNL     1      44.480 -20.486   3.882  1.00  0.00     0.085 A 
HETATM    7  C   UNL     1      44.061 -20.164   2.605  1.00  0.00     0.052 A 
HETATM    8  C   UNL     1      43.659 -18.883   1.977  1.00  0.00     0.072 C 
HETATM    9  N   UNL     1      44.060 -21.336   1.905  1.00  0.00    -0.280 N 
HETATM   10  H   UNL     1      43.808 -21.487   0.934  1.00  0.00     0.189 HD
HETATM   11  N   UNL     1      44.441 -22.395   2.624  1.00  0.00    -0.177 NA
HETATM   12  C   UNL     1      44.708 -21.892   3.840  1.00  0.00     0.079 A 
HETATM   13  C   UNL     1      45.168 -22.829   4.895  1.00  0.00     0.075 C 
ENDBRANCH   3   6
ENDBRANCH   1   2
BRANCH   1  14
HETATM   14  N   UNL     1      44.607 -17.151   5.979  1.00  0.00     0.100 N 
HETATM   15  H   UNL     1      44.536 -17.531   5.032  1.00  0.00     0.317 HD
BRANCH  14  16
HETATM   16  C   UNL     1      43.617 -16.062   6.102  1.00  0.00     0.251 C 
HETATM   17  C   UNL     1      44.143 -14.927   6.998  1.00  0.00     0.048 C 
BRANCH  16  18
HETATM   18  C   UNL     1      43.027 -15.629   4.762  1.00  0.00    -0.002 A 
HETATM   19  C   UNL     1      41.993 -16.363   4.132  1.00  0.00     0.064 A 
HETATM   20 CL   UNL     1      41.356 -17.801   4.876  1.00  0.00    -0.082 Cl
HETATM   21  C   UNL     1      41.474 -15.935   2.895  1.00  0.00     0.056 A 
HETATM   22 CL   UNL     1      40.201 -16.774   2.075  1.00  0.00    -0.083 Cl
HETATM   23  C   UNL     1      41.977 -14.791   2.274  1.00  0.00     0.026 A 
HETATM   24  C   UNL     1      43.003 -14.069   2.875  1.00  0.00     0.002 A 
HETATM   25  C   UNL     1      43.522 -14.484   4.102  1.00  0.00     0.011 A 
ENDBRANCH  16  18
ENDBRANCH  14  16
ENDBRANCH   1  14
TORSDOF 5
ENDMDL
MODEL 4
REMARK VINA RESULT:      -7.3      2.968      4.528
REMARK  5 active torsions:
REMARK  status: ('A' for Active; 'I' for Inactive)
REMARK    1  A    between atoms: C_8  and  N_9 
REMARK       I    between atoms: N_9  and  C_10 
REMARK    2  A    between atoms: C_10  and  C_11 
REMARK    3  A    between atoms: C_11  and  N_12 
REMARK    4  A    between atoms: N_12  and  C_13 
REMARK    5  A    between atoms: C_13  and  C_14 
ROOT
HETATM    1  C   UNL     1      42.639 -15.701   2.082  1.00  0.00     0.372 C 
ENDROOT
BRANCH   1   2
HETATM    2  C   UNL     1      41.724 -15.927   0.867  1.00  0.00     0.250 C 
HETATM    3  N   UNL     1      41.108 -14.765   0.456  1.00  0.00    -0.322 N 
HETATM    4  H   UNL     1      41.354 -13.944   1.005  1.00  0.00     0.169 HD
HETATM    5  O   UNL     1      41.630 -17.038   0.358  1.00  0.00    -0.271 OA
BRANCH   3   6
HETATM    6  C   UNL     1      40.191 -14.595  -0.564  1.00  0.00     0.085 A 
HETATM    7  C   UNL     1      38.897 -14.182  -0.306  1.00  0.00     0.052 A 
HETATM    8  C   UNL     1      38.187 -13.840   0.949  1.00  0.00     0.072 C 
HETATM    9  N   UNL     1      38.272 -14.130  -1.519  1.00  0.00    -0.280 N 
HETATM   10  H   UNL     1      37.313 -13.869  -1.720  1.00  0.00     0.189 HD
HETATM   11  N   UNL     1      39.053 -14.478  -2.544  1.00  0.00    -0.177 NA
HETATM   12  C   UNL     1      40.238 -14.763  -1.978  1.00  0.00     0.079 A 
HETATM   13  C   UNL     1      41.348 -15.189  -2.866  1.00  0.00     0.075 C 
ENDBRANCH   3   6
ENDBRANCH   1   2
BRANCH   1  14
HETATM   14  N   UNL     1      43.656 -16.774   2.167  1.00  0.00     0.100 N 
HETATM   15  H   UNL     1      44.578 -16.334   2.116  1.00  0.00     0.317 HD
BRANCH  14  16
HETATM   16  C   UNL     1      43.603 -17.563   3.414  1.00  0.00     0.251 C 
HETATM   17  C   UNL     1      42.360 -17.207   4.248  1.00  0.00     0.048 C 
BRANCH  16  18
HETATM   18  C   UNL     1      43.848 -19.054   3.194  1.00  0.00    -0.002 A 
HETATM   19  C   UNL     1      44.439 -19.866   4.193  1.00  0.00     0.064 A 
HETATM   20 CL   UNL     1      44.909 -19.179   5.720  1.00  0.00    -0.082 Cl
HETATM   21  C   UNL     1      44.651 -21.237   3.956  1.00  0.00     0.056 A 
HETATM   22 CL   UNL     1      45.354 -22.292   5.135  1.00  0.00    -0.083 Cl
HETATM   23  C   UNL     1      44.292 -21.808   2.733  1.00  0.00     0.026 A 
HETATM   24  C   UNL     1      43.725 -21.019   1.738  1.00  0.00     0.002 A 
HETATM   25  C   UNL     1      43.509 -19.659   1.965  1.00  0.00     0.011 A 
ENDBRANCH  16  18
ENDBRANCH  14  16
ENDBRANCH   1  14
TORSDOF 5
ENDMDL
MODEL 5
REMARK VINA RESULT:      -7.3      2.506      4.139
REMARK  5 active torsions:
REMARK  status: ('A' for Active; 'I' for Inactive)
REMARK    1  A    between atoms: C_8  and  N_9 
REMARK       I    between atoms: N_9  and  C_10 
REMARK    2  A    between atoms: C_10  and  C_11 
REMARK    3  A    between atoms: C_11  and  N_12 
REMARK    4  A    between atoms: N_12  and  C_13 
REMARK    5  A    between atoms: C_13  and  C_14 
ROOT
HETATM    1  C   UNL     1      42.597 -14.917   4.969  1.00  0.00     0.372 C 
ENDROOT
BRANCH   1   2
HETATM    2  C   UNL     1      42.907 -14.450   3.537  1.00  0.00     0.250 C 
HETATM    3  N   UNL     1      41.874 -14.720   2.666  1.00  0.00    -0.322 N 
HETATM    4  H   UNL     1      41.070 -15.173   3.098  1.00  0.00     0.169 HD
HETATM    5  O   UNL     1      43.963 -13.882   3.283  1.00  0.00    -0.271 OA
BRANCH   3   6
HETATM    6  C   UNL     1      41.816 -14.489   1.305  1.00  0.00     0.085 A 
HETATM    7  C   UNL     1      41.715 -15.530   0.402  1.00  0.00     0.052 A 
HETATM    8  C   UNL     1      41.645 -17.001   0.574  1.00  0.00     0.072 C 
HETATM    9  N   UNL     1      41.693 -14.952  -0.835  1.00  0.00    -0.280 N 
HETATM   10  H   UNL     1      41.627 -15.407  -1.739  1.00  0.00     0.189 HD
HETATM   11  N   UNL     1      41.773 -13.619  -0.810  1.00  0.00    -0.177 NA
HETATM   12  C   UNL     1      41.845 -13.315   0.497  1.00  0.00     0.079 A 
HETATM   13  C   UNL     1      41.943 -11.883   0.873  1.00  0.00     0.075 C 
ENDBRANCH   3   6
ENDBRANCH   1   2
BRANCH   1  14
HETATM   14  N   UNL     1      43.523 -15.999   5.370  1.00  0.00     0.100 N 
HETATM   15  H   UNL     1      43.950 -15.731   6.260  1.00  0.00     0.317 HD
BRANCH  14  16
HETATM   16  C   UNL     1      42.877 -17.313   5.560  1.00  0.00     0.251 C 
HETATM   17  C   UNL     1      41.345 -17.201   5.465  1.00  0.00     0.048 C 
BRANCH  16  18
HETATM   18  C   UNL     1      43.513 -18.424   4.729  1.00  0.00    -0.002 A 
HETATM   19  C   UNL     1      43.985 -19.621   5.322  1.00  0.00     0.064 A 
HETATM   20 CL   UNL     1      43.852 -19.862   7.040  1.00  0.00    -0.082 Cl
HETATM   21  C   UNL     1      44.567 -20.624   4.525  1.00  0.00     0.056 A 
HETATM   22 CL   UNL     1      45.152 -22.116   5.179  1.00  0.00    -0.083 Cl
HETATM   23  C   UNL     1      44.694 -20.448   3.146  1.00  0.00     0.026 A 
HETATM   24  C   UNL     1      44.248 -19.272   2.553  1.00  0.00     0.002 A 
HETATM   25  C   UNL     1      43.667 -18.273   3.335  1.00  0.00     0.011 A 
ENDBRANCH  16  18
ENDBRANCH  14  16
ENDBRANCH   1  14
TORSDOF 5
ENDMDL
MODEL 6
REMARK VINA RESULT:      -7.2      3.307      5.895
REMARK  5 active torsions:
REMARK  status: ('A' for Active; 'I' for Inactive)
REMARK    1  A    between atoms: C_8  and  N_9 
REMARK       I    between atoms: N_9  and  C_10 
REMARK    2  A    between atoms: C_10  and  C_11 
REMARK    3  A    between atoms: C_11  and  N_12 
REMARK    4  A    between atoms: N_12  and  C_13 
REMARK    5  A    between atoms: C_13  and  C_14 
ROOT
HETATM    1  C   UNL     1      42.194 -17.138   1.039  1.00  0.00     0.372 C 
ENDROOT
BRANCH   1   2
HETATM    2  C   UNL     1      43.410 -17.838   1.668  1.00  0.00     0.250 C 
HETATM    3  N   UNL     1      43.059 -18.987   2.341  1.00  0.00    -0.322 N 
HETATM    4  H   UNL     1      42.063 -19.201   2.314  1.00  0.00     0.169 HD
HETATM    5  O   UNL     1      44.537 -17.379   1.518  1.00  0.00    -0.271 OA
BRANCH   3   6
HETATM    6  C   UNL     1      43.871 -19.842   3.061  1.00  0.00     0.085 A 
HETATM    7  C   UNL     1      44.150 -21.119   2.611  1.00  0.00     0.052 A 
HETATM    8  C   UNL     1      43.736 -21.866   1.399  1.00  0.00     0.072 C 
HETATM    9  N   UNL     1      44.959 -21.681   3.556  1.00  0.00    -0.280 N 
HETATM   10  H   UNL     1      45.362 -22.611   3.564  1.00  0.00     0.189 HD
HETATM   11  N   UNL     1      45.227 -20.874   4.586  1.00  0.00    -0.177 NA
HETATM   12  C   UNL     1      44.571 -19.738   4.298  1.00  0.00     0.079 A 
HETATM   13  C   UNL     1      44.668 -18.615   5.263  1.00  0.00     0.075 C 
ENDBRANCH   3   6
ENDBRANCH   1   2
BRANCH   1  14
HETATM   14  N   UNL     1      41.122 -16.963   2.046  1.00  0.00     0.100 N 
HETATM   15  H   UNL     1      41.204 -17.725   2.724  1.00  0.00     0.317 HD
BRANCH  14  16
HETATM   16  C   UNL     1      41.190 -15.690   2.791  1.00  0.00     0.251 C 
HETATM   17  C   UNL     1      39.885 -14.888   2.647  1.00  0.00     0.048 C 
BRANCH  16  18
HETATM   18  C   UNL     1      41.714 -15.852   4.215  1.00  0.00    -0.002 A 
HETATM   19  C   UNL     1      42.843 -15.134   4.680  1.00  0.00     0.064 A 
HETATM   20 CL   UNL     1      43.678 -14.031   3.624  1.00  0.00    -0.082 Cl
HETATM   21  C   UNL     1      43.299 -15.309   6.000  1.00  0.00     0.056 A 
HETATM   22 CL   UNL     1      44.663 -14.454   6.639  1.00  0.00    -0.083 Cl
HETATM   23  C   UNL     1      42.652 -16.197   6.861  1.00  0.00     0.026 A 
HETATM   24  C   UNL     1      41.551 -16.919   6.414  1.00  0.00     0.002 A 
HETATM   25  C   UNL     1      41.090 -16.751   5.107  1.00  0.00     0.011 A 
ENDBRANCH  16  18
ENDBRANCH  14  16
ENDBRANCH   1  14
TORSDOF 5
ENDMDL
MODEL 7
REMARK VINA RESULT:      -7.0      1.400      2.271
REMARK  5 active torsions:
REMARK  status: ('A' for Active; 'I' for Inactive)
REMARK    1  A    between atoms: C_8  and  N_9 
REMARK       I    between atoms: N_9  and  C_10 
REMARK    2  A    between atoms: C_10  and  C_11 
REMARK    3  A    between atoms: C_11  and  N_12 
REMARK    4  A    between atoms: N_12  and  C_13 
REMARK    5  A    between atoms: C_13  and  C_14 
ROOT
HETATM    1  C   UNL     1      41.416 -16.944   0.959  1.00  0.00     0.372 C 
ENDROOT
BRANCH   1   2
HETATM    2  C   UNL     1      40.959 -15.780   1.852  1.00  0.00     0.250 C 
HETATM    3  N   UNL     1      42.020 -15.058   2.351  1.00  0.00    -0.322 N 
HETATM    4  H   UNL     1      42.933 -15.394   2.051  1.00  0.00     0.169 HD
HETATM    5  O   UNL     1      39.765 -15.564   2.028  1.00  0.00    -0.271 OA
BRANCH   3   6
HETATM    6  C   UNL     1      41.995 -13.982   3.218  1.00  0.00     0.085 A 
HETATM    7  C   UNL     1      41.885 -12.685   2.753  1.00  0.00     0.052 A 
HETATM    8  C   UNL     1      41.774 -12.118   1.388  1.00  0.00     0.072 C 
HETATM    9  N   UNL     1      41.902 -11.887   3.860  1.00  0.00    -0.280 N 
HETATM   10  H   UNL     1      41.842 -10.876   3.906  1.00  0.00     0.189 HD
HETATM   11  N   UNL     1      42.016 -12.559   5.008  1.00  0.00    -0.177 NA
HETATM   12  C   UNL     1      42.070 -13.848   4.635  1.00  0.00     0.079 A 
HETATM   13  C   UNL     1      42.197 -14.876   5.698  1.00  0.00     0.075 C 
ENDBRANCH   3   6
ENDBRANCH   1   2
BRANCH   1  14
HETATM   14  N   UNL     1      41.729 -18.134   1.783  1.00  0.00     0.100 N 
HETATM   15  H   UNL     1      41.176 -18.916   1.423  1.00  0.00     0.317 HD
BRANCH  14  16
HETATM   16  C   UNL     1      43.149 -18.537   1.754  1.00  0.00     0.251 C 
HETATM   17  C   UNL     1      43.998 -17.534   0.954  1.00  0.00     0.048 C 
BRANCH  16  18
HETATM   18  C   UNL     1      43.696 -18.921   3.126  1.00  0.00    -0.002 A 
HETATM   19  C   UNL     1      44.156 -20.231   3.405  1.00  0.00     0.064 A 
HETATM   20 CL   UNL     1      44.110 -21.459   2.173  1.00  0.00    -0.082 Cl
HETATM   21  C   UNL     1      44.652 -20.550   4.683  1.00  0.00     0.056 A 
HETATM   22 CL   UNL     1      45.244 -22.125   5.090  1.00  0.00    -0.083 Cl
HETATM   23  C   UNL     1      44.688 -19.584   5.690  1.00  0.00     0.026 A 
HETATM   24  C   UNL     1      44.225 -18.298   5.435  1.00  0.00     0.002 A 
HETATM   25  C   UNL     1      43.733 -17.972   4.170  1.00  0.00     0.011 A 
ENDBRANCH  16  18
ENDBRANCH  14  16
ENDBRANCH   1  14
TORSDOF 5
ENDMDL
MODEL 8
REMARK VINA RESULT:      -6.8      2.017      2.482
REMARK  5 active torsions:
REMARK  status: ('A' for Active; 'I' for Inactive)
REMARK    1  A    between atoms: C_8  and  N_9 
REMARK       I    between atoms: N_9  and  C_10 
REMARK    2  A    between atoms: C_10  and  C_11 
REMARK    3  A    between atoms: C_11  and  N_12 
REMARK    4  A    between atoms: N_12  and  C_13 
REMARK    5  A    between atoms: C_13  and  C_14 
ROOT
HETATM    1  C   UNL     1      41.700 -17.084   0.876  1.00  0.00     0.372 C 
ENDROOT
BRANCH   1   2
HETATM    2  C   UNL     1      40.826 -16.142   1.721  1.00  0.00     0.250 C 
HETATM    3  N   UNL     1      40.580 -14.947   1.082  1.00  0.00    -0.322 N 
HETATM    4  H   UNL     1      41.001 -14.872   0.158  1.00  0.00     0.169 HD
HETATM    5  O   UNL     1      40.408 -16.499   2.817  1.00  0.00    -0.271 OA
BRANCH   3   6
HETATM    6  C   UNL     1      39.879 -13.852   1.550  1.00  0.00     0.085 A 
HETATM    7  C   UNL     1      40.495 -12.873   2.306  1.00  0.00     0.052 A 
HETATM    8  C   UNL     1      41.889 -12.705   2.782  1.00  0.00     0.072 C 
HETATM    9  N   UNL     1      39.523 -11.962   2.604  1.00  0.00    -0.280 N 
HETATM   10  H   UNL     1      39.608 -11.109   3.145  1.00  0.00     0.189 HD
HETATM   11  N   UNL     1      38.324 -12.270   2.104  1.00  0.00    -0.177 NA
HETATM   12  C   UNL     1      38.523 -13.425   1.450  1.00  0.00     0.079 A 
HETATM   13  C   UNL     1      37.362 -14.047   0.766  1.00  0.00     0.075 C 
ENDBRANCH   3   6
ENDBRANCH   1   2
BRANCH   1  14
HETATM   14  N   UNL     1      42.051 -18.295   1.652  1.00  0.00     0.100 N 
HETATM   15  H   UNL     1      41.677 -19.105   1.151  1.00  0.00     0.317 HD
BRANCH  14  16
HETATM   16  C   UNL     1      43.503 -18.505   1.826  1.00  0.00     0.251 C 
HETATM   17  C   UNL     1      44.306 -17.288   1.334  1.00  0.00     0.048 C 
BRANCH  16  18
HETATM   18  C   UNL     1      43.874 -19.029   3.211  1.00  0.00    -0.002 A 
HETATM   19  C   UNL     1      44.295 -20.366   3.413  1.00  0.00     0.064 A 
HETATM   20 CL   UNL     1      44.401 -21.466   2.069  1.00  0.00    -0.082 Cl
HETATM   21  C   UNL     1      44.629 -20.816   4.704  1.00  0.00     0.056 A 
HETATM   22 CL   UNL     1      45.164 -22.431   5.022  1.00  0.00    -0.083 Cl
HETATM   23  C   UNL     1      44.541 -19.954   5.799  1.00  0.00     0.026 A 
HETATM   24  C   UNL     1      44.114 -18.643   5.617  1.00  0.00     0.002 A 
HETATM   25  C   UNL     1      43.783 -18.187   4.340  1.00  0.00     0.011 A 
ENDBRANCH  16  18
ENDBRANCH  14  16
ENDBRANCH   1  14
TORSDOF 5
ENDMDL
MODEL 9
REMARK VINA RESULT:      -6.6      2.999      4.113
REMARK  5 active torsions:
REMARK  status: ('A' for Active; 'I' for Inactive)
REMARK    1  A    between atoms: C_8  and  N_9 
REMARK       I    between atoms: N_9  and  C_10 
REMARK    2  A    between atoms: C_10  and  C_11 
REMARK    3  A    between atoms: C_11  and  N_12 
REMARK    4  A    between atoms: N_12  and  C_13 
REMARK    5  A    between atoms: C_13  and  C_14 
ROOT
HETATM    1  C   UNL     1      41.024 -16.847   1.341  1.00  0.00     0.372 C 
ENDROOT
BRANCH   1   2
HETATM    2  C   UNL     1      40.926 -15.386   0.871  1.00  0.00     0.250 C 
HETATM    3  N   UNL     1      39.878 -15.189  -0.001  1.00  0.00    -0.322 N 
HETATM    4  H   UNL     1      39.331 -16.025  -0.194  1.00  0.00     0.169 HD
HETATM    5  O   UNL     1      41.710 -14.543   1.294  1.00  0.00    -0.271 OA
BRANCH   3   6
HETATM    6  C   UNL     1      39.515 -14.028  -0.658  1.00  0.00     0.085 A 
HETATM    7  C   UNL     1      40.141 -13.636  -1.826  1.00  0.00     0.052 A 
HETATM    8  C   UNL     1      41.231 -14.241  -2.629  1.00  0.00     0.072 C 
HETATM    9  N   UNL     1      39.552 -12.460  -2.191  1.00  0.00    -0.280 N 
HETATM   10  H   UNL     1      39.755 -11.880  -2.997  1.00  0.00     0.189 HD
HETATM   11  N   UNL     1      38.595 -12.054  -1.353  1.00  0.00    -0.177 NA
HETATM   12  C   UNL     1      38.554 -13.006  -0.407  1.00  0.00     0.079 A 
HETATM   13  C   UNL     1      37.572 -12.851   0.695  1.00  0.00     0.075 C 
ENDBRANCH   3   6
ENDBRANCH   1   2
BRANCH   1  14
HETATM   14  N   UNL     1      41.981 -16.963   2.465  1.00  0.00     0.100 N 
HETATM   15  H   UNL     1      41.456 -17.260   3.292  1.00  0.00     0.317 HD
BRANCH  14  16
HETATM   16  C   UNL     1      43.062 -17.945   2.243  1.00  0.00     0.251 C 
HETATM   17  C   UNL     1      44.106 -17.410   1.248  1.00  0.00     0.048 C 
BRANCH  16  18
HETATM   18  C   UNL     1      43.619 -18.530   3.538  1.00  0.00    -0.002 A 
HETATM   19  C   UNL     1      44.066 -19.872   3.617  1.00  0.00     0.064 A 
HETATM   20 CL   UNL     1      43.991 -20.906   2.220  1.00  0.00    -0.082 Cl
HETATM   21  C   UNL     1      44.574 -20.379   4.827  1.00  0.00     0.056 A 
HETATM   22 CL   UNL     1      45.151 -22.003   4.992  1.00  0.00    -0.083 Cl
HETATM   23  C   UNL     1      44.633 -19.571   5.964  1.00  0.00     0.026 A 
HETATM   24  C   UNL     1      44.183 -18.256   5.905  1.00  0.00     0.002 A 
HETATM   25  C   UNL     1      43.681 -17.744   4.708  1.00  0.00     0.011 A 
ENDBRANCH  16  18
ENDBRANCH  14  16
ENDBRANCH   1  14
TORSDOF 5
ENDMDL
MODEL 10
REMARK VINA RESULT:      -6.5      4.188      7.344
REMARK  5 active torsions:
REMARK  status: ('A' for Active; 'I' for Inactive)
REMARK    1  A    between atoms: C_8  and  N_9 
REMARK       I    between atoms: N_9  and  C_10 
REMARK    2  A    between atoms: C_10  and  C_11 
REMARK    3  A    between atoms: C_11  and  N_12 
REMARK    4  A    between atoms: N_12  and  C_13 
REMARK    5  A    between atoms: C_13  and  C_14 
ROOT
HETATM    1  C   UNL     1      41.331 -15.967   3.940  1.00  0.00     0.372 C 
ENDROOT
BRANCH   1   2
HETATM    2  C   UNL     1      41.853 -17.345   4.380  1.00  0.00     0.250 C 
HETATM    3  N   UNL     1      43.111 -17.607   3.882  1.00  0.00    -0.322 N 
HETATM    4  H   UNL     1      43.501 -16.858   3.314  1.00  0.00     0.169 HD
HETATM    5  O   UNL     1      41.181 -18.058   5.116  1.00  0.00    -0.271 OA
BRANCH   3   6
HETATM    6  C   UNL     1      43.869 -18.753   4.028  1.00  0.00     0.085 A 
HETATM    7  C   UNL     1      44.677 -18.945   5.134  1.00  0.00     0.052 A 
HETATM    8  C   UNL     1      44.945 -18.117   6.333  1.00  0.00     0.072 C 
HETATM    9  N   UNL     1      45.280 -20.156   4.951  1.00  0.00    -0.280 N 
HETATM   10  H   UNL     1      45.942 -20.626   5.559  1.00  0.00     0.189 HD
HETATM   11  N   UNL     1      44.934 -20.766   3.814  1.00  0.00    -0.177 NA
HETATM   12  C   UNL     1      44.064 -19.922   3.236  1.00  0.00     0.079 A 
HETATM   13  C   UNL     1      43.477 -20.314   1.931  1.00  0.00     0.075 C 
ENDBRANCH   3   6
ENDBRANCH   1   2
BRANCH   1  14
HETATM   14  N   UNL     1      40.181 -16.122   3.019  1.00  0.00     0.100 N 
HETATM   15  H   UNL     1      39.433 -16.594   3.532  1.00  0.00     0.317 HD
BRANCH  14  16
HETATM   16  C   UNL     1      39.640 -14.848   2.505  1.00  0.00     0.251 C 
HETATM   17  C   UNL     1      40.118 -13.655   3.350  1.00  0.00     0.048 C 
BRANCH  16  18
HETATM   18  C   UNL     1      39.794 -14.694   0.994  1.00  0.00    -0.002 A 
HETATM   19  C   UNL     1      38.824 -14.023   0.210  1.00  0.00     0.064 A 
HETATM   20 CL   UNL     1      37.406 -13.346   0.958  1.00  0.00    -0.082 Cl
HETATM   21  C   UNL     1      38.999 -13.900  -1.181  1.00  0.00     0.056 A 
HETATM   22 CL   UNL     1      37.861 -13.082  -2.197  1.00  0.00    -0.083 Cl
HETATM   23  C   UNL     1      40.123 -14.445  -1.804  1.00  0.00     0.026 A 
HETATM   24  C   UNL     1      41.076 -15.120  -1.049  1.00  0.00     0.002 A 
HETATM   25  C   UNL     1      40.912 -15.245   0.331  1.00  0.00     0.011 A 
ENDBRANCH  16  18
ENDBRANCH  14  16
ENDBRANCH   1  14
TORSDOF 5
ENDMDL
