MODEL 1
REMARK VINA RESULT:      -8.4      0.000      0.000
REMARK  7 active torsions:
REMARK  status: ('A' for Active; 'I' for Inactive)
REMARK    1  A    between atoms: C_4  and  O_5 
REMARK    2  A    between atoms: O_5  and  C_6 
REMARK    3  A    between atoms: C_9  and  N_10 
REMARK       I    between atoms: N_10  and  C_11 
REMARK    4  A    between atoms: C_11  and  C_12 
REMARK    5  A    between atoms: C_12  and  C_13 
REMARK    6  A    between atoms: C_13  and  N_14 
REMARK       I    between atoms: N_14  and  C_15 
REMARK    7  A    between atoms: C_15  and  C_16 
ROOT
HETATM    1  N   UNL     1      41.234 -15.143   6.296  1.00  0.00    -0.327 N 
HETATM    2  C   UNL     1      41.194 -13.901   5.693  1.00  0.00     0.223 C 
HETATM    3  O   UNL     1      41.973 -13.462   4.853  1.00  0.00    -0.273 OA
HETATM    4  H   UNL     1      40.436 -15.376   6.888  1.00  0.00     0.169 HD
ENDROOT
BRANCH   1   5
HETATM    5  C   UNL     1      42.205 -16.150   6.130  1.00  0.00     0.034 A 
HETATM    6  C   UNL     1      43.532 -16.024   6.539  1.00  0.00     0.032 A 
HETATM    7  C   UNL     1      44.435 -17.076   6.346  1.00  0.00     0.039 A 
HETATM    8  C   UNL     1      44.020 -18.266   5.746  1.00  0.00     0.076 A 
HETATM    9  C   UNL     1      42.698 -18.393   5.320  1.00  0.00     0.039 A 
HETATM   10  C   UNL     1      41.793 -17.343   5.525  1.00  0.00     0.032 A 
BRANCH   8  11
HETATM   11  O   UNL     1      45.005 -19.213   5.566  1.00  0.00    -0.311 OA
BRANCH  11  12
HETATM   12  C   UNL     1      44.771 -20.237   4.682  1.00  0.00     0.076 A 
HETATM   13  C   UNL     1      44.595 -19.905   3.338  1.00  0.00     0.037 A 
HETATM   14  C   UNL     1      44.402 -20.915   2.396  1.00  0.00     0.003 A 
HETATM   15  C   UNL     1      44.401 -22.252   2.797  1.00  0.00     0.000 A 
HETATM   16  C   UNL     1      44.604 -22.582   4.139  1.00  0.00     0.003 A 
HETATM   17  C   UNL     1      44.800 -21.573   5.084  1.00  0.00     0.037 A 
ENDBRANCH  11  12
ENDBRANCH   8  11
ENDBRANCH   1   5
BRANCH   2  18
HETATM   18  C   UNL     1      40.022 -13.065   6.158  1.00  0.00     0.123 C 
BRANCH  18  19
HETATM   19  C   UNL     1      40.459 -11.709   6.695  1.00  0.00     0.132 C 
BRANCH  19  20
HETATM   20  N   UNL     1      41.684 -11.630   7.474  1.00  0.00    -0.355 N 
HETATM   21  C   UNL     1      42.197 -10.493   8.060  1.00  0.00     0.275 C 
HETATM   22  O   UNL     1      41.849  -9.362   7.731  1.00  0.00    -0.265 OA
HETATM   23  H   UNL     1      42.031 -12.499   7.868  1.00  0.00     0.162 HD
BRANCH  21  24
HETATM   24  C   UNL     1      43.197 -10.753   9.076  1.00  0.00     0.142 A 
HETATM   25  O   UNL     1      44.317 -11.475   8.750  1.00  0.00    -0.317 OA
HETATM   26  C   UNL     1      45.067 -11.581   9.879  1.00  0.00     0.143 A 
HETATM   27  C   UNL     1      44.451 -10.943  10.929  1.00  0.00     0.027 A 
HETATM   28  C   UNL     1      43.245 -10.410  10.414  1.00  0.00     0.045 A 
ENDBRANCH  21  24
ENDBRANCH  19  20
ENDBRANCH  18  19
ENDBRANCH   2  18
TORSDOF 7
ENDMDL
MODEL 2
REMARK VINA RESULT:      -8.2      5.497      7.359
REMARK  7 active torsions:
REMARK  status: ('A' for Active; 'I' for Inactive)
REMARK    1  A    between atoms: C_4  and  O_5 
REMARK    2  A    between atoms: O_5  and  C_6 
REMARK    3  A    between atoms: C_9  and  N_10 
REMARK       I    between atoms: N_10  and  C_11 
REMARK    4  A    between atoms: C_11  and  C_12 
REMARK    5  A    between atoms: C_12  and  C_13 
REMARK    6  A    between atoms: C_13  and  N_14 
REMARK       I    between atoms: N_14  and  C_15 
REMARK    7  A    between atoms: C_15  and  C_16 
ROOT
HETATM    1  N   UNL     1      39.724 -15.922   1.403  1.00  0.00    -0.327 N 
HETATM    2  C   UNL     1      39.310 -14.622   1.618  1.00  0.00     0.223 C 
HETATM    3  O   UNL     1      39.935 -13.733   2.188  1.00  0.00    -0.273 OA
HETATM    4  H   UNL     1      39.117 -16.489   0.810  1.00  0.00     0.169 HD
ENDROOT
BRANCH   1   5
HETATM    5  C   UNL     1      40.916 -16.530   1.842  1.00  0.00     0.034 A 
HETATM    6  C   UNL     1      42.070 -16.631   1.064  1.00  0.00     0.032 A 
HETATM    7  C   UNL     1      43.218 -17.244   1.578  1.00  0.00     0.039 A 
HETATM    8  C   UNL     1      43.227 -17.759   2.875  1.00  0.00     0.076 A 
HETATM    9  C   UNL     1      42.072 -17.675   3.653  1.00  0.00     0.039 A 
HETATM   10  C   UNL     1      40.928 -17.051   3.141  1.00  0.00     0.032 A 
BRANCH   8  11
HETATM   11  O   UNL     1      44.397 -18.380   3.257  1.00  0.00    -0.311 OA
BRANCH  11  12
HETATM   12  C   UNL     1      44.442 -19.751   3.244  1.00  0.00     0.076 A 
HETATM   13  C   UNL     1      44.836 -20.397   4.416  1.00  0.00     0.037 A 
HETATM   14  C   UNL     1      44.853 -21.791   4.466  1.00  0.00     0.003 A 
HETATM   15  C   UNL     1      44.459 -22.532   3.351  1.00  0.00     0.000 A 
HETATM   16  C   UNL     1      44.040 -21.883   2.188  1.00  0.00     0.003 A 
HETATM   17  C   UNL     1      44.020 -20.488   2.136  1.00  0.00     0.037 A 
ENDBRANCH  11  12
ENDBRANCH   8  11
ENDBRANCH   1   5
BRANCH   2  18
HETATM   18  C   UNL     1      37.941 -14.342   1.039  1.00  0.00     0.123 C 
BRANCH  18  19
HETATM   19  C   UNL     1      38.016 -13.834  -0.395  1.00  0.00     0.132 C 
BRANCH  19  20
HETATM   20  N   UNL     1      39.252 -13.223  -0.854  1.00  0.00    -0.355 N 
HETATM   21  C   UNL     1      40.242 -13.847  -1.582  1.00  0.00     0.275 C 
HETATM   22  O   UNL     1      40.338 -15.070  -1.658  1.00  0.00    -0.265 OA
HETATM   23  H   UNL     1      39.267 -12.209  -0.909  1.00  0.00     0.162 HD
BRANCH  21  24
HETATM   24  C   UNL     1      41.166 -12.936  -2.225  1.00  0.00     0.142 A 
HETATM   25  O   UNL     1      41.991 -12.157  -1.454  1.00  0.00    -0.317 OA
HETATM   26  C   UNL     1      42.732 -11.397  -2.302  1.00  0.00     0.143 A 
HETATM   27  C   UNL     1      42.398 -11.667  -3.608  1.00  0.00     0.027 A 
HETATM   28  C   UNL     1      41.389 -12.658  -3.560  1.00  0.00     0.045 A 
ENDBRANCH  21  24
ENDBRANCH  19  20
ENDBRANCH  18  19
ENDBRANCH   2  18
TORSDOF 7
ENDMDL
MODEL 3
REMARK VINA RESULT:      -8.0      1.663      2.223
REMARK  7 active torsions:
REMARK  status: ('A' for Active; 'I' for Inactive)
REMARK    1  A    between atoms: C_4  and  O_5 
REMARK    2  A    between atoms: O_5  and  C_6 
REMARK    3  A    between atoms: C_9  and  N_10 
REMARK       I    between atoms: N_10  and  C_11 
REMARK    4  A    between atoms: C_11  and  C_12 
REMARK    5  A    between atoms: C_12  and  C_13 
REMARK    6  A    between atoms: C_13  and  N_14 
REMARK       I    between atoms: N_14  and  C_15 
REMARK    7  A    between atoms: C_15  and  C_16 
ROOT
HETATM    1  N   UNL     1      40.344 -13.977   6.278  1.00  0.00    -0.327 N 
HETATM    2  C   UNL     1      40.109 -12.618   6.351  1.00  0.00     0.223 C 
HETATM    3  O   UNL     1      40.577 -11.747   5.625  1.00  0.00    -0.273 OA
HETATM    4  H   UNL     1      39.778 -14.560   6.895  1.00  0.00     0.169 HD
ENDROOT
BRANCH   1   5
HETATM    5  C   UNL     1      41.216 -14.654   5.403  1.00  0.00     0.034 A 
HETATM    6  C   UNL     1      42.603 -14.513   5.424  1.00  0.00     0.032 A 
HETATM    7  C   UNL     1      43.401 -15.229   4.525  1.00  0.00     0.039 A 
HETATM    8  C   UNL     1      42.822 -16.096   3.597  1.00  0.00     0.076 A 
HETATM    9  C   UNL     1      41.434 -16.229   3.559  1.00  0.00     0.039 A 
HETATM   10  C   UNL     1      40.638 -15.521   4.468  1.00  0.00     0.032 A 
BRANCH   8  11
HETATM   11  O   UNL     1      43.701 -16.712   2.733  1.00  0.00    -0.311 OA
BRANCH  11  12
HETATM   12  C   UNL     1      43.856 -18.072   2.820  1.00  0.00     0.076 A 
HETATM   13  C   UNL     1      44.294 -18.598   4.035  1.00  0.00     0.037 A 
HETATM   14  C   UNL     1      44.422 -19.979   4.187  1.00  0.00     0.003 A 
HETATM   15  C   UNL     1      44.096 -20.828   3.129  1.00  0.00     0.000 A 
HETATM   16  C   UNL     1      43.632 -20.301   1.922  1.00  0.00     0.003 A 
HETATM   17  C   UNL     1      43.501 -18.919   1.768  1.00  0.00     0.037 A 
ENDBRANCH  11  12
ENDBRANCH   8  11
ENDBRANCH   1   5
BRANCH   2  18
HETATM   18  C   UNL     1      39.144 -12.252   7.457  1.00  0.00     0.123 C 
BRANCH  18  19
HETATM   19  C   UNL     1      39.697 -11.166   8.369  1.00  0.00     0.132 C 
BRANCH  19  20
HETATM   20  N   UNL     1      41.059 -11.296   8.861  1.00  0.00    -0.355 N 
HETATM   21  C   UNL     1      42.087 -10.404   8.642  1.00  0.00     0.275 C 
HETATM   22  O   UNL     1      42.054  -9.561   7.750  1.00  0.00    -0.265 OA
HETATM   23  H   UNL     1      41.201 -11.913   9.655  1.00  0.00     0.162 HD
BRANCH  21  24
HETATM   24  C   UNL     1      43.212 -10.570   9.539  1.00  0.00     0.142 A 
HETATM   25  O   UNL     1      44.457 -10.824   9.020  1.00  0.00    -0.317 OA
HETATM   26  C   UNL     1      45.311 -10.948  10.070  1.00  0.00     0.143 A 
HETATM   27  C   UNL     1      44.641 -10.781  11.258  1.00  0.00     0.027 A 
HETATM   28  C   UNL     1      43.288 -10.538  10.918  1.00  0.00     0.045 A 
ENDBRANCH  21  24
ENDBRANCH  19  20
ENDBRANCH  18  19
ENDBRANCH   2  18
TORSDOF 7
ENDMDL
MODEL 4
REMARK VINA RESULT:      -7.9      5.308      9.027
REMARK  7 active torsions:
REMARK  status: ('A' for Active; 'I' for Inactive)
REMARK    1  A    between atoms: C_4  and  O_5 
REMARK    2  A    between atoms: O_5  and  C_6 
REMARK    3  A    between atoms: C_9  and  N_10 
REMARK       I    between atoms: N_10  and  C_11 
REMARK    4  A    between atoms: C_11  and  C_12 
REMARK    5  A    between atoms: C_12  and  C_13 
REMARK    6  A    between atoms: C_13  and  N_14 
REMARK       I    between atoms: N_14  and  C_15 
REMARK    7  A    between atoms: C_15  and  C_16 
ROOT
HETATM    1  N   UNL     1      40.902 -16.438   3.826  1.00  0.00    -0.327 N 
HETATM    2  C   UNL     1      41.454 -15.921   4.982  1.00  0.00     0.223 C 
HETATM    3  O   UNL     1      41.837 -14.770   5.167  1.00  0.00    -0.273 OA
HETATM    4  H   UNL     1      40.538 -17.389   3.894  1.00  0.00     0.169 HD
ENDROOT
BRANCH   1   5
HETATM    5  C   UNL     1      40.717 -15.783   2.593  1.00  0.00     0.034 A 
HETATM    6  C   UNL     1      41.661 -15.776   1.567  1.00  0.00     0.032 A 
HETATM    7  C   UNL     1      41.396 -15.108   0.366  1.00  0.00     0.039 A 
HETATM    8  C   UNL     1      40.183 -14.443   0.176  1.00  0.00     0.076 A 
HETATM    9  C   UNL     1      39.241 -14.434   1.204  1.00  0.00     0.039 A 
HETATM   10  C   UNL     1      39.503 -15.112   2.401  1.00  0.00     0.032 A 
BRANCH   8  11
HETATM   11  O   UNL     1      40.052 -13.783  -1.026  1.00  0.00    -0.311 OA
BRANCH  11  12
HETATM   12  C   UNL     1      39.461 -14.445  -2.073  1.00  0.00     0.076 A 
HETATM   13  C   UNL     1      38.127 -14.149  -2.356  1.00  0.00     0.037 A 
HETATM   14  C   UNL     1      37.497 -14.761  -3.440  1.00  0.00     0.003 A 
HETATM   15  C   UNL     1      38.207 -15.654  -4.244  1.00  0.00     0.000 A 
HETATM   16  C   UNL     1      39.549 -15.929  -3.974  1.00  0.00     0.003 A 
HETATM   17  C   UNL     1      40.183 -15.315  -2.891  1.00  0.00     0.037 A 
ENDBRANCH  11  12
ENDBRANCH   8  11
ENDBRANCH   1   5
BRANCH   2  18
HETATM   18  C   UNL     1      41.539 -16.942   6.095  1.00  0.00     0.123 C 
BRANCH  18  19
HETATM   19  C   UNL     1      42.815 -17.770   6.021  1.00  0.00     0.132 C 
BRANCH  19  20
HETATM   20  N   UNL     1      42.913 -18.811   5.010  1.00  0.00    -0.355 N 
HETATM   21  C   UNL     1      43.611 -18.725   3.825  1.00  0.00     0.275 C 
HETATM   22  O   UNL     1      43.971 -17.653   3.344  1.00  0.00    -0.265 OA
HETATM   23  H   UNL     1      42.712 -19.759   5.312  1.00  0.00     0.162 HD
BRANCH  21  24
HETATM   24  C   UNL     1      43.858 -20.004   3.192  1.00  0.00     0.142 A 
HETATM   25  O   UNL     1      44.468 -21.004   3.907  1.00  0.00    -0.317 OA
HETATM   26  C   UNL     1      44.588 -22.073   3.077  1.00  0.00     0.143 A 
HETATM   27  C   UNL     1      44.070 -21.783   1.838  1.00  0.00     0.027 A 
HETATM   28  C   UNL     1      43.599 -20.449   1.910  1.00  0.00     0.045 A 
ENDBRANCH  21  24
ENDBRANCH  19  20
ENDBRANCH  18  19
ENDBRANCH   2  18
TORSDOF 7
ENDMDL
MODEL 5
REMARK VINA RESULT:      -7.9      2.224      3.132
REMARK  7 active torsions:
REMARK  status: ('A' for Active; 'I' for Inactive)
REMARK    1  A    between atoms: C_4  and  O_5 
REMARK    2  A    between atoms: O_5  and  C_6 
REMARK    3  A    between atoms: C_9  and  N_10 
REMARK       I    between atoms: N_10  and  C_11 
REMARK    4  A    between atoms: C_11  and  C_12 
REMARK    5  A    between atoms: C_12  and  C_13 
REMARK    6  A    between atoms: C_13  and  N_14 
REMARK       I    between atoms: N_14  and  C_15 
REMARK    7  A    between atoms: C_15  and  C_16 
ROOT
HETATM    1  N   UNL     1      42.128 -12.896   6.444  1.00  0.00    -0.327 N 
HETATM    2  C   UNL     1      41.412 -11.725   6.289  1.00  0.00     0.223 C 
HETATM    3  O   UNL     1      40.581 -11.476   5.421  1.00  0.00    -0.273 OA
HETATM    4  H   UNL     1      42.692 -12.964   7.291  1.00  0.00     0.169 HD
ENDROOT
BRANCH   1   5
HETATM    5  C   UNL     1      42.111 -14.032   5.611  1.00  0.00     0.034 A 
HETATM    6  C   UNL     1      43.018 -14.249   4.574  1.00  0.00     0.032 A 
HETATM    7  C   UNL     1      42.939 -15.410   3.796  1.00  0.00     0.039 A 
HETATM    8  C   UNL     1      41.956 -16.368   4.049  1.00  0.00     0.076 A 
HETATM    9  C   UNL     1      41.037 -16.150   5.075  1.00  0.00     0.039 A 
HETATM   10  C   UNL     1      41.124 -14.994   5.860  1.00  0.00     0.032 A 
BRANCH   8  11
HETATM   11  O   UNL     1      41.946 -17.447   3.192  1.00  0.00    -0.311 OA
BRANCH  11  12
HETATM   12  C   UNL     1      42.856 -18.453   3.399  1.00  0.00     0.076 A 
HETATM   13  C   UNL     1      43.297 -19.167   2.284  1.00  0.00     0.037 A 
HETATM   14  C   UNL     1      44.256 -20.168   2.438  1.00  0.00     0.003 A 
HETATM   15  C   UNL     1      44.783 -20.439   3.701  1.00  0.00     0.000 A 
HETATM   16  C   UNL     1      44.360 -19.705   4.811  1.00  0.00     0.003 A 
HETATM   17  C   UNL     1      43.401 -18.701   4.660  1.00  0.00     0.037 A 
ENDBRANCH  11  12
ENDBRANCH   8  11
ENDBRANCH   1   5
BRANCH   2  18
HETATM   18  C   UNL     1      41.731 -10.702   7.356  1.00  0.00     0.123 C 
BRANCH  18  19
HETATM   19  C   UNL     1      42.752 -11.217   8.361  1.00  0.00     0.132 C 
BRANCH  19  20
HETATM   20  N   UNL     1      42.489 -11.032   9.779  1.00  0.00    -0.355 N 
HETATM   21  C   UNL     1      43.274 -11.492  10.814  1.00  0.00     0.275 C 
HETATM   22  O   UNL     1      44.115 -12.375  10.667  1.00  0.00    -0.265 OA
HETATM   23  H   UNL     1      41.863 -10.274  10.032  1.00  0.00     0.162 HD
BRANCH  21  24
HETATM   24  C   UNL     1      43.000 -10.859  12.088  1.00  0.00     0.142 A 
HETATM   25  O   UNL     1      41.906 -11.253  12.816  1.00  0.00    -0.317 OA
HETATM   26  C   UNL     1      41.881 -10.495  13.944  1.00  0.00     0.143 A 
HETATM   27  C   UNL     1      42.937  -9.616  13.957  1.00  0.00     0.027 A 
HETATM   28  C   UNL     1      43.659  -9.848  12.762  1.00  0.00     0.045 A 
ENDBRANCH  21  24
ENDBRANCH  19  20
ENDBRANCH  18  19
ENDBRANCH   2  18
TORSDOF 7
ENDMDL
MODEL 6
REMARK VINA RESULT:      -7.7      2.712      5.057
REMARK  7 active torsions:
REMARK  status: ('A' for Active; 'I' for Inactive)
REMARK    1  A    between atoms: C_4  and  O_5 
REMARK    2  A    between atoms: O_5  and  C_6 
REMARK    3  A    between atoms: C_9  and  N_10 
REMARK       I    between atoms: N_10  and  C_11 
REMARK    4  A    between atoms: C_11  and  C_12 
REMARK    5  A    between atoms: C_12  and  C_13 
REMARK    6  A    between atoms: C_13  and  N_14 
REMARK       I    between atoms: N_14  and  C_15 
REMARK    7  A    between atoms: C_15  and  C_16 
ROOT
HETATM    1  N   UNL     1      42.297 -14.728   6.210  1.00  0.00    -0.327 N 
HETATM    2  C   UNL     1      42.662 -13.593   5.513  1.00  0.00     0.223 C 
HETATM    3  O   UNL     1      43.563 -13.492   4.686  1.00  0.00    -0.273 OA
HETATM    4  H   UNL     1      41.450 -14.651   6.773  1.00  0.00     0.169 HD
ENDROOT
BRANCH   1   5
HETATM    5  C   UNL     1      42.912 -15.995   6.175  1.00  0.00     0.034 A 
HETATM    6  C   UNL     1      44.211 -16.241   6.618  1.00  0.00     0.032 A 
HETATM    7  C   UNL     1      44.747 -17.532   6.558  1.00  0.00     0.039 A 
HETATM    8  C   UNL     1      43.989 -18.592   6.058  1.00  0.00     0.076 A 
HETATM    9  C   UNL     1      42.694 -18.351   5.599  1.00  0.00     0.039 A 
HETATM   10  C   UNL     1      42.156 -17.060   5.671  1.00  0.00     0.032 A 
BRANCH   8  11
HETATM   11  O   UNL     1      44.635 -19.808   6.004  1.00  0.00    -0.311 OA
BRANCH  11  12
HETATM   12  C   UNL     1      44.615 -20.506   4.822  1.00  0.00     0.076 A 
HETATM   13  C   UNL     1      44.731 -21.895   4.888  1.00  0.00     0.037 A 
HETATM   14  C   UNL     1      44.670 -22.650   3.717  1.00  0.00     0.003 A 
HETATM   15  C   UNL     1      44.476 -22.017   2.489  1.00  0.00     0.000 A 
HETATM   16  C   UNL     1      44.334 -20.629   2.429  1.00  0.00     0.003 A 
HETATM   17  C   UNL     1      44.393 -19.870   3.600  1.00  0.00     0.037 A 
ENDBRANCH  11  12
ENDBRANCH   8  11
ENDBRANCH   1   5
BRANCH   2  18
HETATM   18  C   UNL     1      41.796 -12.399   5.847  1.00  0.00     0.123 C 
BRANCH  18  19
HETATM   19  C   UNL     1      40.752 -12.126   4.772  1.00  0.00     0.132 C 
BRANCH  19  20
HETATM   20  N   UNL     1      40.698 -13.004   3.615  1.00  0.00    -0.355 N 
HETATM   21  C   UNL     1      41.169 -12.708   2.353  1.00  0.00     0.275 C 
HETATM   22  O   UNL     1      41.403 -11.560   1.985  1.00  0.00    -0.265 OA
HETATM   23  H   UNL     1      40.585 -13.996   3.799  1.00  0.00     0.162 HD
BRANCH  21  24
HETATM   24  C   UNL     1      41.337 -13.867   1.501  1.00  0.00     0.142 A 
HETATM   25  O   UNL     1      40.870 -13.829   0.211  1.00  0.00    -0.317 OA
HETATM   26  C   UNL     1      41.143 -15.037  -0.349  1.00  0.00     0.143 A 
HETATM   27  C   UNL     1      41.776 -15.856   0.555  1.00  0.00     0.027 A 
HETATM   28  C   UNL     1      41.901 -15.104   1.748  1.00  0.00     0.045 A 
ENDBRANCH  21  24
ENDBRANCH  19  20
ENDBRANCH  18  19
ENDBRANCH   2  18
TORSDOF 7
ENDMDL
MODEL 7
REMARK VINA RESULT:      -7.6      1.592      2.254
REMARK  7 active torsions:
REMARK  status: ('A' for Active; 'I' for Inactive)
REMARK    1  A    between atoms: C_4  and  O_5 
REMARK    2  A    between atoms: O_5  and  C_6 
REMARK    3  A    between atoms: C_9  and  N_10 
REMARK       I    between atoms: N_10  and  C_11 
REMARK    4  A    between atoms: C_11  and  C_12 
REMARK    5  A    between atoms: C_12  and  C_13 
REMARK    6  A    between atoms: C_13  and  N_14 
REMARK       I    between atoms: N_14  and  C_15 
REMARK    7  A    between atoms: C_15  and  C_16 
ROOT
HETATM    1  N   UNL     1      40.841 -14.759   6.278  1.00  0.00    -0.327 N 
HETATM    2  C   UNL     1      40.030 -14.090   5.382  1.00  0.00     0.223 C 
HETATM    3  O   UNL     1      39.888 -14.335   4.188  1.00  0.00    -0.273 OA
HETATM    4  H   UNL     1      40.743 -14.485   7.256  1.00  0.00     0.169 HD
ENDROOT
BRANCH   1   5
HETATM    5  C   UNL     1      41.726 -15.821   6.010  1.00  0.00     0.034 A 
HETATM    6  C   UNL     1      41.319 -17.135   5.780  1.00  0.00     0.032 A 
HETATM    7  C   UNL     1      42.263 -18.132   5.513  1.00  0.00     0.039 A 
HETATM    8  C   UNL     1      43.624 -17.827   5.468  1.00  0.00     0.076 A 
HETATM    9  C   UNL     1      44.040 -16.518   5.712  1.00  0.00     0.039 A 
HETATM   10  C   UNL     1      43.093 -15.519   5.969  1.00  0.00     0.032 A 
BRANCH   8  11
HETATM   11  O   UNL     1      44.464 -18.896   5.242  1.00  0.00    -0.311 OA
BRANCH  11  12
HETATM   12  C   UNL     1      44.298 -19.623   4.090  1.00  0.00     0.076 A 
HETATM   13  C   UNL     1      44.626 -20.979   4.127  1.00  0.00     0.037 A 
HETATM   14  C   UNL     1      44.432 -21.769   2.994  1.00  0.00     0.003 A 
HETATM   15  C   UNL     1      43.895 -21.205   1.836  1.00  0.00     0.000 A 
HETATM   16  C   UNL     1      43.543 -19.854   1.810  1.00  0.00     0.003 A 
HETATM   17  C   UNL     1      43.735 -19.061   2.943  1.00  0.00     0.037 A 
ENDBRANCH  11  12
ENDBRANCH   8  11
ENDBRANCH   1   5
BRANCH   2  18
HETATM   18  C   UNL     1      39.252 -12.965   6.028  1.00  0.00     0.123 C 
BRANCH  18  19
HETATM   19  C   UNL     1      40.148 -11.798   6.423  1.00  0.00     0.132 C 
BRANCH  19  20
HETATM   20  N   UNL     1      40.452 -11.600   7.831  1.00  0.00    -0.355 N 
HETATM   21  C   UNL     1      41.314 -10.656   8.347  1.00  0.00     0.275 C 
HETATM   22  O   UNL     1      42.158 -10.084   7.662  1.00  0.00    -0.265 OA
HETATM   23  H   UNL     1      39.780 -11.965   8.499  1.00  0.00     0.162 HD
BRANCH  21  24
HETATM   24  C   UNL     1      41.149 -10.421   9.767  1.00  0.00     0.142 A 
HETATM   25  O   UNL     1      41.786  -9.356  10.353  1.00  0.00    -0.317 OA
HETATM   26  C   UNL     1      41.474  -9.381  11.675  1.00  0.00     0.143 A 
HETATM   27  C   UNL     1      40.649 -10.444  11.956  1.00  0.00     0.027 A 
HETATM   28  C   UNL     1      40.439 -11.116  10.728  1.00  0.00     0.045 A 
ENDBRANCH  21  24
ENDBRANCH  19  20
ENDBRANCH  18  19
ENDBRANCH   2  18
TORSDOF 7
ENDMDL
MODEL 8
REMARK VINA RESULT:      -7.6      5.690      8.188
REMARK  7 active torsions:
REMARK  status: ('A' for Active; 'I' for Inactive)
REMARK    1  A    between atoms: C_4  and  O_5 
REMARK    2  A    between atoms: O_5  and  C_6 
REMARK    3  A    between atoms: C_9  and  N_10 
REMARK       I    between atoms: N_10  and  C_11 
REMARK    4  A    between atoms: C_11  and  C_12 
REMARK    5  A    between atoms: C_12  and  C_13 
REMARK    6  A    between atoms: C_13  and  N_14 
REMARK       I    between atoms: N_14  and  C_15 
REMARK    7  A    between atoms: C_15  and  C_16 
ROOT
HETATM    1  N   UNL     1      40.756 -15.499   1.336  1.00  0.00    -0.327 N 
HETATM    2  C   UNL     1      39.998 -14.898   2.322  1.00  0.00     0.223 C 
HETATM    3  O   UNL     1      40.098 -15.062   3.534  1.00  0.00    -0.273 OA
HETATM    4  H   UNL     1      40.606 -15.154   0.387  1.00  0.00     0.169 HD
ENDROOT
BRANCH   1   5
HETATM    5  C   UNL     1      41.760 -16.473   1.496  1.00  0.00     0.034 A 
HETATM    6  C   UNL     1      43.121 -16.180   1.592  1.00  0.00     0.032 A 
HETATM    7  C   UNL     1      44.056 -17.207   1.758  1.00  0.00     0.039 A 
HETATM    8  C   UNL     1      43.643 -18.538   1.835  1.00  0.00     0.076 A 
HETATM    9  C   UNL     1      42.286 -18.839   1.725  1.00  0.00     0.039 A 
HETATM   10  C   UNL     1      41.350 -17.810   1.569  1.00  0.00     0.032 A 
BRANCH   8  11
HETATM   11  O   UNL     1      44.654 -19.466   1.953  1.00  0.00    -0.311 OA
BRANCH  11  12
HETATM   12  C   UNL     1      44.652 -20.298   3.044  1.00  0.00     0.076 A 
HETATM   13  C   UNL     1      44.650 -19.708   4.309  1.00  0.00     0.037 A 
HETATM   14  C   UNL     1      44.601 -20.512   5.448  1.00  0.00     0.003 A 
HETATM   15  C   UNL     1      44.536 -21.900   5.318  1.00  0.00     0.000 A 
HETATM   16  C   UNL     1      44.511 -22.487   4.051  1.00  0.00     0.003 A 
HETATM   17  C   UNL     1      44.558 -21.684   2.909  1.00  0.00     0.037 A 
ENDBRANCH  11  12
ENDBRANCH   8  11
ENDBRANCH   1   5
BRANCH   2  18
HETATM   18  C   UNL     1      38.975 -13.934   1.764  1.00  0.00     0.123 C 
BRANCH  18  19
HETATM   19  C   UNL     1      39.556 -13.046   0.671  1.00  0.00     0.132 C 
BRANCH  19  20
HETATM   20  N   UNL     1      38.955 -13.086  -0.652  1.00  0.00    -0.355 N 
HETATM   21  C   UNL     1      39.192 -14.038  -1.620  1.00  0.00     0.275 C 
HETATM   22  O   UNL     1      40.170 -14.782  -1.593  1.00  0.00    -0.265 OA
HETATM   23  H   UNL     1      38.091 -12.567  -0.777  1.00  0.00     0.162 HD
BRANCH  21  24
HETATM   24  C   UNL     1      38.203 -14.064  -2.677  1.00  0.00     0.142 A 
HETATM   25  O   UNL     1      37.606 -12.892  -3.071  1.00  0.00    -0.317 OA
HETATM   26  C   UNL     1      36.721 -13.205  -4.054  1.00  0.00     0.143 A 
HETATM   27  C   UNL     1      36.733 -14.557  -4.301  1.00  0.00     0.027 A 
HETATM   28  C   UNL     1      37.686 -15.112  -3.415  1.00  0.00     0.045 A 
ENDBRANCH  21  24
ENDBRANCH  19  20
ENDBRANCH  18  19
ENDBRANCH   2  18
TORSDOF 7
ENDMDL
MODEL 9
REMARK VINA RESULT:      -7.6      4.488      8.726
REMARK  7 active torsions:
REMARK  status: ('A' for Active; 'I' for Inactive)
REMARK    1  A    between atoms: C_4  and  O_5 
REMARK    2  A    between atoms: O_5  and  C_6 
REMARK    3  A    between atoms: C_9  and  N_10 
REMARK       I    between atoms: N_10  and  C_11 
REMARK    4  A    between atoms: C_11  and  C_12 
REMARK    5  A    between atoms: C_12  and  C_13 
REMARK    6  A    between atoms: C_13  and  N_14 
REMARK       I    between atoms: N_14  and  C_15 
REMARK    7  A    between atoms: C_15  and  C_16 
ROOT
HETATM    1  N   UNL     1      42.484 -16.897   4.831  1.00  0.00    -0.327 N 
HETATM    2  C   UNL     1      43.361 -16.256   5.684  1.00  0.00     0.223 C 
HETATM    3  O   UNL     1      43.745 -15.092   5.611  1.00  0.00    -0.273 OA
HETATM    4  H   UNL     1      42.193 -17.833   5.114  1.00  0.00     0.169 HD
ENDROOT
BRANCH   1   5
HETATM    5  C   UNL     1      41.891 -16.384   3.661  1.00  0.00     0.034 A 
HETATM    6  C   UNL     1      40.765 -15.560   3.657  1.00  0.00     0.032 A 
HETATM    7  C   UNL     1      40.240 -15.085   2.450  1.00  0.00     0.039 A 
HETATM    8  C   UNL     1      40.837 -15.423   1.235  1.00  0.00     0.076 A 
HETATM    9  C   UNL     1      41.953 -16.258   1.230  1.00  0.00     0.039 A 
HETATM   10  C   UNL     1      42.484 -16.725   2.440  1.00  0.00     0.032 A 
BRANCH   8  11
HETATM   11  O   UNL     1      40.207 -14.935   0.110  1.00  0.00    -0.311 OA
BRANCH  11  12
HETATM   12  C   UNL     1      40.973 -14.334  -0.857  1.00  0.00     0.076 A 
HETATM   13  C   UNL     1      40.902 -14.848  -2.152  1.00  0.00     0.037 A 
HETATM   14  C   UNL     1      41.626 -14.241  -3.178  1.00  0.00     0.003 A 
HETATM   15  C   UNL     1      42.405 -13.115  -2.909  1.00  0.00     0.000 A 
HETATM   16  C   UNL     1      42.454 -12.587  -1.618  1.00  0.00     0.003 A 
HETATM   17  C   UNL     1      41.728 -13.191  -0.589  1.00  0.00     0.037 A 
ENDBRANCH  11  12
ENDBRANCH   8  11
ENDBRANCH   1   5
BRANCH   2  18
HETATM   18  C   UNL     1      43.833 -17.146   6.812  1.00  0.00     0.123 C 
BRANCH  18  19
HETATM   19  C   UNL     1      45.141 -17.851   6.481  1.00  0.00     0.132 C 
BRANCH  19  20
HETATM   20  N   UNL     1      45.158 -18.812   5.390  1.00  0.00    -0.355 N 
HETATM   21  C   UNL     1      44.485 -20.015   5.362  1.00  0.00     0.275 C 
HETATM   22  O   UNL     1      44.050 -20.555   6.375  1.00  0.00    -0.265 OA
HETATM   23  H   UNL     1      45.429 -18.461   4.476  1.00  0.00     0.162 HD
BRANCH  21  24
HETATM   24  C   UNL     1      44.363 -20.591   4.038  1.00  0.00     0.142 A 
HETATM   25  O   UNL     1      44.659 -21.918   3.851  1.00  0.00    -0.317 OA
HETATM   26  C   UNL     1      44.476 -22.186   2.531  1.00  0.00     0.143 A 
HETATM   27  C   UNL     1      44.071 -21.056   1.861  1.00  0.00     0.027 A 
HETATM   28  C   UNL     1      43.998 -20.027   2.831  1.00  0.00     0.045 A 
ENDBRANCH  21  24
ENDBRANCH  19  20
ENDBRANCH  18  19
ENDBRANCH   2  18
TORSDOF 7
ENDMDL
MODEL 10
REMARK VINA RESULT:      -7.6      5.498      8.522
REMARK  7 active torsions:
REMARK  status: ('A' for Active; 'I' for Inactive)
REMARK    1  A    between atoms: C_4  and  O_5 
REMARK    2  A    between atoms: O_5  and  C_6 
REMARK    3  A    between atoms: C_9  and  N_10 
REMARK       I    between atoms: N_10  and  C_11 
REMARK    4  A    between atoms: C_11  and  C_12 
REMARK    5  A    between atoms: C_12  and  C_13 
REMARK    6  A    between atoms: C_13  and  N_14 
REMARK       I    between atoms: N_14  and  C_15 
REMARK    7  A    between atoms: C_15  and  C_16 
ROOT
HETATM    1  N   UNL     1      42.119 -14.422   3.358  1.00  0.00    -0.327 N 
HETATM    2  C   UNL     1      43.265 -14.100   4.058  1.00  0.00     0.223 C 
HETATM    3  O   UNL     1      44.318 -13.675   3.594  1.00  0.00    -0.273 OA
HETATM    4  H   UNL     1      41.302 -14.653   3.924  1.00  0.00     0.169 HD
ENDROOT
BRANCH   1   5
HETATM    5  C   UNL     1      41.926 -14.398   1.963  1.00  0.00     0.034 A 
HETATM    6  C   UNL     1      41.748 -15.540   1.182  1.00  0.00     0.032 A 
HETATM    7  C   UNL     1      41.554 -15.430  -0.199  1.00  0.00     0.039 A 
HETATM    8  C   UNL     1      41.530 -14.177  -0.815  1.00  0.00     0.076 A 
HETATM    9  C   UNL     1      41.722 -13.032  -0.042  1.00  0.00     0.039 A 
HETATM   10  C   UNL     1      41.906 -13.143   1.342  1.00  0.00     0.032 A 
BRANCH   8  11
HETATM   11  O   UNL     1      41.378 -14.193  -2.184  1.00  0.00    -0.311 OA
BRANCH  11  12
HETATM   12  C   UNL     1      40.155 -14.541  -2.700  1.00  0.00     0.076 A 
HETATM   13  C   UNL     1      40.101 -15.648  -3.548  1.00  0.00     0.037 A 
HETATM   14  C   UNL     1      38.873 -16.068  -4.060  1.00  0.00     0.003 A 
HETATM   15  C   UNL     1      37.704 -15.392  -3.710  1.00  0.00     0.000 A 
HETATM   16  C   UNL     1      37.758 -14.300  -2.841  1.00  0.00     0.003 A 
HETATM   17  C   UNL     1      38.985 -13.879  -2.325  1.00  0.00     0.037 A 
ENDBRANCH  11  12
ENDBRANCH   8  11
ENDBRANCH   1   5
BRANCH   2  18
HETATM   18  C   UNL     1      43.112 -14.299   5.550  1.00  0.00     0.123 C 
BRANCH  18  19
HETATM   19  C   UNL     1      42.314 -15.551   5.885  1.00  0.00     0.132 C 
BRANCH  19  20
HETATM   20  N   UNL     1      42.835 -16.843   5.467  1.00  0.00    -0.355 N 
HETATM   21  C   UNL     1      42.317 -17.639   4.467  1.00  0.00     0.275 C 
HETATM   22  O   UNL     1      41.178 -17.496   4.029  1.00  0.00    -0.265 OA
HETATM   23  H   UNL     1      43.801 -17.044   5.706  1.00  0.00     0.162 HD
BRANCH  21  24
HETATM   24  C   UNL     1      43.226 -18.667   4.003  1.00  0.00     0.142 A 
HETATM   25  O   UNL     1      44.022 -19.322   4.908  1.00  0.00    -0.317 OA
HETATM   26  C   UNL     1      44.775 -20.211   4.208  1.00  0.00     0.143 A 
HETATM   27  C   UNL     1      44.482 -20.141   2.867  1.00  0.00     0.027 A 
HETATM   28  C   UNL     1      43.484 -19.145   2.733  1.00  0.00     0.045 A 
ENDBRANCH  21  24
ENDBRANCH  19  20
ENDBRANCH  18  19
ENDBRANCH   2  18
TORSDOF 7
ENDMDL
