MODEL 1
REMARK VINA RESULT:      -8.5      0.000      0.000
REMARK  5 active torsions:
REMARK  status: ('A' for Active; 'I' for Inactive)
REMARK    1  A    between atoms: C_3  and  N_4 
REMARK    2  A    between atoms: N_5  and  C_6 
REMARK    3  A    between atoms: C_6  and  C_7 
REMARK    4  A    between atoms: C_7  and  C_8 
REMARK    5  A    between atoms: C_16  and  C_17 
ROOT
HETATM    1  C   UNL     1      43.145 -13.613   4.409  1.00  0.00     0.175 C 
HETATM    2  N   UNL     1      43.393 -14.786   5.234  1.00  0.00    -0.186 N 
HETATM    3  C   UNL     1      43.025 -16.021   4.900  1.00  0.00     0.680 A 
HETATM    4  N   UNL     1      43.580 -16.883   5.743  1.00  0.00    -0.184 N 
HETATM    5  C   UNL     1      44.312 -16.170   6.676  1.00  0.00     0.140 A 
HETATM    6  C   UNL     1      44.169 -14.823   6.412  1.00  0.00     0.077 A 
ENDROOT
BRANCH   4   7
HETATM    7  C   UNL     1      43.396 -18.348   5.779  1.00  0.00     0.231 C 
BRANCH   7   8
HETATM    8  C   UNL     1      44.589 -19.103   5.205  1.00  0.00     0.178 C 
HETATM    9  O   UNL     1      45.724 -18.949   5.663  1.00  0.00    -0.290 OA
BRANCH   8  10
HETATM   10  C   UNL     1      44.370 -20.055   4.087  1.00  0.00     0.011 A 
HETATM   11  C   UNL     1      44.723 -21.406   4.185  1.00  0.00     0.015 A 
HETATM   12  C   UNL     1      44.510 -22.258   3.098  1.00  0.00     0.001 A 
HETATM   13  C   UNL     1      43.943 -21.766   1.923  1.00  0.00     0.000 A 
HETATM   14  C   UNL     1      43.574 -20.426   1.830  1.00  0.00     0.001 A 
HETATM   15  C   UNL     1      43.781 -19.570   2.912  1.00  0.00     0.015 A 
ENDBRANCH   8  10
ENDBRANCH   7   8
ENDBRANCH   4   7
BRANCH   3  16
HETATM   16  N   UNL     1      42.241 -16.331   3.874  1.00  0.00    -0.234 N 
HETATM   17  H   UNL     1      41.256 -16.508   3.973  1.00  0.00     0.174 HD
HETATM   18  H   UNL     1      42.593 -16.195   2.925  1.00  0.00     0.174 HD
ENDBRANCH   3  16
BRANCH   6  19
HETATM   19  C   UNL     1      44.757 -13.711   7.244  1.00  0.00    -0.004 A 
HETATM   20  C   UNL     1      43.952 -13.064   8.196  1.00  0.00     0.053 A 
HETATM   21  C   UNL     1      44.515 -12.049   8.942  1.00  0.00     0.106 A 
HETATM   22  C   UNL     1      45.820 -11.659   8.773  1.00  0.00     0.105 A 
HETATM   23  O   UNL     1      43.878 -11.329   9.904  1.00  0.00    -0.323 OA
HETATM   24  O   UNL     1      46.172 -10.647   9.606  1.00  0.00    -0.323 OA
HETATM   25  C   UNL     1      46.633 -12.260   7.840  1.00  0.00     0.040 A 
HETATM   26  C   UNL     1      44.936 -10.438  10.323  1.00  0.00     0.352 A 
HETATM   27  C   UNL     1      46.090 -13.293   7.063  1.00  0.00     0.017 A 
ENDBRANCH   6  19
TORSDOF 5
ENDMDL
MODEL 2
REMARK VINA RESULT:      -8.3      3.910      6.439
REMARK  5 active torsions:
REMARK  status: ('A' for Active; 'I' for Inactive)
REMARK    1  A    between atoms: C_3  and  N_4 
REMARK    2  A    between atoms: N_5  and  C_6 
REMARK    3  A    between atoms: C_6  and  C_7 
REMARK    4  A    between atoms: C_7  and  C_8 
REMARK    5  A    between atoms: C_16  and  C_17 
ROOT
HETATM    1  C   UNL     1      42.734 -13.580   4.716  1.00  0.00     0.175 C 
HETATM    2  N   UNL     1      42.590 -15.025   4.618  1.00  0.00    -0.186 N 
HETATM    3  C   UNL     1      43.148 -15.887   5.466  1.00  0.00     0.680 A 
HETATM    4  N   UNL     1      42.656 -17.099   5.240  1.00  0.00    -0.184 N 
HETATM    5  C   UNL     1      41.767 -17.018   4.183  1.00  0.00     0.140 A 
HETATM    6  C   UNL     1      41.743 -15.716   3.727  1.00  0.00     0.077 A 
ENDROOT
BRANCH   4   7
HETATM    7  C   UNL     1      43.038 -18.360   5.908  1.00  0.00     0.231 C 
BRANCH   7   8
HETATM    8  C   UNL     1      44.369 -18.908   5.409  1.00  0.00     0.178 C 
HETATM    9  O   UNL     1      45.441 -18.479   5.844  1.00  0.00    -0.290 OA
BRANCH   8  10
HETATM   10  C   UNL     1      44.369 -19.991   4.394  1.00  0.00     0.011 A 
HETATM   11  C   UNL     1      44.016 -19.757   3.060  1.00  0.00     0.015 A 
HETATM   12  C   UNL     1      44.018 -20.815   2.147  1.00  0.00     0.001 A 
HETATM   13  C   UNL     1      44.374 -22.098   2.562  1.00  0.00     0.000 A 
HETATM   14  C   UNL     1      44.742 -22.330   3.886  1.00  0.00     0.001 A 
HETATM   15  C   UNL     1      44.746 -21.277   4.802  1.00  0.00     0.015 A 
ENDBRANCH   8  10
ENDBRANCH   7   8
ENDBRANCH   4   7
BRANCH   3  16
HETATM   16  N   UNL     1      44.041 -15.570   6.397  1.00  0.00    -0.234 N 
HETATM   17  H   UNL     1      44.826 -14.968   6.219  1.00  0.00     0.174 HD
HETATM   18  H   UNL     1      43.828 -15.775   7.375  1.00  0.00     0.174 HD
ENDBRANCH   3  16
BRANCH   6  19
HETATM   19  C   UNL     1      40.948 -15.229   2.541  1.00  0.00    -0.004 A 
HETATM   20  C   UNL     1      41.565 -15.158   1.281  1.00  0.00     0.053 A 
HETATM   21  C   UNL     1      40.815 -14.708   0.214  1.00  0.00     0.106 A 
HETATM   22  C   UNL     1      39.504 -14.328   0.355  1.00  0.00     0.105 A 
HETATM   23  O   UNL     1      41.257 -14.586  -1.066  1.00  0.00    -0.323 OA
HETATM   24  O   UNL     1      38.953 -13.920  -0.817  1.00  0.00    -0.323 OA
HETATM   25  C   UNL     1      38.872 -14.370   1.576  1.00  0.00     0.040 A 
HETATM   26  C   UNL     1      40.069 -14.084  -1.719  1.00  0.00     0.352 A 
HETATM   27  C   UNL     1      39.607 -14.820   2.681  1.00  0.00     0.017 A 
ENDBRANCH   6  19
TORSDOF 5
ENDMDL
MODEL 3
REMARK VINA RESULT:      -8.2      5.001      7.385
REMARK  5 active torsions:
REMARK  status: ('A' for Active; 'I' for Inactive)
REMARK    1  A    between atoms: C_3  and  N_4 
REMARK    2  A    between atoms: N_5  and  C_6 
REMARK    3  A    between atoms: C_6  and  C_7 
REMARK    4  A    between atoms: C_7  and  C_8 
REMARK    5  A    between atoms: C_16  and  C_17 
ROOT
HETATM    1  C   UNL     1      39.882 -13.523   4.413  1.00  0.00     0.175 C 
HETATM    2  N   UNL     1      40.452 -14.772   3.929  1.00  0.00    -0.186 N 
HETATM    3  C   UNL     1      41.160 -15.608   4.685  1.00  0.00     0.680 A 
HETATM    4  N   UNL     1      41.349 -16.741   4.020  1.00  0.00    -0.184 N 
HETATM    5  C   UNL     1      40.762 -16.617   2.774  1.00  0.00     0.140 A 
HETATM    6  C   UNL     1      40.227 -15.350   2.662  1.00  0.00     0.077 A 
ENDROOT
BRANCH   4   7
HETATM    7  C   UNL     1      42.128 -17.918   4.457  1.00  0.00     0.231 C 
BRANCH   7   8
HETATM    8  C   UNL     1      43.347 -18.171   3.578  1.00  0.00     0.178 C 
HETATM    9  O   UNL     1      44.005 -17.238   3.112  1.00  0.00    -0.290 OA
BRANCH   8  10
HETATM   10  C   UNL     1      43.756 -19.571   3.297  1.00  0.00     0.011 A 
HETATM   11  C   UNL     1      44.466 -20.336   4.230  1.00  0.00     0.015 A 
HETATM   12  C   UNL     1      44.840 -21.644   3.912  1.00  0.00     0.001 A 
HETATM   13  C   UNL     1      44.503 -22.187   2.672  1.00  0.00     0.000 A 
HETATM   14  C   UNL     1      43.781 -21.433   1.749  1.00  0.00     0.001 A 
HETATM   15  C   UNL     1      43.400 -20.127   2.062  1.00  0.00     0.015 A 
ENDBRANCH   8  10
ENDBRANCH   7   8
ENDBRANCH   4   7
BRANCH   3  16
HETATM   16  N   UNL     1      41.590 -15.345   5.915  1.00  0.00    -0.234 N 
HETATM   17  H   UNL     1      41.004 -15.427   6.728  1.00  0.00     0.174 HD
HETATM   18  H   UNL     1      42.595 -15.249   6.075  1.00  0.00     0.174 HD
ENDBRANCH   3  16
BRANCH   6  19
HETATM   19  C   UNL     1      39.559 -14.798   1.428  1.00  0.00    -0.004 A 
HETATM   20  C   UNL     1      40.327 -14.566   0.276  1.00  0.00     0.053 A 
HETATM   21  C   UNL     1      39.690 -14.059  -0.839  1.00  0.00     0.106 A 
HETATM   22  C   UNL     1      38.348 -13.775  -0.844  1.00  0.00     0.105 A 
HETATM   23  O   UNL     1      40.284 -13.784  -2.031  1.00  0.00    -0.323 OA
HETATM   24  O   UNL     1      37.925 -13.288  -2.038  1.00  0.00    -0.323 OA
HETATM   25  C   UNL     1      37.567 -13.976   0.271  1.00  0.00     0.040 A 
HETATM   26  C   UNL     1      39.157 -13.293  -2.791  1.00  0.00     0.352 A 
HETATM   27  C   UNL     1      38.184 -14.487   1.421  1.00  0.00     0.017 A 
ENDBRANCH   6  19
TORSDOF 5
ENDMDL
MODEL 4
REMARK VINA RESULT:      -8.1      5.237      7.658
REMARK  5 active torsions:
REMARK  status: ('A' for Active; 'I' for Inactive)
REMARK    1  A    between atoms: C_3  and  N_4 
REMARK    2  A    between atoms: N_5  and  C_6 
REMARK    3  A    between atoms: C_6  and  C_7 
REMARK    4  A    between atoms: C_7  and  C_8 
REMARK    5  A    between atoms: C_16  and  C_17 
ROOT
HETATM    1  C   UNL     1      39.014 -14.874   1.945  1.00  0.00     0.175 C 
HETATM    2  N   UNL     1      40.425 -15.160   2.162  1.00  0.00    -0.186 N 
HETATM    3  C   UNL     1      40.933 -15.559   3.326  1.00  0.00     0.680 A 
HETATM    4  N   UNL     1      42.191 -15.940   3.144  1.00  0.00    -0.184 N 
HETATM    5  C   UNL     1      42.515 -15.750   1.812  1.00  0.00     0.140 A 
HETATM    6  C   UNL     1      41.425 -15.202   1.168  1.00  0.00     0.077 A 
ENDROOT
BRANCH   4   7
HETATM    7  C   UNL     1      43.147 -16.398   4.173  1.00  0.00     0.231 C 
BRANCH   7   8
HETATM    8  C   UNL     1      42.859 -17.815   4.651  1.00  0.00     0.178 C 
HETATM    9  O   UNL     1      42.130 -18.026   5.624  1.00  0.00    -0.290 OA
BRANCH   8  10
HETATM   10  C   UNL     1      43.452 -18.960   3.916  1.00  0.00     0.011 A 
HETATM   11  C   UNL     1      43.092 -19.260   2.596  1.00  0.00     0.015 A 
HETATM   12  C   UNL     1      43.669 -20.357   1.953  1.00  0.00     0.001 A 
HETATM   13  C   UNL     1      44.605 -21.148   2.620  1.00  0.00     0.000 A 
HETATM   14  C   UNL     1      44.978 -20.841   3.927  1.00  0.00     0.001 A 
HETATM   15  C   UNL     1      44.408 -19.744   4.575  1.00  0.00     0.015 A 
ENDBRANCH   8  10
ENDBRANCH   7   8
ENDBRANCH   4   7
BRANCH   3  16
HETATM   16  N   UNL     1      40.271 -15.583   4.478  1.00  0.00    -0.234 N 
HETATM   17  H   UNL     1      39.575 -14.899   4.723  1.00  0.00     0.174 HD
HETATM   18  H   UNL     1      40.316 -16.425   5.055  1.00  0.00     0.174 HD
ENDBRANCH   3  16
BRANCH   6  19
HETATM   19  C   UNL     1      41.397 -14.783  -0.281  1.00  0.00    -0.004 A 
HETATM   20  C   UNL     1      41.719 -13.459  -0.621  1.00  0.00     0.053 A 
HETATM   21  C   UNL     1      41.684 -13.103  -1.954  1.00  0.00     0.106 A 
HETATM   22  C   UNL     1      41.341 -13.996  -2.937  1.00  0.00     0.105 A 
HETATM   23  O   UNL     1      41.973 -11.870  -2.449  1.00  0.00    -0.323 OA
HETATM   24  O   UNL     1      41.370 -13.442  -4.176  1.00  0.00    -0.323 OA
HETATM   25  C   UNL     1      41.005 -15.297  -2.639  1.00  0.00     0.040 A 
HETATM   26  C   UNL     1      41.772 -12.090  -3.864  1.00  0.00     0.352 A 
HETATM   27  C   UNL     1      41.028 -15.690  -1.294  1.00  0.00     0.017 A 
ENDBRANCH   6  19
TORSDOF 5
ENDMDL
MODEL 5
REMARK VINA RESULT:      -7.8      4.655      8.194
REMARK  5 active torsions:
REMARK  status: ('A' for Active; 'I' for Inactive)
REMARK    1  A    between atoms: C_3  and  N_4 
REMARK    2  A    between atoms: N_5  and  C_6 
REMARK    3  A    between atoms: C_6  and  C_7 
REMARK    4  A    between atoms: C_7  and  C_8 
REMARK    5  A    between atoms: C_16  and  C_17 
ROOT
HETATM    1  C   UNL     1      41.047 -16.594   5.897  1.00  0.00     0.175 C 
HETATM    2  N   UNL     1      41.140 -16.168   4.508  1.00  0.00    -0.186 N 
HETATM    3  C   UNL     1      40.523 -15.096   4.017  1.00  0.00     0.680 A 
HETATM    4  N   UNL     1      40.976 -14.857   2.792  1.00  0.00    -0.184 N 
HETATM    5  C   UNL     1      41.901 -15.835   2.472  1.00  0.00     0.140 A 
HETATM    6  C   UNL     1      41.990 -16.720   3.527  1.00  0.00     0.077 A 
ENDROOT
BRANCH   4   7
HETATM    7  C   UNL     1      40.526 -13.804   1.859  1.00  0.00     0.231 C 
BRANCH   7   8
HETATM    8  C   UNL     1      41.636 -13.334   0.928  1.00  0.00     0.178 C 
HETATM    9  O   UNL     1      42.580 -12.659   1.347  1.00  0.00    -0.290 OA
BRANCH   8  10
HETATM   10  C   UNL     1      41.585 -13.715  -0.506  1.00  0.00     0.011 A 
HETATM   11  C   UNL     1      40.924 -14.869  -0.943  1.00  0.00     0.015 A 
HETATM   12  C   UNL     1      40.918 -15.191  -2.302  1.00  0.00     0.001 A 
HETATM   13  C   UNL     1      41.563 -14.364  -3.221  1.00  0.00     0.000 A 
HETATM   14  C   UNL     1      42.207 -13.206  -2.791  1.00  0.00     0.001 A 
HETATM   15  C   UNL     1      42.214 -12.876  -1.435  1.00  0.00     0.015 A 
ENDBRANCH   8  10
ENDBRANCH   7   8
ENDBRANCH   4   7
BRANCH   3  16
HETATM   16  N   UNL     1      39.612 -14.377   4.664  1.00  0.00    -0.234 N 
HETATM   17  H   UNL     1      38.889 -14.790   5.227  1.00  0.00     0.174 HD
HETATM   18  H   UNL     1      39.758 -13.371   4.763  1.00  0.00     0.174 HD
ENDBRANCH   3  16
BRANCH   6  19
HETATM   19  C   UNL     1      42.841 -17.965   3.543  1.00  0.00    -0.004 A 
HETATM   20  C   UNL     1      42.731 -18.887   2.488  1.00  0.00     0.053 A 
HETATM   21  C   UNL     1      43.520 -20.018   2.529  1.00  0.00     0.106 A 
HETATM   22  C   UNL     1      44.390 -20.262   3.561  1.00  0.00     0.105 A 
HETATM   23  O   UNL     1      43.539 -21.001   1.589  1.00  0.00    -0.323 OA
HETATM   24  O   UNL     1      45.068 -21.428   3.405  1.00  0.00    -0.323 OA
HETATM   25  C   UNL     1      44.513 -19.389   4.618  1.00  0.00     0.040 A 
HETATM   26  C   UNL     1      44.526 -21.896   2.151  1.00  0.00     0.352 A 
HETATM   27  C   UNL     1      43.722 -18.232   4.609  1.00  0.00     0.017 A 
ENDBRANCH   6  19
TORSDOF 5
ENDMDL
MODEL 6
REMARK VINA RESULT:      -7.8      4.392      6.814
REMARK  5 active torsions:
REMARK  status: ('A' for Active; 'I' for Inactive)
REMARK    1  A    between atoms: C_3  and  N_4 
REMARK    2  A    between atoms: N_5  and  C_6 
REMARK    3  A    between atoms: C_6  and  C_7 
REMARK    4  A    between atoms: C_7  and  C_8 
REMARK    5  A    between atoms: C_16  and  C_17 
ROOT
HETATM    1  C   UNL     1      39.845 -13.309   4.001  1.00  0.00     0.175 C 
HETATM    2  N   UNL     1      40.641 -14.524   3.894  1.00  0.00    -0.186 N 
HETATM    3  C   UNL     1      40.792 -15.402   4.883  1.00  0.00     0.680 A 
HETATM    4  N   UNL     1      41.385 -16.492   4.410  1.00  0.00    -0.184 N 
HETATM    5  C   UNL     1      41.651 -16.293   3.067  1.00  0.00     0.140 A 
HETATM    6  C   UNL     1      41.237 -15.024   2.718  1.00  0.00     0.077 A 
ENDROOT
BRANCH   4   7
HETATM    7  C   UNL     1      41.798 -17.690   5.169  1.00  0.00     0.231 C 
BRANCH   7   8
HETATM    8  C   UNL     1      43.281 -18.002   5.009  1.00  0.00     0.178 C 
HETATM    9  O   UNL     1      44.142 -17.322   5.574  1.00  0.00    -0.290 OA
BRANCH   8  10
HETATM   10  C   UNL     1      43.689 -19.159   4.173  1.00  0.00     0.011 A 
HETATM   11  C   UNL     1      43.318 -19.268   2.828  1.00  0.00     0.015 A 
HETATM   12  C   UNL     1      43.715 -20.385   2.089  1.00  0.00     0.001 A 
HETATM   13  C   UNL     1      44.483 -21.384   2.687  1.00  0.00     0.000 A 
HETATM   14  C   UNL     1      44.868 -21.268   4.021  1.00  0.00     0.001 A 
HETATM   15  C   UNL     1      44.477 -20.154   4.764  1.00  0.00     0.015 A 
ENDBRANCH   8  10
ENDBRANCH   7   8
ENDBRANCH   4   7
BRANCH   3  16
HETATM   16  N   UNL     1      40.395 -15.214   6.137  1.00  0.00    -0.234 N 
HETATM   17  H   UNL     1      40.961 -15.458   6.932  1.00  0.00     0.174 HD
HETATM   18  H   UNL     1      39.579 -14.625   6.313  1.00  0.00     0.174 HD
ENDBRANCH   3  16
BRANCH   6  19
HETATM   19  C   UNL     1      41.413 -14.399   1.357  1.00  0.00    -0.004 A 
HETATM   20  C   UNL     1      41.084 -15.143   0.211  1.00  0.00     0.053 A 
HETATM   21  C   UNL     1      41.256 -14.548  -1.022  1.00  0.00     0.106 A 
HETATM   22  C   UNL     1      41.741 -13.271  -1.153  1.00  0.00     0.105 A 
HETATM   23  O   UNL     1      40.980 -15.124  -2.222  1.00  0.00    -0.323 OA
HETATM   24  O   UNL     1      41.831 -12.880  -2.449  1.00  0.00    -0.323 OA
HETATM   25  C   UNL     1      42.088 -12.519  -0.054  1.00  0.00     0.040 A 
HETATM   26  C   UNL     1      41.348 -14.059  -3.128  1.00  0.00     0.352 A 
HETATM   27  C   UNL     1      41.928 -13.096   1.214  1.00  0.00     0.017 A 
ENDBRANCH   6  19
TORSDOF 5
ENDMDL
MODEL 7
REMARK VINA RESULT:      -7.8      5.175      8.145
REMARK  5 active torsions:
REMARK  status: ('A' for Active; 'I' for Inactive)
REMARK    1  A    between atoms: C_3  and  N_4 
REMARK    2  A    between atoms: N_5  and  C_6 
REMARK    3  A    between atoms: C_6  and  C_7 
REMARK    4  A    between atoms: C_7  and  C_8 
REMARK    5  A    between atoms: C_16  and  C_17 
ROOT
HETATM    1  C   UNL     1      43.857 -13.987   3.788  1.00  0.00     0.175 C 
HETATM    2  N   UNL     1      42.913 -14.351   2.740  1.00  0.00    -0.186 N 
HETATM    3  C   UNL     1      42.192 -13.470   2.051  1.00  0.00     0.680 A 
HETATM    4  N   UNL     1      41.602 -14.090   1.036  1.00  0.00    -0.184 N 
HETATM    5  C   UNL     1      41.934 -15.432   1.094  1.00  0.00     0.140 A 
HETATM    6  C   UNL     1      42.727 -15.642   2.204  1.00  0.00     0.077 A 
ENDROOT
BRANCH   4   7
HETATM    7  C   UNL     1      40.665 -13.509   0.053  1.00  0.00     0.231 C 
BRANCH   7   8
HETATM    8  C   UNL     1      41.051 -13.832  -1.385  1.00  0.00     0.178 C 
HETATM    9  O   UNL     1      42.174 -13.566  -1.822  1.00  0.00    -0.290 OA
BRANCH   8  10
HETATM   10  C   UNL     1      40.059 -14.499  -2.266  1.00  0.00     0.011 A 
HETATM   11  C   UNL     1      40.393 -15.609  -3.050  1.00  0.00     0.015 A 
HETATM   12  C   UNL     1      39.427 -16.192  -3.874  1.00  0.00     0.001 A 
HETATM   13  C   UNL     1      38.133 -15.672  -3.911  1.00  0.00     0.000 A 
HETATM   14  C   UNL     1      37.794 -14.578  -3.118  1.00  0.00     0.001 A 
HETATM   15  C   UNL     1      38.753 -13.993  -2.290  1.00  0.00     0.015 A 
ENDBRANCH   8  10
ENDBRANCH   7   8
ENDBRANCH   4   7
BRANCH   3  16
HETATM   16  N   UNL     1      42.099 -12.174   2.332  1.00  0.00    -0.234 N 
HETATM   17  H   UNL     1      42.007 -11.466   1.624  1.00  0.00     0.174 HD
HETATM   18  H   UNL     1      41.914 -11.892   3.297  1.00  0.00     0.174 HD
ENDBRANCH   3  16
BRANCH   6  19
HETATM   19  C   UNL     1      43.244 -16.985   2.656  1.00  0.00    -0.004 A 
HETATM   20  C   UNL     1      43.306 -17.270   4.030  1.00  0.00     0.053 A 
HETATM   21  C   UNL     1      43.784 -18.506   4.416  1.00  0.00     0.106 A 
HETATM   22  C   UNL     1      44.199 -19.443   3.504  1.00  0.00     0.105 A 
HETATM   23  O   UNL     1      43.902 -18.941   5.699  1.00  0.00    -0.323 OA
HETATM   24  O   UNL     1      44.631 -20.587   4.095  1.00  0.00    -0.323 OA
HETATM   25  C   UNL     1      44.167 -19.192   2.152  1.00  0.00     0.040 A 
HETATM   26  C   UNL     1      44.441 -20.266   5.490  1.00  0.00     0.352 A 
HETATM   27  C   UNL     1      43.689 -17.945   1.726  1.00  0.00     0.017 A 
ENDBRANCH   6  19
TORSDOF 5
ENDMDL
MODEL 8
REMARK VINA RESULT:      -7.7      2.912      7.875
REMARK  5 active torsions:
REMARK  status: ('A' for Active; 'I' for Inactive)
REMARK    1  A    between atoms: C_3  and  N_4 
REMARK    2  A    between atoms: N_5  and  C_6 
REMARK    3  A    between atoms: C_6  and  C_7 
REMARK    4  A    between atoms: C_7  and  C_8 
REMARK    5  A    between atoms: C_16  and  C_17 
ROOT
HETATM    1  C   UNL     1      41.056 -17.827   1.040  1.00  0.00     0.175 C 
HETATM    2  N   UNL     1      42.070 -17.111   1.801  1.00  0.00    -0.186 N 
HETATM    3  C   UNL     1      42.093 -15.788   1.947  1.00  0.00     0.680 A 
HETATM    4  N   UNL     1      43.001 -15.468   2.862  1.00  0.00    -0.184 N 
HETATM    5  C   UNL     1      43.607 -16.632   3.299  1.00  0.00     0.140 A 
HETATM    6  C   UNL     1      43.073 -17.696   2.601  1.00  0.00     0.077 A 
ENDROOT
BRANCH   4   7
HETATM    7  C   UNL     1      43.399 -14.113   3.294  1.00  0.00     0.231 C 
BRANCH   7   8
HETATM    8  C   UNL     1      42.939 -13.791   4.711  1.00  0.00     0.178 C 
HETATM    9  O   UNL     1      42.561 -12.658   5.019  1.00  0.00    -0.290 OA
BRANCH   8  10
HETATM   10  C   UNL     1      42.928 -14.872   5.728  1.00  0.00     0.011 A 
HETATM   11  C   UNL     1      44.042 -15.145   6.531  1.00  0.00     0.015 A 
HETATM   12  C   UNL     1      43.986 -16.183   7.464  1.00  0.00     0.001 A 
HETATM   13  C   UNL     1      42.823 -16.941   7.600  1.00  0.00     0.000 A 
HETATM   14  C   UNL     1      41.708 -16.660   6.813  1.00  0.00     0.001 A 
HETATM   15  C   UNL     1      41.755 -15.622   5.882  1.00  0.00     0.015 A 
ENDBRANCH   8  10
ENDBRANCH   7   8
ENDBRANCH   4   7
BRANCH   3  16
HETATM   16  N   UNL     1      41.316 -14.935   1.290  1.00  0.00    -0.234 N 
HETATM   17  H   UNL     1      40.321 -14.884   1.427  1.00  0.00     0.174 HD
HETATM   18  H   UNL     1      41.752 -14.168   0.774  1.00  0.00     0.174 HD
ENDBRANCH   3  16
BRANCH   6  19
HETATM   19  C   UNL     1      43.516 -19.131   2.739  1.00  0.00    -0.004 A 
HETATM   20  C   UNL     1      44.058 -19.569   3.959  1.00  0.00     0.053 A 
HETATM   21  C   UNL     1      44.457 -20.887   4.057  1.00  0.00     0.106 A 
HETATM   22  C   UNL     1      44.345 -21.761   3.006  1.00  0.00     0.105 A 
HETATM   23  O   UNL     1      44.993 -21.469   5.163  1.00  0.00    -0.323 OA
HETATM   24  O   UNL     1      44.794 -23.005   3.314  1.00  0.00    -0.323 OA
HETATM   25  C   UNL     1      43.833 -21.363   1.792  1.00  0.00     0.040 A 
HETATM   26  C   UNL     1      45.205 -22.817   4.685  1.00  0.00     0.352 A 
HETATM   27  C   UNL     1      43.422 -20.030   1.658  1.00  0.00     0.017 A 
ENDBRANCH   6  19
TORSDOF 5
ENDMDL
MODEL 9
REMARK VINA RESULT:      -7.7      3.269      8.189
REMARK  5 active torsions:
REMARK  status: ('A' for Active; 'I' for Inactive)
REMARK    1  A    between atoms: C_3  and  N_4 
REMARK    2  A    between atoms: N_5  and  C_6 
REMARK    3  A    between atoms: C_6  and  C_7 
REMARK    4  A    between atoms: C_7  and  C_8 
REMARK    5  A    between atoms: C_16  and  C_17 
ROOT
HETATM    1  C   UNL     1      44.761 -17.594   6.972  1.00  0.00     0.175 C 
HETATM    2  N   UNL     1      43.971 -16.868   5.988  1.00  0.00    -0.186 N 
HETATM    3  C   UNL     1      43.545 -15.617   6.153  1.00  0.00     0.680 A 
HETATM    4  N   UNL     1      43.048 -15.173   5.005  1.00  0.00    -0.184 N 
HETATM    5  C   UNL     1      43.131 -16.191   4.072  1.00  0.00     0.140 A 
HETATM    6  C   UNL     1      43.666 -17.306   4.683  1.00  0.00     0.077 A 
ENDROOT
BRANCH   4   7
HETATM    7  C   UNL     1      42.414 -13.863   4.750  1.00  0.00     0.231 C 
BRANCH   7   8
HETATM    8  C   UNL     1      40.897 -13.910   4.890  1.00  0.00     0.178 C 
HETATM    9  O   UNL     1      40.360 -13.993   5.998  1.00  0.00    -0.290 OA
BRANCH   8  10
HETATM   10  C   UNL     1      40.057 -13.832   3.669  1.00  0.00     0.011 A 
HETATM   11  C   UNL     1      39.511 -12.623   3.221  1.00  0.00     0.015 A 
HETATM   12  C   UNL     1      38.714 -12.606   2.074  1.00  0.00     0.001 A 
HETATM   13  C   UNL     1      38.467 -13.788   1.375  1.00  0.00     0.000 A 
HETATM   14  C   UNL     1      39.024 -14.989   1.809  1.00  0.00     0.001 A 
HETATM   15  C   UNL     1      39.824 -15.013   2.952  1.00  0.00     0.015 A 
ENDBRANCH   8  10
ENDBRANCH   7   8
ENDBRANCH   4   7
BRANCH   3  16
HETATM   16  N   UNL     1      43.626 -14.928   7.286  1.00  0.00    -0.234 N 
HETATM   17  H   UNL     1      42.892 -14.322   7.610  1.00  0.00     0.174 HD
HETATM   18  H   UNL     1      44.362 -15.162   7.954  1.00  0.00     0.174 HD
ENDBRANCH   3  16
BRANCH   6  19
HETATM   19  C   UNL     1      43.857 -18.648   4.021  1.00  0.00    -0.004 A 
HETATM   20  C   UNL     1      44.357 -19.722   4.775  1.00  0.00     0.053 A 
HETATM   21  C   UNL     1      44.523 -20.938   4.143  1.00  0.00     0.106 A 
HETATM   22  C   UNL     1      44.223 -21.116   2.817  1.00  0.00     0.105 A 
HETATM   23  O   UNL     1      44.988 -22.074   4.728  1.00  0.00    -0.323 OA
HETATM   24  O   UNL     1      44.459 -22.385   2.396  1.00  0.00    -0.323 OA
HETATM   25  C   UNL     1      43.746 -20.083   2.044  1.00  0.00     0.040 A 
HETATM   26  C   UNL     1      44.946 -22.993   3.613  1.00  0.00     0.352 A 
HETATM   27  C   UNL     1      43.569 -18.833   2.654  1.00  0.00     0.017 A 
ENDBRANCH   6  19
TORSDOF 5
ENDMDL
MODEL 10
REMARK VINA RESULT:      -7.7      3.249      8.405
REMARK  5 active torsions:
REMARK  status: ('A' for Active; 'I' for Inactive)
REMARK    1  A    between atoms: C_3  and  N_4 
REMARK    2  A    between atoms: N_5  and  C_6 
REMARK    3  A    between atoms: C_6  and  C_7 
REMARK    4  A    between atoms: C_7  and  C_8 
REMARK    5  A    between atoms: C_16  and  C_17 
ROOT
HETATM    1  C   UNL     1      40.970 -17.698   1.234  1.00  0.00     0.175 C 
HETATM    2  N   UNL     1      42.054 -16.983   1.892  1.00  0.00    -0.186 N 
HETATM    3  C   UNL     1      42.118 -15.657   1.991  1.00  0.00     0.680 A 
HETATM    4  N   UNL     1      43.099 -15.329   2.823  1.00  0.00    -0.184 N 
HETATM    5  C   UNL     1      43.710 -16.493   3.254  1.00  0.00     0.140 A 
HETATM    6  C   UNL     1      43.101 -17.566   2.636  1.00  0.00     0.077 A 
ENDROOT
BRANCH   4   7
HETATM    7  C   UNL     1      43.558 -13.971   3.177  1.00  0.00     0.231 C 
BRANCH   7   8
HETATM    8  C   UNL     1      43.269 -13.615   4.631  1.00  0.00     0.178 C 
HETATM    9  O   UNL     1      44.158 -13.645   5.486  1.00  0.00    -0.290 OA
BRANCH   8  10
HETATM   10  C   UNL     1      41.894 -13.206   5.013  1.00  0.00     0.011 A 
HETATM   11  C   UNL     1      40.944 -14.131   5.463  1.00  0.00     0.015 A 
HETATM   12  C   UNL     1      39.659 -13.697   5.797  1.00  0.00     0.001 A 
HETATM   13  C   UNL     1      39.325 -12.347   5.688  1.00  0.00     0.000 A 
HETATM   14  C   UNL     1      40.274 -11.423   5.257  1.00  0.00     0.001 A 
HETATM   15  C   UNL     1      41.561 -11.848   4.925  1.00  0.00     0.015 A 
ENDBRANCH   8  10
ENDBRANCH   7   8
ENDBRANCH   4   7
BRANCH   3  16
HETATM   16  N   UNL     1      41.312 -14.807   1.364  1.00  0.00    -0.234 N 
HETATM   17  H   UNL     1      41.106 -13.888   1.716  1.00  0.00     0.174 HD
HETATM   18  H   UNL     1      41.044 -15.003   0.397  1.00  0.00     0.174 HD
ENDBRANCH   3  16
BRANCH   6  19
HETATM   19  C   UNL     1      43.522 -19.006   2.790  1.00  0.00    -0.004 A 
HETATM   20  C   UNL     1      44.039 -19.444   4.020  1.00  0.00     0.053 A 
HETATM   21  C   UNL     1      44.417 -20.766   4.133  1.00  0.00     0.106 A 
HETATM   22  C   UNL     1      44.308 -21.646   3.087  1.00  0.00     0.105 A 
HETATM   23  O   UNL     1      44.928 -21.349   5.251  1.00  0.00    -0.323 OA
HETATM   24  O   UNL     1      44.734 -22.894   3.410  1.00  0.00    -0.323 OA
HETATM   25  C   UNL     1      43.820 -21.249   1.863  1.00  0.00     0.040 A 
HETATM   26  C   UNL     1      45.128 -22.703   4.786  1.00  0.00     0.352 A 
HETATM   27  C   UNL     1      43.430 -19.911   1.714  1.00  0.00     0.017 A 
ENDBRANCH   6  19
TORSDOF 5
ENDMDL
