MODEL 1
REMARK VINA RESULT:      -7.7      0.000      0.000
REMARK  6 active torsions:
REMARK  status: ('A' for Active; 'I' for Inactive)
REMARK    1  A    between atoms: C_4  and  C_5 
REMARK    2  A    between atoms: C_5  and  N_6 
REMARK    3  A    between atoms: C_5  and  C_22 
REMARK    4  A    between atoms: N_6  and  C_9 
REMARK    5  A    between atoms: C_9  and  C_10 
REMARK    6  A    between atoms: C_13  and  C_14 
REMARK       I    between atoms: C_22  and  N_23 
ROOT
HETATM    1  N   UNL     1      41.891 -13.582   3.870  1.00  0.00    -0.054 N 
HETATM    2  H   UNL     1      41.737 -12.572   3.799  1.00  0.00     0.278 HD
HETATM    3  H   UNL     1      42.903 -13.723   3.980  1.00  0.00     0.278 HD
ENDROOT
BRANCH   1   4
HETATM    4  C   UNL     1      41.244 -14.125   5.125  1.00  0.00     0.310 C 
BRANCH   4   5
HETATM    5  C   UNL     1      42.131 -15.106   5.863  1.00  0.00    -0.019 A 
HETATM    6  C   UNL     1      43.463 -14.819   6.206  1.00  0.00     0.010 A 
HETATM    7  C   UNL     1      44.246 -15.767   6.867  1.00  0.00     0.001 A 
HETATM    8  C   UNL     1      43.722 -17.020   7.177  1.00  0.00     0.000 A 
HETATM    9  C   UNL     1      42.410 -17.327   6.831  1.00  0.00     0.001 A 
HETATM   10  C   UNL     1      41.618 -16.379   6.183  1.00  0.00     0.010 A 
ENDBRANCH   4   5
BRANCH   4  11
HETATM   11  C   UNL     1      40.651 -12.967   5.964  1.00  0.00     0.251 C 
HETATM   12  N   UNL     1      39.618 -13.252   6.808  1.00  0.00    -0.368 N 
HETATM   13  H   UNL     1      39.284 -14.185   7.023  1.00  0.00     0.159 HD
HETATM   14  H   UNL     1      39.223 -12.491   7.353  1.00  0.00     0.159 HD
HETATM   15  O   UNL     1      41.038 -11.810   5.810  1.00  0.00    -0.271 OA
ENDBRANCH   4  11
ENDBRANCH   1   4
BRANCH   1  16
HETATM   16  C   UNL     1      41.523 -14.214   2.570  1.00  0.00     0.272 C 
BRANCH  16  17
HETATM   17  C   UNL     1      42.081 -15.612   2.534  1.00  0.00    -0.033 A 
HETATM   18  C   UNL     1      41.221 -16.714   2.468  1.00  0.00     0.010 A 
HETATM   19  C   UNL     1      41.727 -18.016   2.551  1.00  0.00     0.013 A 
HETATM   20  C   UNL     1      43.104 -18.257   2.694  1.00  0.00    -0.025 A 
HETATM   21  C   UNL     1      43.957 -17.142   2.737  1.00  0.00     0.013 A 
HETATM   22  C   UNL     1      43.457 -15.837   2.665  1.00  0.00     0.010 A 
BRANCH  20  23
HETATM   23  C   UNL     1      43.633 -19.630   2.804  1.00  0.00    -0.008 A 
HETATM   24  C   UNL     1      44.378 -20.051   3.907  1.00  0.00     0.128 A 
HETATM   25  N   UNL     1      44.908 -21.288   4.062  1.00  0.00    -0.272 NA
HETATM   26  C   UNL     1      44.683 -22.173   3.069  1.00  0.00     0.116 A 
HETATM   27  C   UNL     1      43.957 -21.873   1.932  1.00  0.00     0.020 A 
HETATM   28  C   UNL     1      43.430 -20.586   1.801  1.00  0.00     0.015 A 
ENDBRANCH  20  23
ENDBRANCH  16  17
ENDBRANCH   1  16
TORSDOF 6
ENDMDL
MODEL 2
REMARK VINA RESULT:      -7.7      1.689      2.035
REMARK  6 active torsions:
REMARK  status: ('A' for Active; 'I' for Inactive)
REMARK    1  A    between atoms: C_4  and  C_5 
REMARK    2  A    between atoms: C_5  and  N_6 
REMARK    3  A    between atoms: C_5  and  C_22 
REMARK    4  A    between atoms: N_6  and  C_9 
REMARK    5  A    between atoms: C_9  and  C_10 
REMARK    6  A    between atoms: C_13  and  C_14 
REMARK       I    between atoms: C_22  and  N_23 
ROOT
HETATM    1  N   UNL     1      42.157 -14.188   1.771  1.00  0.00    -0.054 N 
HETATM    2  H   UNL     1      42.116 -13.250   1.363  1.00  0.00     0.278 HD
HETATM    3  H   UNL     1      43.128 -14.344   2.069  1.00  0.00     0.278 HD
ENDROOT
BRANCH   1   4
HETATM    4  C   UNL     1      41.309 -14.256   3.022  1.00  0.00     0.310 C 
BRANCH   4   5
HETATM    5  C   UNL     1      41.817 -15.276   4.019  1.00  0.00    -0.019 A 
HETATM    6  C   UNL     1      43.118 -15.242   4.547  1.00  0.00     0.010 A 
HETATM    7  C   UNL     1      43.545 -16.220   5.448  1.00  0.00     0.001 A 
HETATM    8  C   UNL     1      42.691 -17.257   5.817  1.00  0.00     0.000 A 
HETATM    9  C   UNL     1      41.404 -17.316   5.291  1.00  0.00     0.001 A 
HETATM   10  C   UNL     1      40.967 -16.333   4.403  1.00  0.00     0.010 A 
ENDBRANCH   4   5
BRANCH   4  11
HETATM   11  C   UNL     1      41.049 -12.830   3.567  1.00  0.00     0.251 C 
HETATM   12  N   UNL     1      41.739 -11.795   3.008  1.00  0.00    -0.368 N 
HETATM   13  H   UNL     1      42.321 -11.865   2.181  1.00  0.00     0.159 HD
HETATM   14  H   UNL     1      41.574 -10.860   3.371  1.00  0.00     0.159 HD
HETATM   15  O   UNL     1      40.310 -12.647   4.533  1.00  0.00    -0.271 OA
ENDBRANCH   4  11
ENDBRANCH   1   4
BRANCH   1  16
HETATM   16  C   UNL     1      41.890 -15.188   0.697  1.00  0.00     0.272 C 
BRANCH  16  17
HETATM   17  C   UNL     1      42.446 -16.521   1.123  1.00  0.00    -0.033 A 
HETATM   18  C   UNL     1      41.593 -17.617   1.307  1.00  0.00     0.010 A 
HETATM   19  C   UNL     1      42.087 -18.824   1.814  1.00  0.00     0.013 A 
HETATM   20  C   UNL     1      43.443 -18.977   2.146  1.00  0.00    -0.025 A 
HETATM   21  C   UNL     1      44.291 -17.877   1.936  1.00  0.00     0.013 A 
HETATM   22  C   UNL     1      43.803 -16.663   1.439  1.00  0.00     0.010 A 
BRANCH  20  23
HETATM   23  C   UNL     1      43.956 -20.243   2.701  1.00  0.00    -0.008 A 
HETATM   24  C   UNL     1      43.980 -21.424   1.955  1.00  0.00     0.128 A 
HETATM   25  N   UNL     1      44.420 -22.622   2.409  1.00  0.00    -0.272 NA
HETATM   26  C   UNL     1      44.874 -22.661   3.678  1.00  0.00     0.116 A 
HETATM   27  C   UNL     1      44.904 -21.556   4.510  1.00  0.00     0.020 A 
HETATM   28  C   UNL     1      44.438 -20.338   4.013  1.00  0.00     0.015 A 
ENDBRANCH  20  23
ENDBRANCH  16  17
ENDBRANCH   1  16
TORSDOF 6
ENDMDL
MODEL 3
REMARK VINA RESULT:      -7.4      3.147      5.406
REMARK  6 active torsions:
REMARK  status: ('A' for Active; 'I' for Inactive)
REMARK    1  A    between atoms: C_4  and  C_5 
REMARK    2  A    between atoms: C_5  and  N_6 
REMARK    3  A    between atoms: C_5  and  C_22 
REMARK    4  A    between atoms: N_6  and  C_9 
REMARK    5  A    between atoms: C_9  and  C_10 
REMARK    6  A    between atoms: C_13  and  C_14 
REMARK       I    between atoms: C_22  and  N_23 
ROOT
HETATM    1  N   UNL     1      42.074 -14.531   0.846  1.00  0.00    -0.054 N 
HETATM    2  H   UNL     1      42.354 -15.392   0.369  1.00  0.00     0.278 HD
HETATM    3  H   UNL     1      42.620 -13.766   0.429  1.00  0.00     0.278 HD
ENDROOT
BRANCH   1   4
HETATM    4  C   UNL     1      40.620 -14.221   0.565  1.00  0.00     0.310 C 
BRANCH   4   5
HETATM    5  C   UNL     1      40.211 -14.571  -0.850  1.00  0.00    -0.019 A 
HETATM    6  C   UNL     1      40.969 -15.418  -1.675  1.00  0.00     0.010 A 
HETATM    7  C   UNL     1      40.559 -15.692  -2.982  1.00  0.00     0.001 A 
HETATM    8  C   UNL     1      39.400 -15.110  -3.491  1.00  0.00     0.000 A 
HETATM    9  C   UNL     1      38.645 -14.256  -2.694  1.00  0.00     0.001 A 
HETATM   10  C   UNL     1      39.042 -13.991  -1.383  1.00  0.00     0.010 A 
ENDBRANCH   4   5
BRANCH   4  11
HETATM   11  C   UNL     1      39.727 -14.780   1.699  1.00  0.00     0.251 C 
HETATM   12  N   UNL     1      39.511 -16.126   1.740  1.00  0.00    -0.368 N 
HETATM   13  H   UNL     1      39.987 -16.808   1.159  1.00  0.00     0.159 HD
HETATM   14  H   UNL     1      38.919 -16.493   2.479  1.00  0.00     0.159 HD
HETATM   15  O   UNL     1      39.157 -14.027   2.486  1.00  0.00    -0.271 OA
ENDBRANCH   4  11
ENDBRANCH   1   4
BRANCH   1  16
HETATM   16  C   UNL     1      42.502 -14.614   2.273  1.00  0.00     0.272 C 
BRANCH  16  17
HETATM   17  C   UNL     1      43.019 -16.002   2.545  1.00  0.00    -0.033 A 
HETATM   18  C   UNL     1      43.499 -16.796   1.496  1.00  0.00     0.010 A 
HETATM   19  C   UNL     1      43.872 -18.125   1.725  1.00  0.00     0.013 A 
HETATM   20  C   UNL     1      43.784 -18.699   3.004  1.00  0.00    -0.025 A 
HETATM   21  C   UNL     1      43.321 -17.885   4.050  1.00  0.00     0.013 A 
HETATM   22  C   UNL     1      42.937 -16.558   3.828  1.00  0.00     0.010 A 
BRANCH  20  23
HETATM   23  C   UNL     1      44.157 -20.107   3.237  1.00  0.00    -0.008 A 
HETATM   24  C   UNL     1      44.056 -21.077   2.237  1.00  0.00     0.128 A 
HETATM   25  N   UNL     1      44.362 -22.387   2.390  1.00  0.00    -0.272 NA
HETATM   26  C   UNL     1      44.806 -22.769   3.605  1.00  0.00     0.116 A 
HETATM   27  C   UNL     1      44.952 -21.899   4.670  1.00  0.00     0.020 A 
HETATM   28  C   UNL     1      44.621 -20.556   4.480  1.00  0.00     0.015 A 
ENDBRANCH  20  23
ENDBRANCH  16  17
ENDBRANCH   1  16
TORSDOF 6
ENDMDL
MODEL 4
REMARK VINA RESULT:      -7.3      1.461      3.287
REMARK  6 active torsions:
REMARK  status: ('A' for Active; 'I' for Inactive)
REMARK    1  A    between atoms: C_4  and  C_5 
REMARK    2  A    between atoms: C_5  and  N_6 
REMARK    3  A    between atoms: C_5  and  C_22 
REMARK    4  A    between atoms: N_6  and  C_9 
REMARK    5  A    between atoms: C_9  and  C_10 
REMARK    6  A    between atoms: C_13  and  C_14 
REMARK       I    between atoms: C_22  and  N_23 
ROOT
HETATM    1  N   UNL     1      41.649 -13.873   5.885  1.00  0.00    -0.054 N 
HETATM    2  H   UNL     1      41.702 -13.617   6.875  1.00  0.00     0.278 HD
HETATM    3  H   UNL     1      41.184 -14.789   5.837  1.00  0.00     0.278 HD
ENDROOT
BRANCH   1   4
HETATM    4  C   UNL     1      40.761 -12.903   5.138  1.00  0.00     0.310 C 
BRANCH   4   5
HETATM    5  C   UNL     1      40.500 -13.329   3.709  1.00  0.00    -0.019 A 
HETATM    6  C   UNL     1      40.938 -12.587   2.600  1.00  0.00     0.010 A 
HETATM    7  C   UNL     1      40.652 -13.013   1.301  1.00  0.00     0.001 A 
HETATM    8  C   UNL     1      39.906 -14.171   1.090  1.00  0.00     0.000 A 
HETATM    9  C   UNL     1      39.450 -14.910   2.176  1.00  0.00     0.001 A 
HETATM   10  C   UNL     1      39.746 -14.498   3.475  1.00  0.00     0.010 A 
ENDBRANCH   4   5
BRANCH   4  11
HETATM   11  C   UNL     1      39.517 -12.554   5.991  1.00  0.00     0.251 C 
HETATM   12  N   UNL     1      39.373 -13.173   7.197  1.00  0.00    -0.368 N 
HETATM   13  H   UNL     1      40.076 -13.755   7.638  1.00  0.00     0.159 HD
HETATM   14  H   UNL     1      38.553 -12.950   7.754  1.00  0.00     0.159 HD
HETATM   15  O   UNL     1      38.640 -11.809   5.556  1.00  0.00    -0.271 OA
ENDBRANCH   4  11
ENDBRANCH   1   4
BRANCH   1  16
HETATM   16  C   UNL     1      43.033 -14.084   5.371  1.00  0.00     0.272 C 
BRANCH  16  17
HETATM   17  C   UNL     1      43.161 -15.503   4.885  1.00  0.00    -0.033 A 
HETATM   18  C   UNL     1      43.345 -16.549   5.798  1.00  0.00     0.010 A 
HETATM   19  C   UNL     1      43.579 -17.852   5.347  1.00  0.00     0.013 A 
HETATM   20  C   UNL     1      43.632 -18.153   3.976  1.00  0.00    -0.025 A 
HETATM   21  C   UNL     1      43.425 -17.098   3.072  1.00  0.00     0.013 A 
HETATM   22  C   UNL     1      43.199 -15.790   3.515  1.00  0.00     0.010 A 
BRANCH  20  23
HETATM   23  C   UNL     1      43.903 -19.524   3.503  1.00  0.00    -0.008 A 
HETATM   24  C   UNL     1      44.534 -20.474   4.308  1.00  0.00     0.128 A 
HETATM   25  N   UNL     1      44.828 -21.742   3.931  1.00  0.00    -0.272 NA
HETATM   26  C   UNL     1      44.471 -22.101   2.681  1.00  0.00     0.116 A 
HETATM   27  C   UNL     1      43.837 -21.249   1.796  1.00  0.00     0.020 A 
HETATM   28  C   UNL     1      43.553 -19.947   2.215  1.00  0.00     0.015 A 
ENDBRANCH  20  23
ENDBRANCH  16  17
ENDBRANCH   1  16
TORSDOF 6
ENDMDL
MODEL 5
REMARK VINA RESULT:      -7.3      3.124      6.381
REMARK  6 active torsions:
REMARK  status: ('A' for Active; 'I' for Inactive)
REMARK    1  A    between atoms: C_4  and  C_5 
REMARK    2  A    between atoms: C_5  and  N_6 
REMARK    3  A    between atoms: C_5  and  C_22 
REMARK    4  A    between atoms: N_6  and  C_9 
REMARK    5  A    between atoms: C_9  and  C_10 
REMARK    6  A    between atoms: C_13  and  C_14 
REMARK       I    between atoms: C_22  and  N_23 
ROOT
HETATM    1  N   UNL     1      44.131 -20.510   3.394  1.00  0.00    -0.054 N 
HETATM    2  H   UNL     1      44.174 -21.504   3.154  1.00  0.00     0.278 HD
HETATM    3  H   UNL     1      43.136 -20.261   3.463  1.00  0.00     0.278 HD
ENDROOT
BRANCH   1   4
HETATM    4  C   UNL     1      44.728 -20.272   4.763  1.00  0.00     0.310 C 
BRANCH   4   5
HETATM    5  C   UNL     1      44.238 -18.989   5.400  1.00  0.00    -0.019 A 
HETATM    6  C   UNL     1      45.072 -18.144   6.151  1.00  0.00     0.010 A 
HETATM    7  C   UNL     1      44.566 -16.982   6.737  1.00  0.00     0.001 A 
HETATM    8  C   UNL     1      43.218 -16.657   6.603  1.00  0.00     0.000 A 
HETATM    9  C   UNL     1      42.373 -17.490   5.876  1.00  0.00     0.001 A 
HETATM   10  C   UNL     1      42.877 -18.644   5.276  1.00  0.00     0.010 A 
ENDBRANCH   4   5
BRANCH   4  11
HETATM   11  C   UNL     1      44.616 -21.554   5.624  1.00  0.00     0.251 C 
HETATM   12  N   UNL     1      45.229 -22.685   5.171  1.00  0.00    -0.368 N 
HETATM   13  H   UNL     1      45.855 -22.726   4.374  1.00  0.00     0.159 HD
HETATM   14  H   UNL     1      45.150 -23.529   5.731  1.00  0.00     0.159 HD
HETATM   15  O   UNL     1      43.923 -21.577   6.639  1.00  0.00    -0.271 OA
ENDBRANCH   4  11
ENDBRANCH   1   4
BRANCH   1  16
HETATM   16  C   UNL     1      44.677 -19.720   2.252  1.00  0.00     0.272 C 
BRANCH  16  17
HETATM   17  C   UNL     1      43.710 -18.614   1.919  1.00  0.00    -0.033 A 
HETATM   18  C   UNL     1      44.125 -17.278   1.957  1.00  0.00     0.010 A 
HETATM   19  C   UNL     1      43.204 -16.243   1.761  1.00  0.00     0.013 A 
HETATM   20  C   UNL     1      41.846 -16.509   1.517  1.00  0.00    -0.025 A 
HETATM   21  C   UNL     1      41.449 -17.854   1.460  1.00  0.00     0.013 A 
HETATM   22  C   UNL     1      42.362 -18.895   1.664  1.00  0.00     0.010 A 
BRANCH  20  23
HETATM   23  C   UNL     1      40.873 -15.415   1.334  1.00  0.00    -0.008 A 
HETATM   24  C   UNL     1      41.197 -14.242   0.650  1.00  0.00     0.128 A 
HETATM   25  N   UNL     1      40.360 -13.194   0.463  1.00  0.00    -0.272 NA
HETATM   26  C   UNL     1      39.118 -13.311   0.975  1.00  0.00     0.116 A 
HETATM   27  C   UNL     1      38.681 -14.426   1.666  1.00  0.00     0.020 A 
HETATM   28  C   UNL     1      39.572 -15.486   1.847  1.00  0.00     0.015 A 
ENDBRANCH  20  23
ENDBRANCH  16  17
ENDBRANCH   1  16
TORSDOF 6
ENDMDL
MODEL 6
REMARK VINA RESULT:      -7.1      5.331      9.759
REMARK  6 active torsions:
REMARK  status: ('A' for Active; 'I' for Inactive)
REMARK    1  A    between atoms: C_4  and  C_5 
REMARK    2  A    between atoms: C_5  and  N_6 
REMARK    3  A    between atoms: C_5  and  C_22 
REMARK    4  A    between atoms: N_6  and  C_9 
REMARK    5  A    between atoms: C_9  and  C_10 
REMARK    6  A    between atoms: C_13  and  C_14 
REMARK       I    between atoms: C_22  and  N_23 
ROOT
HETATM    1  N   UNL     1      44.304 -14.070   7.782  1.00  0.00    -0.054 N 
HETATM    2  H   UNL     1      43.419 -13.769   8.198  1.00  0.00     0.278 HD
HETATM    3  H   UNL     1      44.635 -14.875   8.330  1.00  0.00     0.278 HD
ENDROOT
BRANCH   1   4
HETATM    4  C   UNL     1      44.080 -14.575   6.374  1.00  0.00     0.310 C 
BRANCH   4   5
HETATM    5  C   UNL     1      43.794 -16.060   6.323  1.00  0.00    -0.019 A 
HETATM    6  C   UNL     1      43.615 -16.761   5.118  1.00  0.00     0.010 A 
HETATM    7  C   UNL     1      43.331 -18.129   5.127  1.00  0.00     0.001 A 
HETATM    8  C   UNL     1      43.199 -18.812   6.333  1.00  0.00     0.000 A 
HETATM    9  C   UNL     1      43.357 -18.131   7.536  1.00  0.00     0.001 A 
HETATM   10  C   UNL     1      43.656 -16.769   7.534  1.00  0.00     0.010 A 
ENDBRANCH   4   5
BRANCH   4  11
HETATM   11  C   UNL     1      43.079 -13.656   5.632  1.00  0.00     0.251 C 
HETATM   12  N   UNL     1      41.863 -13.435   6.208  1.00  0.00    -0.368 N 
HETATM   13  H   UNL     1      41.603 -13.726   7.144  1.00  0.00     0.159 HD
HETATM   14  H   UNL     1      41.203 -12.838   5.718  1.00  0.00     0.159 HD
HETATM   15  O   UNL     1      43.337 -13.209   4.515  1.00  0.00    -0.271 OA
ENDBRANCH   4  11
ENDBRANCH   1   4
BRANCH   1  16
HETATM   16  C   UNL     1      45.316 -12.992   7.979  1.00  0.00     0.272 C 
BRANCH  16  17
HETATM   17  C   UNL     1      44.790 -12.012   8.995  1.00  0.00    -0.033 A 
HETATM   18  C   UNL     1      45.511 -11.753  10.167  1.00  0.00     0.010 A 
HETATM   19  C   UNL     1      44.974 -10.933  11.165  1.00  0.00     0.013 A 
HETATM   20  C   UNL     1      43.707 -10.344  11.024  1.00  0.00    -0.025 A 
HETATM   21  C   UNL     1      43.004 -10.595   9.834  1.00  0.00     0.013 A 
HETATM   22  C   UNL     1      43.530 -11.421   8.834  1.00  0.00     0.010 A 
BRANCH  20  23
HETATM   23  C   UNL     1      43.133  -9.499  12.087  1.00  0.00    -0.008 A 
HETATM   24  C   UNL     1      42.443  -8.318  11.804  1.00  0.00     0.128 A 
HETATM   25  N   UNL     1      41.909  -7.488  12.732  1.00  0.00    -0.272 NA
HETATM   26  C   UNL     1      42.055  -7.846  14.023  1.00  0.00     0.116 A 
HETATM   27  C   UNL     1      42.713  -8.994  14.425  1.00  0.00     0.020 A 
HETATM   28  C   UNL     1      43.258  -9.825  13.444  1.00  0.00     0.015 A 
ENDBRANCH  20  23
ENDBRANCH  16  17
ENDBRANCH   1  16
TORSDOF 6
ENDMDL
MODEL 7
REMARK VINA RESULT:      -7.0      4.347      6.479
REMARK  6 active torsions:
REMARK  status: ('A' for Active; 'I' for Inactive)
REMARK    1  A    between atoms: C_4  and  C_5 
REMARK    2  A    between atoms: C_5  and  N_6 
REMARK    3  A    between atoms: C_5  and  C_22 
REMARK    4  A    between atoms: N_6  and  C_9 
REMARK    5  A    between atoms: C_9  and  C_10 
REMARK    6  A    between atoms: C_13  and  C_14 
REMARK       I    between atoms: C_22  and  N_23 
ROOT
HETATM    1  N   UNL     1      42.079 -14.792  -0.610  1.00  0.00    -0.054 N 
HETATM    2  H   UNL     1      42.325 -15.712  -0.986  1.00  0.00     0.278 HD
HETATM    3  H   UNL     1      42.952 -14.256  -0.535  1.00  0.00     0.278 HD
ENDROOT
BRANCH   1   4
HETATM    4  C   UNL     1      41.198 -14.043  -1.584  1.00  0.00     0.310 C 
BRANCH   4   5
HETATM    5  C   UNL     1      41.803 -12.730  -2.031  1.00  0.00    -0.019 A 
HETATM    6  C   UNL     1      42.583 -11.923  -1.185  1.00  0.00     0.010 A 
HETATM    7  C   UNL     1      43.101 -10.708  -1.639  1.00  0.00     0.001 A 
HETATM    8  C   UNL     1      42.832 -10.270  -2.933  1.00  0.00     0.000 A 
HETATM    9  C   UNL     1      42.049 -11.047  -3.780  1.00  0.00     0.001 A 
HETATM   10  C   UNL     1      41.541 -12.268  -3.337  1.00  0.00     0.010 A 
ENDBRANCH   4   5
BRANCH   4  11
HETATM   11  C   UNL     1      40.714 -14.995  -2.706  1.00  0.00     0.251 C 
HETATM   12  N   UNL     1      39.392 -15.326  -2.738  1.00  0.00    -0.368 N 
HETATM   13  H   UNL     1      38.673 -14.905  -2.159  1.00  0.00     0.159 HD
HETATM   14  H   UNL     1      39.075 -15.956  -3.469  1.00  0.00     0.159 HD
HETATM   15  O   UNL     1      41.511 -15.506  -3.490  1.00  0.00    -0.271 OA
ENDBRANCH   4  11
ENDBRANCH   1   4
BRANCH   1  16
HETATM   16  C   UNL     1      41.580 -14.966   0.785  1.00  0.00     0.272 C 
BRANCH  16  17
HETATM   17  C   UNL     1      42.246 -16.171   1.394  1.00  0.00    -0.033 A 
HETATM   18  C   UNL     1      42.962 -17.065   0.589  1.00  0.00     0.010 A 
HETATM   19  C   UNL     1      43.484 -18.245   1.129  1.00  0.00     0.013 A 
HETATM   20  C   UNL     1      43.314 -18.567   2.486  1.00  0.00    -0.025 A 
HETATM   21  C   UNL     1      42.612 -17.651   3.286  1.00  0.00     0.013 A 
HETATM   22  C   UNL     1      42.078 -16.472   2.752  1.00  0.00     0.010 A 
BRANCH  20  23
HETATM   23  C   UNL     1      43.845 -19.823   3.048  1.00  0.00    -0.008 A 
HETATM   24  C   UNL     1      44.268 -19.920   4.375  1.00  0.00     0.128 A 
HETATM   25  N   UNL     1      44.783 -21.035   4.948  1.00  0.00    -0.272 NA
HETATM   26  C   UNL     1      44.880 -22.129   4.166  1.00  0.00     0.116 A 
HETATM   27  C   UNL     1      44.489 -22.154   2.840  1.00  0.00     0.020 A 
HETATM   28  C   UNL     1      43.969 -20.987   2.279  1.00  0.00     0.015 A 
ENDBRANCH  20  23
ENDBRANCH  16  17
ENDBRANCH   1  16
TORSDOF 6
ENDMDL
MODEL 8
REMARK VINA RESULT:      -7.0      2.212      3.944
REMARK  6 active torsions:
REMARK  status: ('A' for Active; 'I' for Inactive)
REMARK    1  A    between atoms: C_4  and  C_5 
REMARK    2  A    between atoms: C_5  and  N_6 
REMARK    3  A    between atoms: C_5  and  C_22 
REMARK    4  A    between atoms: N_6  and  C_9 
REMARK    5  A    between atoms: C_9  and  C_10 
REMARK    6  A    between atoms: C_13  and  C_14 
REMARK       I    between atoms: C_22  and  N_23 
ROOT
HETATM    1  N   UNL     1      43.337 -15.401   7.591  1.00  0.00    -0.054 N 
HETATM    2  H   UNL     1      43.197 -14.717   8.339  1.00  0.00     0.278 HD
HETATM    3  H   UNL     1      42.432 -15.519   7.118  1.00  0.00     0.278 HD
ENDROOT
BRANCH   1   4
HETATM    4  C   UNL     1      44.294 -14.858   6.553  1.00  0.00     0.310 C 
BRANCH   4   5
HETATM    5  C   UNL     1      43.623 -14.582   5.225  1.00  0.00    -0.019 A 
HETATM    6  C   UNL     1      42.975 -13.370   4.935  1.00  0.00     0.010 A 
HETATM    7  C   UNL     1      42.351 -13.174   3.701  1.00  0.00     0.001 A 
HETATM    8  C   UNL     1      42.344 -14.190   2.748  1.00  0.00     0.000 A 
HETATM    9  C   UNL     1      42.966 -15.403   3.023  1.00  0.00     0.001 A 
HETATM   10  C   UNL     1      43.604 -15.599   4.248  1.00  0.00     0.010 A 
ENDBRANCH   4   5
BRANCH   4  11
HETATM   11  C   UNL     1      45.131 -13.702   7.154  1.00  0.00     0.251 C 
HETATM   12  N   UNL     1      44.672 -13.101   8.289  1.00  0.00    -0.368 N 
HETATM   13  H   UNL     1      43.888 -13.428   8.842  1.00  0.00     0.159 HD
HETATM   14  H   UNL     1      45.217 -12.338   8.679  1.00  0.00     0.159 HD
HETATM   15  O   UNL     1      46.132 -13.279   6.578  1.00  0.00    -0.271 OA
ENDBRANCH   4  11
ENDBRANCH   1   4
BRANCH   1  16
HETATM   16  C   UNL     1      43.658 -16.722   8.206  1.00  0.00     0.272 C 
BRANCH  16  17
HETATM   17  C   UNL     1      43.776 -17.752   7.113  1.00  0.00    -0.033 A 
HETATM   18  C   UNL     1      45.035 -18.208   6.705  1.00  0.00     0.010 A 
HETATM   19  C   UNL     1      45.157 -19.077   5.615  1.00  0.00     0.013 A 
HETATM   20  C   UNL     1      44.029 -19.520   4.904  1.00  0.00    -0.025 A 
HETATM   21  C   UNL     1      42.771 -19.071   5.338  1.00  0.00     0.013 A 
HETATM   22  C   UNL     1      42.641 -18.195   6.422  1.00  0.00     0.010 A 
BRANCH  20  23
HETATM   23  C   UNL     1      44.162 -20.417   3.741  1.00  0.00    -0.008 A 
HETATM   24  C   UNL     1      44.529 -21.758   3.877  1.00  0.00     0.128 A 
HETATM   25  N   UNL     1      44.687 -22.629   2.852  1.00  0.00    -0.272 NA
HETATM   26  C   UNL     1      44.461 -22.153   1.611  1.00  0.00     0.116 A 
HETATM   27  C   UNL     1      44.088 -20.847   1.352  1.00  0.00     0.020 A 
HETATM   28  C   UNL     1      43.940 -19.973   2.431  1.00  0.00     0.015 A 
ENDBRANCH  20  23
ENDBRANCH  16  17
ENDBRANCH   1  16
TORSDOF 6
ENDMDL
MODEL 9
REMARK VINA RESULT:      -7.0      2.667      3.501
REMARK  6 active torsions:
REMARK  status: ('A' for Active; 'I' for Inactive)
REMARK    1  A    between atoms: C_4  and  C_5 
REMARK    2  A    between atoms: C_5  and  N_6 
REMARK    3  A    between atoms: C_5  and  C_22 
REMARK    4  A    between atoms: N_6  and  C_9 
REMARK    5  A    between atoms: C_9  and  C_10 
REMARK    6  A    between atoms: C_13  and  C_14 
REMARK       I    between atoms: C_22  and  N_23 
ROOT
HETATM    1  N   UNL     1      41.124 -13.654   0.229  1.00  0.00    -0.054 N 
HETATM    2  H   UNL     1      40.895 -13.283  -0.697  1.00  0.00     0.278 HD
HETATM    3  H   UNL     1      42.053 -14.087   0.157  1.00  0.00     0.278 HD
ENDROOT
BRANCH   1   4
HETATM    4  C   UNL     1      41.254 -12.527   1.230  1.00  0.00     0.310 C 
BRANCH   4   5
HETATM    5  C   UNL     1      41.681 -13.008   2.601  1.00  0.00    -0.019 A 
HETATM    6  C   UNL     1      40.854 -12.915   3.733  1.00  0.00     0.010 A 
HETATM    7  C   UNL     1      41.304 -13.353   4.980  1.00  0.00     0.001 A 
HETATM    8  C   UNL     1      42.590 -13.869   5.122  1.00  0.00     0.000 A 
HETATM    9  C   UNL     1      43.429 -13.954   4.015  1.00  0.00     0.001 A 
HETATM   10  C   UNL     1      42.980 -13.532   2.764  1.00  0.00     0.010 A 
ENDBRANCH   4   5
BRANCH   4  11
HETATM   11  C   UNL     1      42.076 -11.365   0.621  1.00  0.00     0.251 C 
HETATM   12  N   UNL     1      41.815 -10.100   1.056  1.00  0.00    -0.368 N 
HETATM   13  H   UNL     1      41.210  -9.867   1.836  1.00  0.00     0.159 HD
HETATM   14  H   UNL     1      42.349  -9.336   0.652  1.00  0.00     0.159 HD
HETATM   15  O   UNL     1      42.877 -11.566  -0.290  1.00  0.00    -0.271 OA
ENDBRANCH   4  11
ENDBRANCH   1   4
BRANCH   1  16
HETATM   16  C   UNL     1      40.176 -14.760   0.549  1.00  0.00     0.272 C 
BRANCH  16  17
HETATM   17  C   UNL     1      40.952 -15.916   1.123  1.00  0.00    -0.033 A 
HETATM   18  C   UNL     1      40.629 -16.425   2.387  1.00  0.00     0.010 A 
HETATM   19  C   UNL     1      41.418 -17.420   2.974  1.00  0.00     0.013 A 
HETATM   20  C   UNL     1      42.546 -17.941   2.318  1.00  0.00    -0.025 A 
HETATM   21  C   UNL     1      42.845 -17.436   1.042  1.00  0.00     0.013 A 
HETATM   22  C   UNL     1      42.066 -16.434   0.452  1.00  0.00     0.010 A 
BRANCH  20  23
HETATM   23  C   UNL     1      43.389 -18.973   2.949  1.00  0.00    -0.008 A 
HETATM   24  C   UNL     1      43.846 -18.856   4.264  1.00  0.00     0.128 A 
HETATM   25  N   UNL     1      44.637 -19.756   4.896  1.00  0.00    -0.272 NA
HETATM   26  C   UNL     1      44.995 -20.849   4.192  1.00  0.00     0.116 A 
HETATM   27  C   UNL     1      44.601 -21.077   2.886  1.00  0.00     0.020 A 
HETATM   28  C   UNL     1      43.791 -20.126   2.262  1.00  0.00     0.015 A 
ENDBRANCH  20  23
ENDBRANCH  16  17
ENDBRANCH   1  16
TORSDOF 6
ENDMDL
MODEL 10
REMARK VINA RESULT:      -7.0      3.006      6.172
REMARK  6 active torsions:
REMARK  status: ('A' for Active; 'I' for Inactive)
REMARK    1  A    between atoms: C_4  and  C_5 
REMARK    2  A    between atoms: C_5  and  N_6 
REMARK    3  A    between atoms: C_5  and  C_22 
REMARK    4  A    between atoms: N_6  and  C_9 
REMARK    5  A    between atoms: C_9  and  C_10 
REMARK    6  A    between atoms: C_13  and  C_14 
REMARK       I    between atoms: C_22  and  N_23 
ROOT
HETATM    1  N   UNL     1      44.357 -17.050   6.496  1.00  0.00    -0.054 N 
HETATM    2  H   UNL     1      45.092 -17.205   7.193  1.00  0.00     0.278 HD
HETATM    3  H   UNL     1      44.828 -16.872   5.600  1.00  0.00     0.278 HD
ENDROOT
BRANCH   1   4
HETATM    4  C   UNL     1      43.537 -18.307   6.308  1.00  0.00     0.310 C 
BRANCH   4   5
HETATM    5  C   UNL     1      43.698 -18.909   4.928  1.00  0.00    -0.019 A 
HETATM    6  C   UNL     1      44.722 -19.816   4.608  1.00  0.00     0.010 A 
HETATM    7  C   UNL     1      44.840 -20.326   3.313  1.00  0.00     0.001 A 
HETATM    8  C   UNL     1      43.955 -19.924   2.316  1.00  0.00     0.000 A 
HETATM    9  C   UNL     1      42.945 -19.014   2.610  1.00  0.00     0.001 A 
HETATM   10  C   UNL     1      42.812 -18.513   3.905  1.00  0.00     0.010 A 
ENDBRANCH   4   5
BRANCH   4  11
HETATM   11  C   UNL     1      43.746 -19.265   7.506  1.00  0.00     0.251 C 
HETATM   12  N   UNL     1      44.228 -18.740   8.669  1.00  0.00    -0.368 N 
HETATM   13  H   UNL     1      44.348 -17.751   8.853  1.00  0.00     0.159 HD
HETATM   14  H   UNL     1      44.373 -19.370   9.453  1.00  0.00     0.159 HD
HETATM   15  O   UNL     1      43.568 -20.476   7.387  1.00  0.00    -0.271 OA
ENDBRANCH   4  11
ENDBRANCH   1   4
BRANCH   1  16
HETATM   16  C   UNL     1      43.632 -15.793   6.839  1.00  0.00     0.272 C 
BRANCH  16  17
HETATM   17  C   UNL     1      42.804 -15.369   5.655  1.00  0.00    -0.033 A 
HETATM   18  C   UNL     1      41.410 -15.500   5.684  1.00  0.00     0.010 A 
HETATM   19  C   UNL     1      40.647 -15.217   4.546  1.00  0.00     0.013 A 
HETATM   20  C   UNL     1      41.248 -14.792   3.349  1.00  0.00    -0.025 A 
HETATM   21  C   UNL     1      42.645 -14.645   3.341  1.00  0.00     0.013 A 
HETATM   22  C   UNL     1      43.417 -14.935   4.472  1.00  0.00     0.010 A 
BRANCH  20  23
HETATM   23  C   UNL     1      40.443 -14.517   2.144  1.00  0.00    -0.008 A 
HETATM   24  C   UNL     1      41.031 -14.209   0.915  1.00  0.00     0.128 A 
HETATM   25  N   UNL     1      40.352 -13.928  -0.223  1.00  0.00    -0.272 NA
HETATM   26  C   UNL     1      39.006 -13.960  -0.150  1.00  0.00     0.116 A 
HETATM   27  C   UNL     1      38.313 -14.257   1.009  1.00  0.00     0.020 A 
HETATM   28  C   UNL     1      39.043 -14.536   2.166  1.00  0.00     0.015 A 
ENDBRANCH  20  23
ENDBRANCH  16  17
ENDBRANCH   1  16
TORSDOF 6
ENDMDL
