MODEL 1
REMARK VINA RESULT:      -7.5      0.000      0.000
REMARK  7 active torsions:
REMARK  status: ('A' for Active; 'I' for Inactive)
REMARK    1  A    between atoms: C_3  and  N_4 
REMARK       I    between atoms: N_4  and  C_5 
REMARK       I    between atoms: C_5  and  N_6 
REMARK    2  A    between atoms: N_6  and  C_7 
REMARK    3  A    between atoms: C_7  and  C_8 
REMARK    4  A    between atoms: C_8  and  N_9 
REMARK    5  A    between atoms: C_23  and  N_24 
REMARK       I    between atoms: N_24  and  C_25 
REMARK    6  A    between atoms: C_25  and  C_26 
REMARK    7  A    between atoms: C_26  and  O_27 
ROOT
HETATM    1  N   UNL     1      41.106 -16.998   4.053  1.00  0.00    -0.308 N 
HETATM    2  C   UNL     1      40.928 -16.793   2.722  1.00  0.00     0.320 C 
HETATM    3  N   UNL     1      41.929 -16.200   2.028  1.00  0.00    -0.340 N 
HETATM    4  O   UNL     1      39.838 -17.056   2.212  1.00  0.00    -0.247 OA
HETATM    5  H   UNL     1      40.236 -17.235   4.515  1.00  0.00     0.170 HD
HETATM    6  H   UNL     1      42.630 -15.766   2.616  1.00  0.00     0.164 HD
ENDROOT
BRANCH   1   7
HETATM    7  C   UNL     1      42.251 -16.955   4.881  1.00  0.00     0.044 A 
HETATM    8  C   UNL     1      42.495 -15.798   5.668  1.00  0.00    -0.008 A 
HETATM    9  C   UNL     1      41.592 -14.588   5.561  1.00  0.00     0.053 C 
HETATM   10  C   UNL     1      43.613 -15.776   6.545  1.00  0.00     0.043 A 
HETATM   11  C   UNL     1      44.471 -16.878   6.588  1.00  0.00     0.030 A 
HETATM   12  C   UNL     1      44.218 -18.012   5.820  1.00  0.00     0.005 A 
HETATM   13  C   UNL     1      43.106 -18.057   4.986  1.00  0.00     0.030 A 
BRANCH  10  14
HETATM   14  N   UNL     1      43.819 -14.653   7.379  1.00  0.00    -0.325 N 
HETATM   15  C   UNL     1      44.817 -13.692   7.304  1.00  0.00     0.245 C 
HETATM   16  O   UNL     1      45.685 -13.595   6.444  1.00  0.00    -0.271 OA
HETATM   17  H   UNL     1      43.186 -14.510   8.160  1.00  0.00     0.169 HD
BRANCH  15  18
HETATM   18  C   UNL     1      44.679 -12.653   8.423  1.00  0.00     0.270 C 
BRANCH  18  19
HETATM   19  O   UNL     1      44.594 -13.251   9.718  1.00  0.00    -0.387 OA
HETATM   20  C   UNL     1      44.527 -12.267  10.747  1.00  0.00     0.202 C 
ENDBRANCH  18  19
ENDBRANCH  15  18
ENDBRANCH  10  14
ENDBRANCH   1   7
BRANCH   3  21
HETATM   21  C   UNL     1      41.957 -15.764   0.629  1.00  0.00     0.163 C 
BRANCH  21  22
HETATM   22  C   UNL     1      41.491 -14.323   0.214  1.00  0.00     0.143 C 
HETATM   23  C   UNL     1      39.943 -14.232   0.290  1.00  0.00     0.041 C 
HETATM   24  C   UNL     1      39.630 -13.082   1.244  1.00  0.00     0.003 C 
HETATM   25  C   UNL     1      40.836 -13.023   2.162  1.00  0.00     0.003 C 
HETATM   26  C   UNL     1      42.007 -13.266   1.219  1.00  0.00     0.041 C 
BRANCH  22  27
HETATM   27  N   UNL     1      41.965 -13.988  -1.200  1.00  0.00    -0.061 N 
HETATM   28  H   UNL     1      42.825 -14.574  -1.294  1.00  0.00     0.281 HD
HETATM   29  C   UNL     1      42.441 -12.583  -1.510  1.00  0.00     0.236 C 
HETATM   30  C   UNL     1      41.780 -12.226  -2.831  1.00  0.00     0.029 C 
HETATM   31  C   UNL     1      41.549 -13.564  -3.500  1.00  0.00     0.029 C 
HETATM   32  C   UNL     1      41.088 -14.432  -2.349  1.00  0.00     0.236 C 
ENDBRANCH  22  27
ENDBRANCH  21  22
ENDBRANCH   3  21
TORSDOF 7
ENDMDL
MODEL 2
REMARK VINA RESULT:      -7.5      3.200      8.192
REMARK  7 active torsions:
REMARK  status: ('A' for Active; 'I' for Inactive)
REMARK    1  A    between atoms: C_3  and  N_4 
REMARK       I    between atoms: N_4  and  C_5 
REMARK       I    between atoms: C_5  and  N_6 
REMARK    2  A    between atoms: N_6  and  C_7 
REMARK    3  A    between atoms: C_7  and  C_8 
REMARK    4  A    between atoms: C_8  and  N_9 
REMARK    5  A    between atoms: C_23  and  N_24 
REMARK       I    between atoms: N_24  and  C_25 
REMARK    6  A    between atoms: C_25  and  C_26 
REMARK    7  A    between atoms: C_26  and  O_27 
ROOT
HETATM    1  N   UNL     1      40.424 -15.186   4.606  1.00  0.00    -0.308 N 
HETATM    2  C   UNL     1      40.795 -16.355   5.191  1.00  0.00     0.320 C 
HETATM    3  N   UNL     1      41.622 -17.178   4.504  1.00  0.00    -0.340 N 
HETATM    4  O   UNL     1      40.296 -16.674   6.271  1.00  0.00    -0.247 OA
HETATM    5  H   UNL     1      39.646 -14.756   5.091  1.00  0.00     0.170 HD
HETATM    6  H   UNL     1      41.710 -16.941   3.523  1.00  0.00     0.164 HD
ENDROOT
BRANCH   1   7
HETATM    7  C   UNL     1      40.921 -14.479   3.489  1.00  0.00     0.044 A 
HETATM    8  C   UNL     1      40.248 -14.591   2.242  1.00  0.00    -0.008 A 
HETATM    9  C   UNL     1      39.067 -15.523   2.085  1.00  0.00     0.053 C 
HETATM   10  C   UNL     1      40.710 -13.835   1.131  1.00  0.00     0.043 A 
HETATM   11  C   UNL     1      41.840 -13.025   1.277  1.00  0.00     0.030 A 
HETATM   12  C   UNL     1      42.486 -12.913   2.505  1.00  0.00     0.005 A 
HETATM   13  C   UNL     1      42.019 -13.621   3.607  1.00  0.00     0.030 A 
BRANCH  10  14
HETATM   14  N   UNL     1      40.002 -13.894  -0.091  1.00  0.00    -0.325 N 
HETATM   15  C   UNL     1      40.312 -14.613  -1.236  1.00  0.00     0.245 C 
HETATM   16  O   UNL     1      41.238 -15.402  -1.384  1.00  0.00    -0.271 OA
HETATM   17  H   UNL     1      39.163 -13.331  -0.189  1.00  0.00     0.169 HD
BRANCH  15  18
HETATM   18  C   UNL     1      39.280 -14.374  -2.344  1.00  0.00     0.270 C 
BRANCH  18  19
HETATM   19  O   UNL     1      39.720 -14.855  -3.616  1.00  0.00    -0.387 OA
HETATM   20  C   UNL     1      38.868 -15.886  -4.111  1.00  0.00     0.202 C 
ENDBRANCH  18  19
ENDBRANCH  15  18
ENDBRANCH  10  14
ENDBRANCH   1   7
BRANCH   3  21
HETATM   21  C   UNL     1      42.082 -18.528   4.844  1.00  0.00     0.163 C 
BRANCH  21  22
HETATM   22  C   UNL     1      43.609 -18.848   5.026  1.00  0.00     0.143 C 
HETATM   23  C   UNL     1      44.382 -17.541   5.347  1.00  0.00     0.041 C 
HETATM   24  C   UNL     1      45.095 -17.782   6.676  1.00  0.00     0.003 C 
HETATM   25  C   UNL     1      44.232 -18.814   7.377  1.00  0.00     0.003 C 
HETATM   26  C   UNL     1      43.837 -19.763   6.253  1.00  0.00     0.041 C 
BRANCH  22  27
HETATM   27  N   UNL     1      44.179 -19.497   3.766  1.00  0.00    -0.061 N 
HETATM   28  H   UNL     1      45.046 -18.941   3.599  1.00  0.00     0.281 HD
HETATM   29  C   UNL     1      43.413 -19.386   2.462  1.00  0.00     0.236 C 
HETATM   30  C   UNL     1      43.442 -20.784   1.868  1.00  0.00     0.029 C 
HETATM   31  C   UNL     1      44.696 -21.403   2.446  1.00  0.00     0.029 C 
HETATM   32  C   UNL     1      44.670 -20.923   3.881  1.00  0.00     0.236 C 
ENDBRANCH  22  27
ENDBRANCH  21  22
ENDBRANCH   3  21
TORSDOF 7
ENDMDL
MODEL 3
REMARK VINA RESULT:      -7.4      3.474      5.331
REMARK  7 active torsions:
REMARK  status: ('A' for Active; 'I' for Inactive)
REMARK    1  A    between atoms: C_3  and  N_4 
REMARK       I    between atoms: N_4  and  C_5 
REMARK       I    between atoms: C_5  and  N_6 
REMARK    2  A    between atoms: N_6  and  C_7 
REMARK    3  A    between atoms: C_7  and  C_8 
REMARK    4  A    between atoms: C_8  and  N_9 
REMARK    5  A    between atoms: C_23  and  N_24 
REMARK       I    between atoms: N_24  and  C_25 
REMARK    6  A    between atoms: C_25  and  C_26 
REMARK    7  A    between atoms: C_26  and  O_27 
ROOT
HETATM    1  N   UNL     1      42.657 -14.134   2.431  1.00  0.00    -0.308 N 
HETATM    2  C   UNL     1      42.028 -13.375   1.496  1.00  0.00     0.320 C 
HETATM    3  N   UNL     1      40.897 -13.863   0.934  1.00  0.00    -0.340 N 
HETATM    4  O   UNL     1      42.552 -12.327   1.119  1.00  0.00    -0.247 OA
HETATM    5  H   UNL     1      43.591 -13.793   2.623  1.00  0.00     0.170 HD
HETATM    6  H   UNL     1      40.748 -14.850   1.108  1.00  0.00     0.164 HD
ENDROOT
BRANCH   1   7
HETATM    7  C   UNL     1      42.251 -15.268   3.170  1.00  0.00     0.044 A 
HETATM    8  C   UNL     1      42.897 -16.513   2.942  1.00  0.00    -0.008 A 
HETATM    9  C   UNL     1      43.947 -16.649   1.861  1.00  0.00     0.053 C 
HETATM   10  C   UNL     1      42.532 -17.640   3.726  1.00  0.00     0.043 A 
HETATM   11  C   UNL     1      41.518 -17.512   4.679  1.00  0.00     0.030 A 
HETATM   12  C   UNL     1      40.898 -16.286   4.903  1.00  0.00     0.005 A 
HETATM   13  C   UNL     1      41.274 -15.168   4.166  1.00  0.00     0.030 A 
BRANCH  10  14
HETATM   14  N   UNL     1      43.221 -18.862   3.546  1.00  0.00    -0.325 N 
HETATM   15  C   UNL     1      44.257 -19.390   4.303  1.00  0.00     0.245 C 
HETATM   16  O   UNL     1      44.734 -18.921   5.329  1.00  0.00    -0.271 OA
HETATM   17  H   UNL     1      42.966 -19.447   2.755  1.00  0.00     0.169 HD
BRANCH  15  18
HETATM   18  C   UNL     1      44.728 -20.738   3.744  1.00  0.00     0.270 C 
BRANCH  18  19
HETATM   19  O   UNL     1      44.771 -20.753   2.315  1.00  0.00    -0.387 OA
HETATM   20  C   UNL     1      44.115 -21.902   1.783  1.00  0.00     0.202 C 
ENDBRANCH  18  19
ENDBRANCH  15  18
ENDBRANCH  10  14
ENDBRANCH   1   7
BRANCH   3  21
HETATM   21  C   UNL     1      40.093 -13.315  -0.163  1.00  0.00     0.163 C 
BRANCH  21  22
HETATM   22  C   UNL     1      40.411 -13.662  -1.661  1.00  0.00     0.143 C 
HETATM   23  C   UNL     1      40.294 -12.382  -2.531  1.00  0.00     0.041 C 
HETATM   24  C   UNL     1      41.643 -12.212  -3.223  1.00  0.00     0.003 C 
HETATM   25  C   UNL     1      42.628 -12.883  -2.286  1.00  0.00     0.003 C 
HETATM   26  C   UNL     1      41.879 -14.125  -1.820  1.00  0.00     0.041 C 
BRANCH  22  27
HETATM   27  N   UNL     1      39.456 -14.736  -2.180  1.00  0.00    -0.061 N 
HETATM   28  H   UNL     1      39.239 -15.282  -1.317  1.00  0.00     0.281 HD
HETATM   29  C   UNL     1      39.969 -15.778  -3.154  1.00  0.00     0.236 C 
HETATM   30  C   UNL     1      38.903 -15.866  -4.234  1.00  0.00     0.029 C 
HETATM   31  C   UNL     1      37.633 -15.437  -3.532  1.00  0.00     0.029 C 
HETATM   32  C   UNL     1      38.102 -14.280  -2.678  1.00  0.00     0.236 C 
ENDBRANCH  22  27
ENDBRANCH  21  22
ENDBRANCH   3  21
TORSDOF 7
ENDMDL
MODEL 4
REMARK VINA RESULT:      -7.4      2.901      8.804
REMARK  7 active torsions:
REMARK  status: ('A' for Active; 'I' for Inactive)
REMARK    1  A    between atoms: C_3  and  N_4 
REMARK       I    between atoms: N_4  and  C_5 
REMARK       I    between atoms: C_5  and  N_6 
REMARK    2  A    between atoms: N_6  and  C_7 
REMARK    3  A    between atoms: C_7  and  C_8 
REMARK    4  A    between atoms: C_8  and  N_9 
REMARK    5  A    between atoms: C_23  and  N_24 
REMARK       I    between atoms: N_24  and  C_25 
REMARK    6  A    between atoms: C_25  and  C_26 
REMARK    7  A    between atoms: C_26  and  O_27 
ROOT
HETATM    1  N   UNL     1      44.781 -13.766   7.154  1.00  0.00    -0.308 N 
HETATM    2  C   UNL     1      45.094 -13.028   8.251  1.00  0.00     0.320 C 
HETATM    3  N   UNL     1      44.230 -13.035   9.293  1.00  0.00    -0.340 N 
HETATM    4  O   UNL     1      46.090 -12.305   8.226  1.00  0.00    -0.247 OA
HETATM    5  H   UNL     1      45.362 -13.524   6.361  1.00  0.00     0.170 HD
HETATM    6  H   UNL     1      43.321 -13.420   9.066  1.00  0.00     0.164 HD
ENDROOT
BRANCH   1   7
HETATM    7  C   UNL     1      43.831 -14.788   6.931  1.00  0.00     0.044 A 
HETATM    8  C   UNL     1      42.931 -14.672   5.837  1.00  0.00    -0.008 A 
HETATM    9  C   UNL     1      42.928 -13.432   4.970  1.00  0.00     0.053 C 
HETATM   10  C   UNL     1      42.014 -15.726   5.575  1.00  0.00     0.043 A 
HETATM   11  C   UNL     1      41.989 -16.837   6.422  1.00  0.00     0.030 A 
HETATM   12  C   UNL     1      42.881 -16.947   7.485  1.00  0.00     0.005 A 
HETATM   13  C   UNL     1      43.807 -15.938   7.727  1.00  0.00     0.030 A 
BRANCH  10  14
HETATM   14  N   UNL     1      41.165 -15.642   4.448  1.00  0.00    -0.325 N 
HETATM   15  C   UNL     1      41.260 -16.321   3.242  1.00  0.00     0.245 C 
HETATM   16  O   UNL     1      42.074 -17.188   2.945  1.00  0.00    -0.271 OA
HETATM   17  H   UNL     1      40.384 -14.993   4.480  1.00  0.00     0.169 HD
BRANCH  15  18
HETATM   18  C   UNL     1      40.136 -15.915   2.281  1.00  0.00     0.270 C 
BRANCH  18  19
HETATM   19  O   UNL     1      39.684 -14.577   2.501  1.00  0.00    -0.387 OA
HETATM   20  C   UNL     1      38.669 -14.207   1.570  1.00  0.00     0.202 C 
ENDBRANCH  18  19
ENDBRANCH  15  18
ENDBRANCH  10  14
ENDBRANCH   1   7
BRANCH   3  21
HETATM   21  C   UNL     1      44.264 -12.254  10.533  1.00  0.00     0.163 C 
BRANCH  21  22
HETATM   22  C   UNL     1      43.092 -11.280  10.916  1.00  0.00     0.143 C 
HETATM   23  C   UNL     1      42.437 -11.747  12.244  1.00  0.00     0.041 C 
HETATM   24  C   UNL     1      42.533 -10.565  13.205  1.00  0.00     0.003 C 
HETATM   25  C   UNL     1      43.749  -9.796  12.727  1.00  0.00     0.003 C 
HETATM   26  C   UNL     1      43.631  -9.860  11.210  1.00  0.00     0.041 C 
BRANCH  22  27
HETATM   27  N   UNL     1      42.045 -11.233   9.805  1.00  0.00    -0.061 N 
HETATM   28  H   UNL     1      42.075 -12.205   9.425  1.00  0.00     0.281 HD
HETATM   29  C   UNL     1      42.288 -10.356   8.593  1.00  0.00     0.236 C 
HETATM   30  C   UNL     1      40.971  -9.634   8.359  1.00  0.00     0.029 C 
HETATM   31  C   UNL     1      39.933 -10.563   8.949  1.00  0.00     0.029 C 
HETATM   32  C   UNL     1      40.602 -11.042  10.218  1.00  0.00     0.236 C 
ENDBRANCH  22  27
ENDBRANCH  21  22
ENDBRANCH   3  21
TORSDOF 7
ENDMDL
MODEL 5
REMARK VINA RESULT:      -7.4      1.977      3.233
REMARK  7 active torsions:
REMARK  status: ('A' for Active; 'I' for Inactive)
REMARK    1  A    between atoms: C_3  and  N_4 
REMARK       I    between atoms: N_4  and  C_5 
REMARK       I    between atoms: C_5  and  N_6 
REMARK    2  A    between atoms: N_6  and  C_7 
REMARK    3  A    between atoms: C_7  and  C_8 
REMARK    4  A    between atoms: C_8  and  N_9 
REMARK    5  A    between atoms: C_23  and  N_24 
REMARK       I    between atoms: N_24  and  C_25 
REMARK    6  A    between atoms: C_25  and  C_26 
REMARK    7  A    between atoms: C_26  and  O_27 
ROOT
HETATM    1  N   UNL     1      39.410 -15.552   2.481  1.00  0.00    -0.308 N 
HETATM    2  C   UNL     1      39.064 -14.770   1.425  1.00  0.00     0.320 C 
HETATM    3  N   UNL     1      40.051 -14.138   0.747  1.00  0.00    -0.340 N 
HETATM    4  O   UNL     1      37.872 -14.582   1.180  1.00  0.00    -0.247 OA
HETATM    5  H   UNL     1      38.606 -15.795   3.046  1.00  0.00     0.170 HD
HETATM    6  H   UNL     1      40.940 -14.135   1.233  1.00  0.00     0.164 HD
ENDROOT
BRANCH   1   7
HETATM    7  C   UNL     1      40.647 -16.081   2.911  1.00  0.00     0.044 A 
HETATM    8  C   UNL     1      41.291 -15.510   4.042  1.00  0.00    -0.008 A 
HETATM    9  C   UNL     1      40.706 -14.295   4.729  1.00  0.00     0.053 C 
HETATM   10  C   UNL     1      42.505 -16.078   4.513  1.00  0.00     0.043 A 
HETATM   11  C   UNL     1      43.063 -17.162   3.830  1.00  0.00     0.030 A 
HETATM   12  C   UNL     1      42.421 -17.722   2.729  1.00  0.00     0.005 A 
HETATM   13  C   UNL     1      41.212 -17.196   2.284  1.00  0.00     0.030 A 
BRANCH  10  14
HETATM   14  N   UNL     1      43.110 -15.553   5.677  1.00  0.00    -0.325 N 
HETATM   15  C   UNL     1      43.959 -14.461   5.794  1.00  0.00     0.245 C 
HETATM   16  O   UNL     1      44.295 -13.690   4.904  1.00  0.00    -0.271 OA
HETATM   17  H   UNL     1      42.944 -16.025   6.561  1.00  0.00     0.169 HD
BRANCH  15  18
HETATM   18  C   UNL     1      44.403 -14.251   7.247  1.00  0.00     0.270 C 
BRANCH  18  19
HETATM   19  O   UNL     1      45.572 -13.434   7.349  1.00  0.00    -0.387 OA
HETATM   20  C   UNL     1      45.516 -12.578   8.488  1.00  0.00     0.202 C 
ENDBRANCH  18  19
ENDBRANCH  15  18
ENDBRANCH  10  14
ENDBRANCH   1   7
BRANCH   3  21
HETATM   21  C   UNL     1      39.953 -13.162  -0.342  1.00  0.00     0.163 C 
BRANCH  21  22
HETATM   22  C   UNL     1      40.281 -13.559  -1.825  1.00  0.00     0.143 C 
HETATM   23  C   UNL     1      40.138 -12.315  -2.744  1.00  0.00     0.041 C 
HETATM   24  C   UNL     1      41.484 -12.143  -3.441  1.00  0.00     0.003 C 
HETATM   25  C   UNL     1      42.482 -12.756  -2.478  1.00  0.00     0.003 C 
HETATM   26  C   UNL     1      41.759 -13.995  -1.966  1.00  0.00     0.041 C 
BRANCH  22  27
HETATM   27  N   UNL     1      39.350 -14.672  -2.304  1.00  0.00    -0.061 N 
HETATM   28  H   UNL     1      39.150 -15.194  -1.422  1.00  0.00     0.281 HD
HETATM   29  C   UNL     1      39.884 -15.732  -3.246  1.00  0.00     0.236 C 
HETATM   30  C   UNL     1      38.816 -15.882  -4.317  1.00  0.00     0.029 C 
HETATM   31  C   UNL     1      37.539 -15.461  -3.623  1.00  0.00     0.029 C 
HETATM   32  C   UNL     1      37.984 -14.265  -2.810  1.00  0.00     0.236 C 
ENDBRANCH  22  27
ENDBRANCH  21  22
ENDBRANCH   3  21
TORSDOF 7
ENDMDL
MODEL 6
REMARK VINA RESULT:      -7.4      3.292      5.351
REMARK  7 active torsions:
REMARK  status: ('A' for Active; 'I' for Inactive)
REMARK    1  A    between atoms: C_3  and  N_4 
REMARK       I    between atoms: N_4  and  C_5 
REMARK       I    between atoms: C_5  and  N_6 
REMARK    2  A    between atoms: N_6  and  C_7 
REMARK    3  A    between atoms: C_7  and  C_8 
REMARK    4  A    between atoms: C_8  and  N_9 
REMARK    5  A    between atoms: C_23  and  N_24 
REMARK       I    between atoms: N_24  and  C_25 
REMARK    6  A    between atoms: C_25  and  C_26 
REMARK    7  A    between atoms: C_26  and  O_27 
ROOT
HETATM    1  N   UNL     1      39.193 -14.943   2.583  1.00  0.00    -0.308 N 
HETATM    2  C   UNL     1      38.897 -14.373   1.386  1.00  0.00     0.320 C 
HETATM    3  N   UNL     1      39.880 -13.707   0.736  1.00  0.00    -0.340 N 
HETATM    4  O   UNL     1      37.734 -14.392   0.981  1.00  0.00    -0.247 OA
HETATM    5  H   UNL     1      38.357 -15.217   3.084  1.00  0.00     0.170 HD
HETATM    6  H   UNL     1      40.689 -13.510   1.313  1.00  0.00     0.164 HD
ENDROOT
BRANCH   1   7
HETATM    7  C   UNL     1      40.418 -15.225   3.228  1.00  0.00     0.044 A 
HETATM    8  C   UNL     1      41.162 -16.370   2.835  1.00  0.00    -0.008 A 
HETATM    9  C   UNL     1      40.613 -17.328   1.799  1.00  0.00     0.053 C 
HETATM   10  C   UNL     1      42.422 -16.624   3.440  1.00  0.00     0.043 A 
HETATM   11  C   UNL     1      42.887 -15.763   4.438  1.00  0.00     0.030 A 
HETATM   12  C   UNL     1      42.156 -14.638   4.810  1.00  0.00     0.005 A 
HETATM   13  C   UNL     1      40.939 -14.361   4.197  1.00  0.00     0.030 A 
BRANCH  10  14
HETATM   14  N   UNL     1      43.193 -17.724   3.002  1.00  0.00    -0.325 N 
HETATM   15  C   UNL     1      43.559 -18.860   3.710  1.00  0.00     0.245 C 
HETATM   16  O   UNL     1      43.219 -19.162   4.847  1.00  0.00    -0.271 OA
HETATM   17  H   UNL     1      43.566 -17.706   2.057  1.00  0.00     0.169 HD
BRANCH  15  18
HETATM   18  C   UNL     1      44.420 -19.799   2.855  1.00  0.00     0.270 C 
BRANCH  18  19
HETATM   19  O   UNL     1      43.647 -20.536   1.906  1.00  0.00    -0.387 OA
HETATM   20  C   UNL     1      44.124 -21.873   1.767  1.00  0.00     0.202 C 
ENDBRANCH  18  19
ENDBRANCH  15  18
ENDBRANCH  10  14
ENDBRANCH   1   7
BRANCH   3  21
HETATM   21  C   UNL     1      39.808 -12.915  -0.496  1.00  0.00     0.163 C 
BRANCH  21  22
HETATM   22  C   UNL     1      40.278 -13.505  -1.874  1.00  0.00     0.143 C 
HETATM   23  C   UNL     1      40.287 -12.383  -2.947  1.00  0.00     0.041 C 
HETATM   24  C   UNL     1      41.707 -12.337  -3.504  1.00  0.00     0.003 C 
HETATM   25  C   UNL     1      42.568 -12.851  -2.367  1.00  0.00     0.003 C 
HETATM   26  C   UNL     1      41.743 -13.996  -1.792  1.00  0.00     0.041 C 
BRANCH  22  27
HETATM   27  N   UNL     1      39.360 -14.643  -2.315  1.00  0.00    -0.061 N 
HETATM   28  H   UNL     1      39.196 -15.160  -1.423  1.00  0.00     0.281 HD
HETATM   29  C   UNL     1      39.890 -15.701  -3.261  1.00  0.00     0.236 C 
HETATM   30  C   UNL     1      38.796 -15.886  -4.300  1.00  0.00     0.029 C 
HETATM   31  C   UNL     1      37.530 -15.486  -3.574  1.00  0.00     0.029 C 
HETATM   32  C   UNL     1      37.971 -14.272  -2.786  1.00  0.00     0.236 C 
ENDBRANCH  22  27
ENDBRANCH  21  22
ENDBRANCH   3  21
TORSDOF 7
ENDMDL
MODEL 7
REMARK VINA RESULT:      -7.3      3.222      9.312
REMARK  7 active torsions:
REMARK  status: ('A' for Active; 'I' for Inactive)
REMARK    1  A    between atoms: C_3  and  N_4 
REMARK       I    between atoms: N_4  and  C_5 
REMARK       I    between atoms: C_5  and  N_6 
REMARK    2  A    between atoms: N_6  and  C_7 
REMARK    3  A    between atoms: C_7  and  C_8 
REMARK    4  A    between atoms: C_8  and  N_9 
REMARK    5  A    between atoms: C_23  and  N_24 
REMARK       I    between atoms: N_24  and  C_25 
REMARK    6  A    between atoms: C_25  and  C_26 
REMARK    7  A    between atoms: C_26  and  O_27 
ROOT
HETATM    1  N   UNL     1      39.860 -14.026   2.218  1.00  0.00    -0.308 N 
HETATM    2  C   UNL     1      40.268 -14.912   3.164  1.00  0.00     0.320 C 
HETATM    3  N   UNL     1      40.839 -16.069   2.752  1.00  0.00    -0.340 N 
HETATM    4  O   UNL     1      40.018 -14.687   4.348  1.00  0.00    -0.247 OA
HETATM    5  H   UNL     1      39.256 -13.313   2.608  1.00  0.00     0.170 HD
HETATM    6  H   UNL     1      40.708 -16.259   1.765  1.00  0.00     0.164 HD
ENDROOT
BRANCH   1   7
HETATM    7  C   UNL     1      40.128 -13.917   0.835  1.00  0.00     0.044 A 
HETATM    8  C   UNL     1      39.043 -13.835  -0.078  1.00  0.00    -0.008 A 
HETATM    9  C   UNL     1      37.615 -13.950   0.410  1.00  0.00     0.053 C 
HETATM   10  C   UNL     1      39.309 -13.664  -1.463  1.00  0.00     0.043 A 
HETATM   11  C   UNL     1      40.635 -13.620  -1.904  1.00  0.00     0.030 A 
HETATM   12  C   UNL     1      41.692 -13.691  -1.002  1.00  0.00     0.005 A 
HETATM   13  C   UNL     1      41.440 -13.820   0.360  1.00  0.00     0.030 A 
BRANCH  10  14
HETATM   14  N   UNL     1      38.230 -13.515  -2.364  1.00  0.00    -0.325 N 
HETATM   15  C   UNL     1      37.772 -14.409  -3.320  1.00  0.00     0.245 C 
HETATM   16  O   UNL     1      38.179 -15.547  -3.522  1.00  0.00    -0.271 OA
HETATM   17  H   UNL     1      37.713 -12.641  -2.356  1.00  0.00     0.169 HD
BRANCH  15  18
HETATM   18  C   UNL     1      36.581 -13.836  -4.099  1.00  0.00     0.270 C 
BRANCH  18  19
HETATM   19  O   UNL     1      36.262 -14.608  -5.258  1.00  0.00    -0.387 OA
HETATM   20  C   UNL     1      35.385 -13.903  -6.133  1.00  0.00     0.202 C 
ENDBRANCH  18  19
ENDBRANCH  15  18
ENDBRANCH  10  14
ENDBRANCH   1   7
BRANCH   3  21
HETATM   21  C   UNL     1      41.260 -17.230   3.541  1.00  0.00     0.163 C 
BRANCH  21  22
HETATM   22  C   UNL     1      42.765 -17.674   3.600  1.00  0.00     0.143 C 
HETATM   23  C   UNL     1      42.942 -19.026   2.857  1.00  0.00     0.041 C 
HETATM   24  C   UNL     1      43.991 -18.785   1.775  1.00  0.00     0.003 C 
HETATM   25  C   UNL     1      43.869 -17.305   1.465  1.00  0.00     0.003 C 
HETATM   26  C   UNL     1      43.666 -16.674   2.836  1.00  0.00     0.041 C 
BRANCH  22  27
HETATM   27  N   UNL     1      43.232 -17.809   5.049  1.00  0.00    -0.061 N 
HETATM   28  H   UNL     1      42.535 -18.476   5.449  1.00  0.00     0.281 HD
HETATM   29  C   UNL     1      43.159 -16.606   5.968  1.00  0.00     0.236 C 
HETATM   30  C   UNL     1      44.493 -16.584   6.695  1.00  0.00     0.029 C 
HETATM   31  C   UNL     1      44.941 -18.030   6.684  1.00  0.00     0.029 C 
HETATM   32  C   UNL     1      44.566 -18.481   5.289  1.00  0.00     0.236 C 
ENDBRANCH  22  27
ENDBRANCH  21  22
ENDBRANCH   3  21
TORSDOF 7
ENDMDL
MODEL 8
REMARK VINA RESULT:      -7.2      3.532      5.475
REMARK  7 active torsions:
REMARK  status: ('A' for Active; 'I' for Inactive)
REMARK    1  A    between atoms: C_3  and  N_4 
REMARK       I    between atoms: N_4  and  C_5 
REMARK       I    between atoms: C_5  and  N_6 
REMARK    2  A    between atoms: N_6  and  C_7 
REMARK    3  A    between atoms: C_7  and  C_8 
REMARK    4  A    between atoms: C_8  and  N_9 
REMARK    5  A    between atoms: C_23  and  N_24 
REMARK       I    between atoms: N_24  and  C_25 
REMARK    6  A    between atoms: C_25  and  C_26 
REMARK    7  A    between atoms: C_26  and  O_27 
ROOT
HETATM    1  N   UNL     1      42.774 -14.618   2.544  1.00  0.00    -0.308 N 
HETATM    2  C   UNL     1      41.992 -13.907   1.690  1.00  0.00     0.320 C 
HETATM    3  N   UNL     1      40.896 -14.512   1.173  1.00  0.00    -0.340 N 
HETATM    4  O   UNL     1      42.351 -12.783   1.339  1.00  0.00    -0.247 OA
HETATM    5  H   UNL     1      43.668 -14.168   2.696  1.00  0.00     0.170 HD
HETATM    6  H   UNL     1      40.887 -15.516   1.303  1.00  0.00     0.164 HD
ENDROOT
BRANCH   1   7
HETATM    7  C   UNL     1      42.566 -15.828   3.244  1.00  0.00     0.044 A 
HETATM    8  C   UNL     1      43.308 -16.981   2.873  1.00  0.00    -0.008 A 
HETATM    9  C   UNL     1      44.247 -16.945   1.686  1.00  0.00     0.053 C 
HETATM   10  C   UNL     1      43.145 -18.183   3.614  1.00  0.00     0.043 A 
HETATM   11  C   UNL     1      42.230 -18.216   4.669  1.00  0.00     0.030 A 
HETATM   12  C   UNL     1      41.514 -17.079   5.033  1.00  0.00     0.005 A 
HETATM   13  C   UNL     1      41.695 -15.888   4.337  1.00  0.00     0.030 A 
BRANCH  10  14
HETATM   14  N   UNL     1      43.932 -19.311   3.288  1.00  0.00    -0.325 N 
HETATM   15  C   UNL     1      43.640 -20.344   2.409  1.00  0.00     0.245 C 
HETATM   16  O   UNL     1      42.657 -20.440   1.684  1.00  0.00    -0.271 OA
HETATM   17  H   UNL     1      44.826 -19.427   3.756  1.00  0.00     0.169 HD
BRANCH  15  18
HETATM   18  C   UNL     1      44.769 -21.381   2.369  1.00  0.00     0.270 C 
BRANCH  18  19
HETATM   19  O   UNL     1      44.384 -22.631   2.946  1.00  0.00    -0.387 OA
HETATM   20  C   UNL     1      44.743 -22.705   4.324  1.00  0.00     0.202 C 
ENDBRANCH  18  19
ENDBRANCH  15  18
ENDBRANCH  10  14
ENDBRANCH   1   7
BRANCH   3  21
HETATM   21  C   UNL     1      39.957 -14.024   0.158  1.00  0.00     0.163 C 
BRANCH  21  22
HETATM   22  C   UNL     1      40.420 -13.746  -1.316  1.00  0.00     0.143 C 
HETATM   23  C   UNL     1      41.219 -14.966  -1.852  1.00  0.00     0.041 C 
HETATM   24  C   UNL     1      40.500 -15.423  -3.118  1.00  0.00     0.003 C 
HETATM   25  C   UNL     1      39.062 -14.989  -2.906  1.00  0.00     0.003 C 
HETATM   26  C   UNL     1      39.202 -13.616  -2.261  1.00  0.00     0.041 C 
BRANCH  22  27
HETATM   27  N   UNL     1      41.282 -12.487  -1.383  1.00  0.00    -0.061 N 
HETATM   28  H   UNL     1      41.626 -12.396  -0.402  1.00  0.00     0.281 HD
HETATM   29  C   UNL     1      40.625 -11.151  -1.668  1.00  0.00     0.236 C 
HETATM   30  C   UNL     1      41.515 -10.487  -2.706  1.00  0.00     0.029 C 
HETATM   31  C   UNL     1      42.878 -11.099  -2.467  1.00  0.00     0.029 C 
HETATM   32  C   UNL     1      42.546 -12.554  -2.212  1.00  0.00     0.236 C 
ENDBRANCH  22  27
ENDBRANCH  21  22
ENDBRANCH   3  21
TORSDOF 7
ENDMDL
MODEL 9
REMARK VINA RESULT:      -7.2      2.777      4.257
REMARK  7 active torsions:
REMARK  status: ('A' for Active; 'I' for Inactive)
REMARK    1  A    between atoms: C_3  and  N_4 
REMARK       I    between atoms: N_4  and  C_5 
REMARK       I    between atoms: C_5  and  N_6 
REMARK    2  A    between atoms: N_6  and  C_7 
REMARK    3  A    between atoms: C_7  and  C_8 
REMARK    4  A    between atoms: C_8  and  N_9 
REMARK    5  A    between atoms: C_23  and  N_24 
REMARK       I    between atoms: N_24  and  C_25 
REMARK    6  A    between atoms: C_25  and  C_26 
REMARK    7  A    between atoms: C_26  and  O_27 
ROOT
HETATM    1  N   UNL     1      40.513 -15.885   1.729  1.00  0.00    -0.308 N 
HETATM    2  C   UNL     1      40.103 -14.910   0.876  1.00  0.00     0.320 C 
HETATM    3  N   UNL     1      41.046 -14.221   0.192  1.00  0.00    -0.340 N 
HETATM    4  O   UNL     1      38.908 -14.618   0.826  1.00  0.00    -0.247 OA
HETATM    5  H   UNL     1      39.767 -16.181   2.346  1.00  0.00     0.170 HD
HETATM    6  H   UNL     1      41.985 -14.353   0.549  1.00  0.00     0.164 HD
ENDROOT
BRANCH   1   7
HETATM    7  C   UNL     1      41.750 -16.548   1.896  1.00  0.00     0.044 A 
HETATM    8  C   UNL     1      42.322 -16.633   3.194  1.00  0.00    -0.008 A 
HETATM    9  C   UNL     1      41.663 -15.951   4.373  1.00  0.00     0.053 C 
HETATM   10  C   UNL     1      43.535 -17.351   3.375  1.00  0.00     0.043 A 
HETATM   11  C   UNL     1      44.162 -17.924   2.265  1.00  0.00     0.030 A 
HETATM   12  C   UNL     1      43.590 -17.844   0.999  1.00  0.00     0.005 A 
HETATM   13  C   UNL     1      42.383 -17.176   0.818  1.00  0.00     0.030 A 
BRANCH  10  14
HETATM   14  N   UNL     1      44.069 -17.494   4.675  1.00  0.00    -0.325 N 
HETATM   15  C   UNL     1      44.327 -18.661   5.380  1.00  0.00     0.245 C 
HETATM   16  O   UNL     1      44.202 -19.810   4.975  1.00  0.00    -0.271 OA
HETATM   17  H   UNL     1      44.283 -16.654   5.204  1.00  0.00     0.169 HD
BRANCH  15  18
HETATM   18  C   UNL     1      44.891 -18.360   6.775  1.00  0.00     0.270 C 
BRANCH  18  19
HETATM   19  O   UNL     1      43.919 -18.538   7.807  1.00  0.00    -0.387 OA
HETATM   20  C   UNL     1      43.307 -17.302   8.170  1.00  0.00     0.202 C 
ENDBRANCH  18  19
ENDBRANCH  15  18
ENDBRANCH  10  14
ENDBRANCH   1   7
BRANCH   3  21
HETATM   21  C   UNL     1      40.892 -13.063  -0.694  1.00  0.00     0.163 C 
BRANCH  21  22
HETATM   22  C   UNL     1      40.615 -13.240  -2.229  1.00  0.00     0.143 C 
HETATM   23  C   UNL     1      40.108 -11.900  -2.827  1.00  0.00     0.041 C 
HETATM   24  C   UNL     1      41.070 -11.547  -3.958  1.00  0.00     0.003 C 
HETATM   25  C   UNL     1      42.373 -12.210  -3.557  1.00  0.00     0.003 C 
HETATM   26  C   UNL     1      41.925 -13.552  -2.993  1.00  0.00     0.041 C 
BRANCH  22  27
HETATM   27  N   UNL     1      39.585 -14.343  -2.468  1.00  0.00    -0.061 N 
HETATM   28  H   UNL     1      39.398 -14.690  -1.501  1.00  0.00     0.281 HD
HETATM   29  C   UNL     1      39.992 -15.586  -3.233  1.00  0.00     0.236 C 
HETATM   30  C   UNL     1      38.859 -15.833  -4.216  1.00  0.00     0.029 C 
HETATM   31  C   UNL     1      37.654 -15.202  -3.553  1.00  0.00     0.029 C 
HETATM   32  C   UNL     1      38.225 -13.923  -2.979  1.00  0.00     0.236 C 
ENDBRANCH  22  27
ENDBRANCH  21  22
ENDBRANCH   3  21
TORSDOF 7
ENDMDL
MODEL 10
REMARK VINA RESULT:      -7.1      2.617      3.951
REMARK  7 active torsions:
REMARK  status: ('A' for Active; 'I' for Inactive)
REMARK    1  A    between atoms: C_3  and  N_4 
REMARK       I    between atoms: N_4  and  C_5 
REMARK       I    between atoms: C_5  and  N_6 
REMARK    2  A    between atoms: N_6  and  C_7 
REMARK    3  A    between atoms: C_7  and  C_8 
REMARK    4  A    between atoms: C_8  and  N_9 
REMARK    5  A    between atoms: C_23  and  N_24 
REMARK       I    between atoms: N_24  and  C_25 
REMARK    6  A    between atoms: C_25  and  C_26 
REMARK    7  A    between atoms: C_26  and  O_27 
ROOT
HETATM    1  N   UNL     1      39.623 -15.913   2.204  1.00  0.00    -0.308 N 
HETATM    2  C   UNL     1      39.149 -15.086   1.235  1.00  0.00     0.320 C 
HETATM    3  N   UNL     1      39.998 -14.700   0.253  1.00  0.00    -0.340 N 
HETATM    4  O   UNL     1      38.006 -14.639   1.332  1.00  0.00    -0.247 OA
HETATM    5  H   UNL     1      38.993 -15.962   2.995  1.00  0.00     0.170 HD
HETATM    6  H   UNL     1      40.971 -14.891   0.459  1.00  0.00     0.164 HD
ENDROOT
BRANCH   1   7
HETATM    7  C   UNL     1      40.793 -16.700   2.297  1.00  0.00     0.044 A 
HETATM    8  C   UNL     1      41.611 -16.594   3.455  1.00  0.00    -0.008 A 
HETATM    9  C   UNL     1      41.286 -15.588   4.538  1.00  0.00     0.053 C 
HETATM   10  C   UNL     1      42.754 -17.427   3.578  1.00  0.00     0.043 A 
HETATM   11  C   UNL     1      43.074 -18.308   2.541  1.00  0.00     0.030 A 
HETATM   12  C   UNL     1      42.262 -18.413   1.416  1.00  0.00     0.005 A 
HETATM   13  C   UNL     1      41.119 -17.628   1.303  1.00  0.00     0.030 A 
BRANCH  10  14
HETATM   14  N   UNL     1      43.530 -17.370   4.758  1.00  0.00    -0.325 N 
HETATM   15  C   UNL     1      44.286 -18.375   5.346  1.00  0.00     0.245 C 
HETATM   16  O   UNL     1      44.482 -19.502   4.908  1.00  0.00    -0.271 OA
HETATM   17  H   UNL     1      43.542 -16.502   5.286  1.00  0.00     0.169 HD
BRANCH  15  18
HETATM   18  C   UNL     1      44.957 -17.889   6.636  1.00  0.00     0.270 C 
BRANCH  18  19
HETATM   19  O   UNL     1      44.258 -16.797   7.238  1.00  0.00    -0.387 OA
HETATM   20  C   UNL     1      43.409 -17.237   8.296  1.00  0.00     0.202 C 
ENDBRANCH  18  19
ENDBRANCH  15  18
ENDBRANCH  10  14
ENDBRANCH   1   7
BRANCH   3  21
HETATM   21  C   UNL     1      39.786 -13.740  -0.834  1.00  0.00     0.163 C 
BRANCH  21  22
HETATM   22  C   UNL     1      40.281 -14.038  -2.294  1.00  0.00     0.143 C 
HETATM   23  C   UNL     1      40.641 -15.543  -2.427  1.00  0.00     0.041 C 
HETATM   24  C   UNL     1      39.787 -16.086  -3.570  1.00  0.00     0.003 C 
HETATM   25  C   UNL     1      38.566 -15.187  -3.580  1.00  0.00     0.003 C 
HETATM   26  C   UNL     1      39.147 -13.803  -3.320  1.00  0.00     0.041 C 
BRANCH  22  27
HETATM   27  N   UNL     1      41.496 -13.177  -2.638  1.00  0.00    -0.061 N 
HETATM   28  H   UNL     1      42.190 -13.886  -2.962  1.00  0.00     0.281 HD
HETATM   29  C   UNL     1      42.217 -12.435  -1.531  1.00  0.00     0.236 C 
HETATM   30  C   UNL     1      42.448 -11.037  -2.080  1.00  0.00     0.029 C 
HETATM   31  C   UNL     1      42.481 -11.232  -3.581  1.00  0.00     0.029 C 
HETATM   32  C   UNL     1      41.365 -12.228  -3.808  1.00  0.00     0.236 C 
ENDBRANCH  22  27
ENDBRANCH  21  22
ENDBRANCH   3  21
TORSDOF 7
ENDMDL
