MODEL 1
REMARK VINA RESULT:      -9.3      0.000      0.000
REMARK  6 active torsions:
REMARK  status: ('A' for Active; 'I' for Inactive)
REMARK    1  A    between atoms: C_4  and  C_5 
REMARK    2  A    between atoms: C_5  and  O_6 
REMARK    3  A    between atoms: O_6  and  C_7 
REMARK    4  A    between atoms: C_10  and  C_11 
REMARK    5  A    between atoms: C_17  and  C_18 
REMARK    6  A    between atoms: C_27  and  N_28 
ROOT
HETATM    1  C   UNL     1      41.244 -15.530  -0.766  1.00  0.00     0.072 A 
HETATM    2  N   UNL     1      40.504 -16.095  -1.787  1.00  0.00    -0.274 N 
HETATM    3  H   UNL     1      40.118 -17.033  -1.822  1.00  0.00     0.189 HD
HETATM    4  N   UNL     1      40.321 -15.290  -2.852  1.00  0.00    -0.148 NA
HETATM    5  C   UNL     1      40.969 -14.193  -2.491  1.00  0.00     0.199 A 
HETATM    6  C   UNL     1      41.537 -14.251  -1.215  1.00  0.00     0.040 A 
HETATM    7  C   UNL     1      42.274 -13.080  -0.668  1.00  0.00     0.107 A 
HETATM    8  C   UNL     1      42.416 -11.983  -1.716  1.00  0.00     0.081 A 
HETATM    9  C   UNL     1      43.249 -10.877  -1.371  1.00  0.00     0.100 C 
HETATM   10  N   UNL     1      43.928  -9.984  -1.078  1.00  0.00    -0.191 NA
HETATM   11  C   UNL     1      41.829 -12.050  -2.939  1.00  0.00     0.140 A 
HETATM   12  O   UNL     1      41.045 -13.144  -3.330  1.00  0.00    -0.277 OA
ENDROOT
BRANCH   7  13
HETATM   13  C   UNL     1      41.510 -12.624   0.561  1.00  0.00    -0.027 A 
HETATM   14  C   UNL     1      40.266 -11.994   0.488  1.00  0.00     0.124 A 
HETATM   15  N   UNL     1      39.581 -11.526   1.556  1.00  0.00    -0.273 NA
HETATM   16  C   UNL     1      40.157 -11.687   2.765  1.00  0.00     0.116 A 
HETATM   17  C   UNL     1      41.385 -12.295   2.955  1.00  0.00     0.020 A 
HETATM   18  C   UNL     1      42.069 -12.766   1.839  1.00  0.00     0.011 A 
ENDBRANCH   7  13
BRANCH  11  19
HETATM   19  N   UNL     1      41.925 -11.089  -3.921  1.00  0.00    -0.282 NA
HETATM   20  H   UNL     1      42.794 -10.561  -3.943  1.00  0.00     0.126 HD
HETATM   21  H   UNL     1      41.096 -10.498  -3.961  1.00  0.00     0.126 HD
ENDBRANCH  11  19
BRANCH   1  22
HETATM   22  C   UNL     1      41.577 -16.252   0.458  1.00  0.00    -0.007 A 
HETATM   23  C   UNL     1      42.823 -16.868   0.607  1.00  0.00     0.016 A 
HETATM   24  C   UNL     1      43.138 -17.556   1.783  1.00  0.00     0.037 A 
HETATM   25  C   UNL     1      42.215 -17.649   2.825  1.00  0.00     0.069 A 
HETATM   26  C   UNL     1      40.965 -17.053   2.678  1.00  0.00     0.037 A 
HETATM   27  C   UNL     1      40.651 -16.354   1.505  1.00  0.00     0.016 A 
BRANCH  25  28
HETATM   28  O   UNL     1      42.659 -18.337   3.919  1.00  0.00    -0.347 OA
BRANCH  28  29
HETATM   29  C   UNL     1      44.065 -18.582   4.014  1.00  0.00     0.214 C 
BRANCH  29  30
HETATM   30  C   UNL     1      44.330 -20.066   3.942  1.00  0.00    -0.034 A 
HETATM   31  C   UNL     1      44.661 -20.780   5.104  1.00  0.00     0.009 A 
HETATM   32  C   UNL     1      44.886 -22.157   5.054  1.00  0.00     0.001 A 
HETATM   33  C   UNL     1      44.775 -22.838   3.844  1.00  0.00     0.000 A 
HETATM   34  C   UNL     1      44.432 -22.145   2.685  1.00  0.00     0.001 A 
HETATM   35  C   UNL     1      44.204 -20.769   2.735  1.00  0.00     0.009 A 
ENDBRANCH  29  30
ENDBRANCH  28  29
ENDBRANCH  25  28
ENDBRANCH   1  22
TORSDOF 6
ENDMDL
MODEL 2
REMARK VINA RESULT:      -8.5      2.160      3.316
REMARK  6 active torsions:
REMARK  status: ('A' for Active; 'I' for Inactive)
REMARK    1  A    between atoms: C_4  and  C_5 
REMARK    2  A    between atoms: C_5  and  O_6 
REMARK    3  A    between atoms: O_6  and  C_7 
REMARK    4  A    between atoms: C_10  and  C_11 
REMARK    5  A    between atoms: C_17  and  C_18 
REMARK    6  A    between atoms: C_27  and  N_28 
ROOT
HETATM    1  C   UNL     1      41.306 -15.627  -0.721  1.00  0.00     0.072 A 
HETATM    2  N   UNL     1      40.657 -16.282  -1.749  1.00  0.00    -0.274 N 
HETATM    3  H   UNL     1      40.299 -17.232  -1.746  1.00  0.00     0.189 HD
HETATM    4  N   UNL     1      40.528 -15.557  -2.878  1.00  0.00    -0.148 NA
HETATM    5  C   UNL     1      41.119 -14.418  -2.550  1.00  0.00     0.199 A 
HETATM    6  C   UNL     1      41.596 -14.372  -1.236  1.00  0.00     0.040 A 
HETATM    7  C   UNL     1      42.261 -13.144  -0.722  1.00  0.00     0.107 A 
HETATM    8  C   UNL     1      42.447 -12.116  -1.832  1.00  0.00     0.081 A 
HETATM    9  C   UNL     1      43.224 -10.963  -1.508  1.00  0.00     0.100 C 
HETATM   10  N   UNL     1      43.855 -10.031  -1.231  1.00  0.00    -0.191 NA
HETATM   11  C   UNL     1      41.951 -12.285  -3.085  1.00  0.00     0.140 A 
HETATM   12  O   UNL     1      41.226 -13.427  -3.452  1.00  0.00    -0.277 OA
ENDROOT
BRANCH   7  13
HETATM   13  C   UNL     1      41.399 -12.631   0.416  1.00  0.00    -0.027 A 
HETATM   14  C   UNL     1      40.172 -11.996   0.210  1.00  0.00     0.124 A 
HETATM   15  N   UNL     1      39.403 -11.479   1.194  1.00  0.00    -0.273 NA
HETATM   16  C   UNL     1      39.872 -11.591   2.454  1.00  0.00     0.116 A 
HETATM   17  C   UNL     1      41.072 -12.199   2.775  1.00  0.00     0.020 A 
HETATM   18  C   UNL     1      41.845 -12.722   1.742  1.00  0.00     0.011 A 
ENDBRANCH   7  13
BRANCH  11  19
HETATM   19  N   UNL     1      42.090 -11.389  -4.123  1.00  0.00    -0.282 NA
HETATM   20  H   UNL     1      42.887 -11.541  -4.737  1.00  0.00     0.126 HD
HETATM   21  H   UNL     1      42.005 -10.423  -3.810  1.00  0.00     0.126 HD
ENDBRANCH  11  19
BRANCH   1  22
HETATM   22  C   UNL     1      41.570 -16.254   0.570  1.00  0.00    -0.007 A 
HETATM   23  C   UNL     1      40.567 -16.339   1.541  1.00  0.00     0.016 A 
HETATM   24  C   UNL     1      40.825 -16.942   2.775  1.00  0.00     0.037 A 
HETATM   25  C   UNL     1      42.086 -17.462   3.066  1.00  0.00     0.069 A 
HETATM   26  C   UNL     1      43.096 -17.367   2.112  1.00  0.00     0.037 A 
HETATM   27  C   UNL     1      42.837 -16.771   0.870  1.00  0.00     0.016 A 
BRANCH  25  28
HETATM   28  O   UNL     1      42.194 -18.036   4.302  1.00  0.00    -0.347 OA
BRANCH  28  29
HETATM   29  C   UNL     1      41.684 -17.297   5.415  1.00  0.00     0.214 C 
BRANCH  29  30
HETATM   30  C   UNL     1      42.611 -16.148   5.731  1.00  0.00    -0.034 A 
HETATM   31  C   UNL     1      42.203 -14.827   5.488  1.00  0.00     0.009 A 
HETATM   32  C   UNL     1      43.043 -13.755   5.797  1.00  0.00     0.001 A 
HETATM   33  C   UNL     1      44.296 -13.989   6.359  1.00  0.00     0.000 A 
HETATM   34  C   UNL     1      44.707 -15.295   6.621  1.00  0.00     0.001 A 
HETATM   35  C   UNL     1      43.868 -16.367   6.315  1.00  0.00     0.009 A 
ENDBRANCH  29  30
ENDBRANCH  28  29
ENDBRANCH  25  28
ENDBRANCH   1  22
TORSDOF 6
ENDMDL
MODEL 3
REMARK VINA RESULT:      -8.4      1.506      2.320
REMARK  6 active torsions:
REMARK  status: ('A' for Active; 'I' for Inactive)
REMARK    1  A    between atoms: C_4  and  C_5 
REMARK    2  A    between atoms: C_5  and  O_6 
REMARK    3  A    between atoms: O_6  and  C_7 
REMARK    4  A    between atoms: C_10  and  C_11 
REMARK    5  A    between atoms: C_17  and  C_18 
REMARK    6  A    between atoms: C_27  and  N_28 
ROOT
HETATM    1  C   UNL     1      41.208 -15.475  -0.928  1.00  0.00     0.072 A 
HETATM    2  N   UNL     1      40.459 -15.985  -1.970  1.00  0.00    -0.274 N 
HETATM    3  H   UNL     1      40.060 -16.916  -2.046  1.00  0.00     0.189 HD
HETATM    4  N   UNL     1      40.282 -15.132  -2.998  1.00  0.00    -0.148 NA
HETATM    5  C   UNL     1      40.945 -14.060  -2.591  1.00  0.00     0.199 A 
HETATM    6  C   UNL     1      41.516 -14.181  -1.321  1.00  0.00     0.040 A 
HETATM    7  C   UNL     1      42.269 -13.045  -0.725  1.00  0.00     0.107 A 
HETATM    8  C   UNL     1      42.421 -11.904  -1.724  1.00  0.00     0.081 A 
HETATM    9  C   UNL     1      43.269 -10.824  -1.334  1.00  0.00     0.100 C 
HETATM   10  N   UNL     1      43.960  -9.954  -1.003  1.00  0.00    -0.191 NA
HETATM   11  C   UNL     1      41.830 -11.910  -2.947  1.00  0.00     0.140 A 
HETATM   12  O   UNL     1      41.031 -12.976  -3.383  1.00  0.00    -0.277 OA
ENDROOT
BRANCH   7  13
HETATM   13  C   UNL     1      41.514 -12.634   0.525  1.00  0.00    -0.027 A 
HETATM   14  C   UNL     1      40.259 -12.022   0.485  1.00  0.00     0.124 A 
HETATM   15  N   UNL     1      39.581 -11.594   1.573  1.00  0.00    -0.273 NA
HETATM   16  C   UNL     1      40.175 -11.778   2.771  1.00  0.00     0.116 A 
HETATM   17  C   UNL     1      41.415 -12.372   2.929  1.00  0.00     0.020 A 
HETATM   18  C   UNL     1      42.092 -12.802   1.791  1.00  0.00     0.011 A 
ENDBRANCH   7  13
BRANCH  11  19
HETATM   19  N   UNL     1      41.935 -10.908  -3.886  1.00  0.00    -0.282 NA
HETATM   20  H   UNL     1      41.766 -11.183  -4.851  1.00  0.00     0.126 HD
HETATM   21  H   UNL     1      42.787 -10.361  -3.770  1.00  0.00     0.126 HD
ENDBRANCH  11  19
BRANCH   1  22
HETATM   22  C   UNL     1      41.535 -16.255   0.262  1.00  0.00    -0.007 A 
HETATM   23  C   UNL     1      42.732 -16.974   0.338  1.00  0.00     0.016 A 
HETATM   24  C   UNL     1      43.042 -17.716   1.481  1.00  0.00     0.037 A 
HETATM   25  C   UNL     1      42.162 -17.762   2.563  1.00  0.00     0.069 A 
HETATM   26  C   UNL     1      40.960 -17.063   2.489  1.00  0.00     0.037 A 
HETATM   27  C   UNL     1      40.652 -16.309   1.348  1.00  0.00     0.016 A 
BRANCH  25  28
HETATM   28  O   UNL     1      42.597 -18.513   3.619  1.00  0.00    -0.347 OA
BRANCH  28  29
HETATM   29  C   UNL     1      43.888 -18.208   4.153  1.00  0.00     0.214 C 
BRANCH  29  30
HETATM   30  C   UNL     1      43.776 -17.940   5.634  1.00  0.00    -0.034 A 
HETATM   31  C   UNL     1      44.061 -18.958   6.558  1.00  0.00     0.009 A 
HETATM   32  C   UNL     1      43.982 -18.716   7.930  1.00  0.00     0.001 A 
HETATM   33  C   UNL     1      43.627 -17.453   8.397  1.00  0.00     0.000 A 
HETATM   34  C   UNL     1      43.357 -16.428   7.492  1.00  0.00     0.001 A 
HETATM   35  C   UNL     1      43.437 -16.669   6.119  1.00  0.00     0.009 A 
ENDBRANCH  29  30
ENDBRANCH  28  29
ENDBRANCH  25  28
ENDBRANCH   1  22
TORSDOF 6
ENDMDL
MODEL 4
REMARK VINA RESULT:      -8.4      2.603      4.845
REMARK  6 active torsions:
REMARK  status: ('A' for Active; 'I' for Inactive)
REMARK    1  A    between atoms: C_4  and  C_5 
REMARK    2  A    between atoms: C_5  and  O_6 
REMARK    3  A    between atoms: O_6  and  C_7 
REMARK    4  A    between atoms: C_10  and  C_11 
REMARK    5  A    between atoms: C_17  and  C_18 
REMARK    6  A    between atoms: C_27  and  N_28 
ROOT
HETATM    1  C   UNL     1      41.174 -12.960   4.646  1.00  0.00     0.072 A 
HETATM    2  N   UNL     1      41.712 -11.930   5.393  1.00  0.00    -0.274 N 
HETATM    3  H   UNL     1      42.400 -12.001   6.136  1.00  0.00     0.189 HD
HETATM    4  N   UNL     1      41.221 -10.711   5.094  1.00  0.00    -0.148 NA
HETATM    5  C   UNL     1      40.347 -10.986   4.138  1.00  0.00     0.199 A 
HETATM    6  C   UNL     1      40.281 -12.337   3.787  1.00  0.00     0.040 A 
HETATM    7  C   UNL     1      39.360 -12.788   2.709  1.00  0.00     0.107 A 
HETATM    8  C   UNL     1      38.480 -11.642   2.225  1.00  0.00     0.081 A 
HETATM    9  C   UNL     1      37.437 -11.981   1.312  1.00  0.00     0.100 C 
HETATM   10  N   UNL     1      36.595 -12.271   0.569  1.00  0.00    -0.191 NA
HETATM   11  C   UNL     1      38.628 -10.364   2.659  1.00  0.00     0.140 A 
HETATM   12  O   UNL     1      39.609 -10.002   3.592  1.00  0.00    -0.277 OA
ENDROOT
BRANCH   7  13
HETATM   13  C   UNL     1      40.231 -13.364   1.609  1.00  0.00    -0.027 A 
HETATM   14  C   UNL     1      41.077 -12.578   0.822  1.00  0.00     0.124 A 
HETATM   15  N   UNL     1      41.826 -13.048  -0.200  1.00  0.00    -0.273 NA
HETATM   16  C   UNL     1      41.736 -14.368  -0.464  1.00  0.00     0.116 A 
HETATM   17  C   UNL     1      40.931 -15.239   0.248  1.00  0.00     0.020 A 
HETATM   18  C   UNL     1      40.169 -14.729   1.295  1.00  0.00     0.011 A 
ENDBRANCH   7  13
BRANCH  11  19
HETATM   19  N   UNL     1      37.861  -9.292   2.255  1.00  0.00    -0.282 NA
HETATM   20  H   UNL     1      38.131  -8.386   2.629  1.00  0.00     0.126 HD
HETATM   21  H   UNL     1      36.864  -9.480   2.343  1.00  0.00     0.126 HD
ENDBRANCH  11  19
BRANCH   1  22
HETATM   22  C   UNL     1      41.553 -14.356   4.841  1.00  0.00    -0.007 A 
HETATM   23  C   UNL     1      42.647 -14.900   4.162  1.00  0.00     0.016 A 
HETATM   24  C   UNL     1      43.007 -16.237   4.354  1.00  0.00     0.037 A 
HETATM   25  C   UNL     1      42.279 -17.056   5.218  1.00  0.00     0.069 A 
HETATM   26  C   UNL     1      41.177 -16.527   5.886  1.00  0.00     0.037 A 
HETATM   27  C   UNL     1      40.821 -15.184   5.703  1.00  0.00     0.016 A 
BRANCH  25  28
HETATM   28  O   UNL     1      42.750 -18.335   5.322  1.00  0.00    -0.347 OA
BRANCH  28  29
HETATM   29  C   UNL     1      44.100 -18.573   4.913  1.00  0.00     0.214 C 
BRANCH  29  30
HETATM   30  C   UNL     1      44.141 -19.727   3.941  1.00  0.00    -0.034 A 
HETATM   31  C   UNL     1      44.679 -20.962   4.336  1.00  0.00     0.009 A 
HETATM   32  C   UNL     1      44.703 -22.043   3.453  1.00  0.00     0.001 A 
HETATM   33  C   UNL     1      44.183 -21.906   2.169  1.00  0.00     0.000 A 
HETATM   34  C   UNL     1      43.631 -20.691   1.768  1.00  0.00     0.001 A 
HETATM   35  C   UNL     1      43.604 -19.610   2.650  1.00  0.00     0.009 A 
ENDBRANCH  29  30
ENDBRANCH  28  29
ENDBRANCH  25  28
ENDBRANCH   1  22
TORSDOF 6
ENDMDL
MODEL 5
REMARK VINA RESULT:      -8.2      1.431      1.749
REMARK  6 active torsions:
REMARK  status: ('A' for Active; 'I' for Inactive)
REMARK    1  A    between atoms: C_4  and  C_5 
REMARK    2  A    between atoms: C_5  and  O_6 
REMARK    3  A    between atoms: O_6  and  C_7 
REMARK    4  A    between atoms: C_10  and  C_11 
REMARK    5  A    between atoms: C_17  and  C_18 
REMARK    6  A    between atoms: C_27  and  N_28 
ROOT
HETATM    1  C   UNL     1      40.120 -14.319  -0.753  1.00  0.00     0.072 A 
HETATM    2  N   UNL     1      39.196 -14.659  -1.720  1.00  0.00    -0.274 N 
HETATM    3  H   UNL     1      38.783 -15.573  -1.884  1.00  0.00     0.189 HD
HETATM    4  N   UNL     1      38.847 -13.647  -2.538  1.00  0.00    -0.148 NA
HETATM    5  C   UNL     1      39.579 -12.646  -2.075  1.00  0.00     0.199 A 
HETATM    6  C   UNL     1      40.364 -12.970  -0.963  1.00  0.00     0.040 A 
HETATM    7  C   UNL     1      41.218 -11.935  -0.321  1.00  0.00     0.107 A 
HETATM    8  C   UNL     1      41.201 -10.636  -1.119  1.00  0.00     0.081 A 
HETATM    9  C   UNL     1      42.112  -9.620  -0.702  1.00  0.00     0.100 C 
HETATM   10  N   UNL     1      42.857  -8.803  -0.352  1.00  0.00    -0.191 NA
HETATM   11  C   UNL     1      40.404 -10.447  -2.202  1.00  0.00     0.140 A 
HETATM   12  O   UNL     1      39.533 -11.440  -2.670  1.00  0.00    -0.277 OA
ENDROOT
BRANCH   7  13
HETATM   13  C   UNL     1      40.698 -11.762   1.093  1.00  0.00    -0.027 A 
HETATM   14  C   UNL     1      39.470 -11.161   1.380  1.00  0.00     0.124 A 
HETATM   15  N   UNL     1      38.999 -10.941   2.628  1.00  0.00    -0.273 NA
HETATM   16  C   UNL     1      39.784 -11.335   3.652  1.00  0.00     0.116 A 
HETATM   17  C   UNL     1      41.017 -11.939   3.486  1.00  0.00     0.020 A 
HETATM   18  C   UNL     1      41.479 -12.151   2.190  1.00  0.00     0.011 A 
ENDBRANCH   7  13
BRANCH  11  19
HETATM   19  N   UNL     1      40.350  -9.296  -2.958  1.00  0.00    -0.282 NA
HETATM   20  H   UNL     1      41.246  -8.898  -3.227  1.00  0.00     0.126 HD
HETATM   21  H   UNL     1      39.709  -8.609  -2.565  1.00  0.00     0.126 HD
ENDBRANCH  11  19
BRANCH   1  22
HETATM   22  C   UNL     1      40.646 -15.282   0.210  1.00  0.00    -0.007 A 
HETATM   23  C   UNL     1      40.007 -15.487   1.437  1.00  0.00     0.016 A 
HETATM   24  C   UNL     1      40.513 -16.413   2.353  1.00  0.00     0.037 A 
HETATM   25  C   UNL     1      41.667 -17.143   2.067  1.00  0.00     0.069 A 
HETATM   26  C   UNL     1      42.320 -16.933   0.855  1.00  0.00     0.037 A 
HETATM   27  C   UNL     1      41.808 -16.013  -0.070  1.00  0.00     0.016 A 
BRANCH  25  28
HETATM   28  O   UNL     1      42.041 -18.022   3.045  1.00  0.00    -0.347 OA
BRANCH  28  29
HETATM   29  C   UNL     1      43.441 -18.167   3.297  1.00  0.00     0.214 C 
BRANCH  29  30
HETATM   30  C   UNL     1      43.842 -19.613   3.132  1.00  0.00    -0.034 A 
HETATM   31  C   UNL     1      44.480 -20.291   4.183  1.00  0.00     0.009 A 
HETATM   32  C   UNL     1      44.835 -21.635   4.050  1.00  0.00     0.001 A 
HETATM   33  C   UNL     1      44.551 -22.318   2.870  1.00  0.00     0.000 A 
HETATM   34  C   UNL     1      43.905 -21.662   1.825  1.00  0.00     0.001 A 
HETATM   35  C   UNL     1      43.546 -20.319   1.957  1.00  0.00     0.009 A 
ENDBRANCH  29  30
ENDBRANCH  28  29
ENDBRANCH  25  28
ENDBRANCH   1  22
TORSDOF 6
ENDMDL
MODEL 6
REMARK VINA RESULT:      -8.1      2.352      4.558
REMARK  6 active torsions:
REMARK  status: ('A' for Active; 'I' for Inactive)
REMARK    1  A    between atoms: C_4  and  C_5 
REMARK    2  A    between atoms: C_5  and  O_6 
REMARK    3  A    between atoms: O_6  and  C_7 
REMARK    4  A    between atoms: C_10  and  C_11 
REMARK    5  A    between atoms: C_17  and  C_18 
REMARK    6  A    between atoms: C_27  and  N_28 
ROOT
HETATM    1  C   UNL     1      41.295 -13.597   3.304  1.00  0.00     0.072 A 
HETATM    2  N   UNL     1      42.038 -12.904   4.240  1.00  0.00    -0.274 N 
HETATM    3  H   UNL     1      42.845 -13.239   4.757  1.00  0.00     0.189 HD
HETATM    4  N   UNL     1      41.593 -11.657   4.492  1.00  0.00    -0.148 NA
HETATM    5  C   UNL     1      40.538 -11.569   3.696  1.00  0.00     0.199 A 
HETATM    6  C   UNL     1      40.307 -12.705   2.915  1.00  0.00     0.040 A 
HETATM    7  C   UNL     1      39.170 -12.737   1.955  1.00  0.00     0.107 A 
HETATM    8  C   UNL     1      38.303 -11.491   2.091  1.00  0.00     0.081 A 
HETATM    9  C   UNL     1      37.086 -11.478   1.345  1.00  0.00     0.100 C 
HETATM   10  N   UNL     1      36.101 -11.480   0.733  1.00  0.00    -0.191 NA
HETATM   11  C   UNL     1      38.625 -10.453   2.906  1.00  0.00     0.140 A 
HETATM   12  O   UNL     1      39.787 -10.453   3.690  1.00  0.00    -0.277 OA
ENDROOT
BRANCH   7  13
HETATM   13  C   UNL     1      39.776 -12.884   0.572  1.00  0.00    -0.027 A 
HETATM   14  C   UNL     1      40.538 -11.880  -0.031  1.00  0.00     0.124 A 
HETATM   15  N   UNL     1      41.048 -11.954  -1.280  1.00  0.00    -0.273 NA
HETATM   16  C   UNL     1      40.791 -13.080  -1.977  1.00  0.00     0.116 A 
HETATM   17  C   UNL     1      40.048 -14.137  -1.481  1.00  0.00     0.020 A 
HETATM   18  C   UNL     1      39.534 -14.034  -0.191  1.00  0.00     0.011 A 
ENDBRANCH   7  13
BRANCH  11  19
HETATM   19  N   UNL     1      37.878  -9.306   3.065  1.00  0.00    -0.282 NA
HETATM   20  H   UNL     1      36.948  -9.320   2.653  1.00  0.00     0.126 HD
HETATM   21  H   UNL     1      38.407  -8.468   2.830  1.00  0.00     0.126 HD
ENDBRANCH  11  19
BRANCH   1  22
HETATM   22  C   UNL     1      41.599 -14.971   2.917  1.00  0.00    -0.007 A 
HETATM   23  C   UNL     1      42.916 -15.369   2.669  1.00  0.00     0.016 A 
HETATM   24  C   UNL     1      43.202 -16.686   2.301  1.00  0.00     0.037 A 
HETATM   25  C   UNL     1      42.181 -17.627   2.167  1.00  0.00     0.069 A 
HETATM   26  C   UNL     1      40.864 -17.236   2.396  1.00  0.00     0.037 A 
HETATM   27  C   UNL     1      40.576 -15.918   2.774  1.00  0.00     0.016 A 
BRANCH  25  28
HETATM   28  O   UNL     1      42.603 -18.879   1.817  1.00  0.00    -0.347 OA
BRANCH  28  29
HETATM   29  C   UNL     1      44.006 -19.143   1.890  1.00  0.00     0.214 C 
BRANCH  29  30
HETATM   30  C   UNL     1      44.267 -20.243   2.892  1.00  0.00    -0.034 A 
HETATM   31  C   UNL     1      44.353 -21.577   2.466  1.00  0.00     0.009 A 
HETATM   32  C   UNL     1      44.615 -22.600   3.379  1.00  0.00     0.001 A 
HETATM   33  C   UNL     1      44.802 -22.301   4.727  1.00  0.00     0.000 A 
HETATM   34  C   UNL     1      44.735 -20.979   5.161  1.00  0.00     0.001 A 
HETATM   35  C   UNL     1      44.475 -19.955   4.249  1.00  0.00     0.009 A 
ENDBRANCH  29  30
ENDBRANCH  28  29
ENDBRANCH  25  28
ENDBRANCH   1  22
TORSDOF 6
ENDMDL
MODEL 7
REMARK VINA RESULT:      -8.0      1.920      2.858
REMARK  6 active torsions:
REMARK  status: ('A' for Active; 'I' for Inactive)
REMARK    1  A    between atoms: C_4  and  C_5 
REMARK    2  A    between atoms: C_5  and  O_6 
REMARK    3  A    between atoms: O_6  and  C_7 
REMARK    4  A    between atoms: C_10  and  C_11 
REMARK    5  A    between atoms: C_17  and  C_18 
REMARK    6  A    between atoms: C_27  and  N_28 
ROOT
HETATM    1  C   UNL     1      39.684 -13.968  -1.297  1.00  0.00     0.072 A 
HETATM    2  N   UNL     1      38.334 -14.259  -1.318  1.00  0.00    -0.274 N 
HETATM    3  H   UNL     1      37.838 -14.925  -0.735  1.00  0.00     0.189 HD
HETATM    4  N   UNL     1      37.634 -13.584  -2.250  1.00  0.00    -0.148 NA
HETATM    5  C   UNL     1      38.573 -12.855  -2.835  1.00  0.00     0.199 A 
HETATM    6  C   UNL     1      39.850 -13.012  -2.288  1.00  0.00     0.040 A 
HETATM    7  C   UNL     1      40.998 -12.236  -2.829  1.00  0.00     0.107 A 
HETATM    8  C   UNL     1      40.590 -11.443  -4.065  1.00  0.00     0.081 A 
HETATM    9  C   UNL     1      41.640 -10.790  -4.778  1.00  0.00     0.100 C 
HETATM   10  N   UNL     1      42.503 -10.263  -5.346  1.00  0.00    -0.191 NA
HETATM   11  C   UNL     1      39.310 -11.382  -4.514  1.00  0.00     0.140 A 
HETATM   12  O   UNL     1      38.261 -12.051  -3.868  1.00  0.00    -0.277 OA
ENDROOT
BRANCH   7  13
HETATM   13  C   UNL     1      41.492 -11.351  -1.700  1.00  0.00    -0.027 A 
HETATM   14  C   UNL     1      42.782 -11.446  -1.172  1.00  0.00     0.124 A 
HETATM   15  N   UNL     1      43.238 -10.712  -0.133  1.00  0.00    -0.273 NA
HETATM   16  C   UNL     1      42.374  -9.837   0.420  1.00  0.00     0.116 A 
HETATM   17  C   UNL     1      41.075  -9.660  -0.020  1.00  0.00     0.020 A 
HETATM   18  C   UNL     1      40.629 -10.429  -1.091  1.00  0.00     0.011 A 
ENDBRANCH   7  13
BRANCH  11  19
HETATM   19  N   UNL     1      38.888 -10.682  -5.623  1.00  0.00    -0.282 NA
HETATM   20  H   UNL     1      39.298  -9.760  -5.750  1.00  0.00     0.126 HD
HETATM   21  H   UNL     1      37.873 -10.685  -5.715  1.00  0.00     0.126 HD
ENDBRANCH  11  19
BRANCH   1  22
HETATM   22  C   UNL     1      40.616 -14.618  -0.381  1.00  0.00    -0.007 A 
HETATM   23  C   UNL     1      41.153 -15.874  -0.679  1.00  0.00     0.016 A 
HETATM   24  C   UNL     1      42.046 -16.491   0.201  1.00  0.00     0.037 A 
HETATM   25  C   UNL     1      42.414 -15.871   1.395  1.00  0.00     0.069 A 
HETATM   26  C   UNL     1      41.872 -14.627   1.709  1.00  0.00     0.037 A 
HETATM   27  C   UNL     1      40.983 -14.003   0.823  1.00  0.00     0.016 A 
BRANCH  25  28
HETATM   28  O   UNL     1      43.306 -16.578   2.153  1.00  0.00    -0.347 OA
BRANCH  28  29
HETATM   29  C   UNL     1      42.771 -17.455   3.148  1.00  0.00     0.214 C 
BRANCH  29  30
HETATM   30  C   UNL     1      43.401 -18.820   3.016  1.00  0.00    -0.034 A 
HETATM   31  C   UNL     1      44.309 -19.273   3.986  1.00  0.00     0.009 A 
HETATM   32  C   UNL     1      44.882 -20.543   3.886  1.00  0.00     0.001 A 
HETATM   33  C   UNL     1      44.548 -21.377   2.823  1.00  0.00     0.000 A 
HETATM   34  C   UNL     1      43.635 -20.947   1.861  1.00  0.00     0.001 A 
HETATM   35  C   UNL     1      43.060 -19.679   1.961  1.00  0.00     0.009 A 
ENDBRANCH  29  30
ENDBRANCH  28  29
ENDBRANCH  25  28
ENDBRANCH   1  22
TORSDOF 6
ENDMDL
MODEL 8
REMARK VINA RESULT:      -8.0      2.252      4.092
REMARK  6 active torsions:
REMARK  status: ('A' for Active; 'I' for Inactive)
REMARK    1  A    between atoms: C_4  and  C_5 
REMARK    2  A    between atoms: C_5  and  O_6 
REMARK    3  A    between atoms: O_6  and  C_7 
REMARK    4  A    between atoms: C_10  and  C_11 
REMARK    5  A    between atoms: C_17  and  C_18 
REMARK    6  A    between atoms: C_27  and  N_28 
ROOT
HETATM    1  C   UNL     1      39.961 -13.451   2.320  1.00  0.00     0.072 A 
HETATM    2  N   UNL     1      39.521 -12.784   3.447  1.00  0.00    -0.274 N 
HETATM    3  H   UNL     1      39.853 -12.898   4.399  1.00  0.00     0.189 HD
HETATM    4  N   UNL     1      38.516 -11.915   3.222  1.00  0.00    -0.148 NA
HETATM    5  C   UNL     1      38.316 -12.046   1.920  1.00  0.00     0.199 A 
HETATM    6  C   UNL     1      39.182 -12.946   1.290  1.00  0.00     0.040 A 
HETATM    7  C   UNL     1      39.089 -13.174  -0.177  1.00  0.00     0.107 A 
HETATM    8  C   UNL     1      37.893 -12.440  -0.772  1.00  0.00     0.081 A 
HETATM    9  C   UNL     1      37.594 -12.713  -2.141  1.00  0.00     0.100 C 
HETATM   10  N   UNL     1      37.364 -12.943  -3.253  1.00  0.00    -0.191 NA
HETATM   11  C   UNL     1      37.108 -11.601  -0.048  1.00  0.00     0.140 A 
HETATM   12  O   UNL     1      37.342 -11.347   1.310  1.00  0.00    -0.277 OA
ENDROOT
BRANCH   7  13
HETATM   13  C   UNL     1      40.410 -12.721  -0.769  1.00  0.00    -0.027 A 
HETATM   14  C   UNL     1      40.809 -11.382  -0.796  1.00  0.00     0.124 A 
HETATM   15  N   UNL     1      41.952 -10.935  -1.361  1.00  0.00    -0.273 NA
HETATM   16  C   UNL     1      42.748 -11.860  -1.936  1.00  0.00     0.116 A 
HETATM   17  C   UNL     1      42.454 -13.211  -1.970  1.00  0.00     0.020 A 
HETATM   18  C   UNL     1      41.269 -13.644  -1.381  1.00  0.00     0.011 A 
ENDBRANCH   7  13
BRANCH  11  19
HETATM   19  N   UNL     1      36.017 -10.914  -0.535  1.00  0.00    -0.282 NA
HETATM   20  H   UNL     1      35.627 -10.205   0.081  1.00  0.00     0.126 HD
HETATM   21  H   UNL     1      35.313 -11.539  -0.922  1.00  0.00     0.126 HD
ENDBRANCH  11  19
BRANCH   1  22
HETATM   22  C   UNL     1      41.021 -14.454   2.361  1.00  0.00    -0.007 A 
HETATM   23  C   UNL     1      40.732 -15.806   2.154  1.00  0.00     0.016 A 
HETATM   24  C   UNL     1      41.751 -16.763   2.192  1.00  0.00     0.037 A 
HETATM   25  C   UNL     1      43.071 -16.390   2.445  1.00  0.00     0.069 A 
HETATM   26  C   UNL     1      43.365 -15.047   2.671  1.00  0.00     0.037 A 
HETATM   27  C   UNL     1      42.347 -14.086   2.623  1.00  0.00     0.016 A 
BRANCH  25  28
HETATM   28  O   UNL     1      43.965 -17.423   2.439  1.00  0.00    -0.347 OA
BRANCH  28  29
HETATM   29  C   UNL     1      43.602 -18.602   1.715  1.00  0.00     0.214 C 
BRANCH  29  30
HETATM   30  C   UNL     1      44.015 -19.827   2.496  1.00  0.00    -0.034 A 
HETATM   31  C   UNL     1      44.384 -19.711   3.845  1.00  0.00     0.009 A 
HETATM   32  C   UNL     1      44.746 -20.839   4.583  1.00  0.00     0.001 A 
HETATM   33  C   UNL     1      44.736 -22.097   3.985  1.00  0.00     0.000 A 
HETATM   34  C   UNL     1      44.356 -22.229   2.650  1.00  0.00     0.001 A 
HETATM   35  C   UNL     1      43.991 -21.102   1.912  1.00  0.00     0.009 A 
ENDBRANCH  29  30
ENDBRANCH  28  29
ENDBRANCH  25  28
ENDBRANCH   1  22
TORSDOF 6
ENDMDL
MODEL 9
REMARK VINA RESULT:      -7.9      2.339      4.191
REMARK  6 active torsions:
REMARK  status: ('A' for Active; 'I' for Inactive)
REMARK    1  A    between atoms: C_4  and  C_5 
REMARK    2  A    between atoms: C_5  and  O_6 
REMARK    3  A    between atoms: O_6  and  C_7 
REMARK    4  A    between atoms: C_10  and  C_11 
REMARK    5  A    between atoms: C_17  and  C_18 
REMARK    6  A    between atoms: C_27  and  N_28 
ROOT
HETATM    1  C   UNL     1      41.638 -12.756  -0.958  1.00  0.00     0.072 A 
HETATM    2  N   UNL     1      42.832 -12.093  -1.160  1.00  0.00    -0.274 N 
HETATM    3  H   UNL     1      43.729 -12.294  -0.729  1.00  0.00     0.189 HD
HETATM    4  N   UNL     1      42.753 -11.049  -2.009  1.00  0.00    -0.148 NA
HETATM    5  C   UNL     1      41.472 -11.055  -2.343  1.00  0.00     0.199 A 
HETATM    6  C   UNL     1      40.728 -12.088  -1.764  1.00  0.00     0.040 A 
HETATM    7  C   UNL     1      39.279 -12.232  -2.071  1.00  0.00     0.107 A 
HETATM    8  C   UNL     1      38.780 -11.068  -2.918  1.00  0.00     0.081 A 
HETATM    9  C   UNL     1      37.371 -10.999  -3.138  1.00  0.00     0.100 C 
HETATM   10  N   UNL     1      36.225 -10.956  -3.311  1.00  0.00    -0.191 NA
HETATM   11  C   UNL     1      39.603 -10.106  -3.410  1.00  0.00     0.140 A 
HETATM   12  O   UNL     1      40.984 -10.114  -3.172  1.00  0.00    -0.277 OA
ENDROOT
BRANCH   7  13
HETATM   13  C   UNL     1      39.115 -13.573  -2.761  1.00  0.00    -0.027 A 
HETATM   14  C   UNL     1      40.111 -14.142  -3.558  1.00  0.00     0.124 A 
HETATM   15  N   UNL     1      39.981 -15.307  -4.230  1.00  0.00    -0.273 NA
HETATM   16  C   UNL     1      38.800 -15.948  -4.112  1.00  0.00     0.116 A 
HETATM   17  C   UNL     1      37.744 -15.479  -3.351  1.00  0.00     0.020 A 
HETATM   18  C   UNL     1      37.905 -14.275  -2.670  1.00  0.00     0.011 A 
ENDBRANCH   7  13
BRANCH  11  19
HETATM   19  N   UNL     1      39.204  -9.034  -4.179  1.00  0.00    -0.282 NA
HETATM   20  H   UNL     1      39.925  -8.609  -4.756  1.00  0.00     0.126 HD
HETATM   21  H   UNL     1      38.670  -8.355  -3.640  1.00  0.00     0.126 HD
ENDBRANCH  11  19
BRANCH   1  22
HETATM   22  C   UNL     1      41.511 -13.893  -0.052  1.00  0.00    -0.007 A 
HETATM   23  C   UNL     1      41.424 -15.197  -0.550  1.00  0.00     0.016 A 
HETATM   24  C   UNL     1      41.305 -16.283   0.323  1.00  0.00     0.037 A 
HETATM   25  C   UNL     1      41.262 -16.088   1.703  1.00  0.00     0.069 A 
HETATM   26  C   UNL     1      41.330 -14.791   2.207  1.00  0.00     0.037 A 
HETATM   27  C   UNL     1      41.460 -13.702   1.335  1.00  0.00     0.016 A 
BRANCH  25  28
HETATM   28  O   UNL     1      41.158 -17.236   2.437  1.00  0.00    -0.347 OA
BRANCH  28  29
HETATM   29  C   UNL     1      42.063 -17.398   3.533  1.00  0.00     0.214 C 
BRANCH  29  30
HETATM   30  C   UNL     1      42.941 -18.604   3.294  1.00  0.00    -0.034 A 
HETATM   31  C   UNL     1      43.819 -19.044   4.297  1.00  0.00     0.009 A 
HETATM   32  C   UNL     1      44.620 -20.170   4.096  1.00  0.00     0.001 A 
HETATM   33  C   UNL     1      44.546 -20.874   2.897  1.00  0.00     0.000 A 
HETATM   34  C   UNL     1      43.667 -20.458   1.899  1.00  0.00     0.001 A 
HETATM   35  C   UNL     1      42.865 -19.333   2.099  1.00  0.00     0.009 A 
ENDBRANCH  29  30
ENDBRANCH  28  29
ENDBRANCH  25  28
ENDBRANCH   1  22
TORSDOF 6
ENDMDL
MODEL 10
REMARK VINA RESULT:      -7.8      6.227      9.386
REMARK  6 active torsions:
REMARK  status: ('A' for Active; 'I' for Inactive)
REMARK    1  A    between atoms: C_4  and  C_5 
REMARK    2  A    between atoms: C_5  and  O_6 
REMARK    3  A    between atoms: O_6  and  C_7 
REMARK    4  A    between atoms: C_10  and  C_11 
REMARK    5  A    between atoms: C_17  and  C_18 
REMARK    6  A    between atoms: C_27  and  N_28 
ROOT
HETATM    1  C   UNL     1      40.229 -12.680   4.885  1.00  0.00     0.072 A 
HETATM    2  N   UNL     1      39.748 -12.018   3.773  1.00  0.00    -0.274 N 
HETATM    3  H   UNL     1      39.355 -11.082   3.734  1.00  0.00     0.189 HD
HETATM    4  N   UNL     1      39.794 -12.736   2.634  1.00  0.00    -0.148 NA
HETATM    5  C   UNL     1      40.312 -13.883   3.045  1.00  0.00     0.199 A 
HETATM    6  C   UNL     1      40.633 -13.917   4.406  1.00  0.00     0.040 A 
HETATM    7  C   UNL     1      41.247 -15.134   5.002  1.00  0.00     0.107 A 
HETATM    8  C   UNL     1      41.303 -16.272   3.990  1.00  0.00     0.081 A 
HETATM    9  C   UNL     1      41.714 -17.546   4.485  1.00  0.00     0.100 C 
HETATM   10  N   UNL     1      42.051 -18.574   4.901  1.00  0.00    -0.191 NA
HETATM   11  C   UNL     1      40.942 -16.121   2.689  1.00  0.00     0.140 A 
HETATM   12  O   UNL     1      40.487 -14.898   2.179  1.00  0.00    -0.277 OA
ENDROOT
BRANCH   7  13
HETATM   13  C   UNL     1      42.619 -14.725   5.503  1.00  0.00    -0.027 A 
HETATM   14  C   UNL     1      43.505 -13.958   4.743  1.00  0.00     0.124 A 
HETATM   15  N   UNL     1      44.754 -13.620   5.134  1.00  0.00    -0.273 NA
HETATM   16  C   UNL     1      45.154 -14.066   6.343  1.00  0.00     0.116 A 
HETATM   17  C   UNL     1      44.362 -14.832   7.179  1.00  0.00     0.020 A 
HETATM   18  C   UNL     1      43.081 -15.167   6.751  1.00  0.00     0.011 A 
ENDBRANCH   7  13
BRANCH  11  19
HETATM   19  N   UNL     1      40.973 -17.114   1.734  1.00  0.00    -0.282 NA
HETATM   20  H   UNL     1      40.096 -17.295   1.252  1.00  0.00     0.126 HD
HETATM   21  H   UNL     1      41.423 -17.961   2.077  1.00  0.00     0.126 HD
ENDBRANCH  11  19
BRANCH   1  22
HETATM   22  C   UNL     1      40.235 -12.082   6.217  1.00  0.00    -0.007 A 
HETATM   23  C   UNL     1      41.281 -11.244   6.618  1.00  0.00     0.016 A 
HETATM   24  C   UNL     1      41.281 -10.672   7.893  1.00  0.00     0.037 A 
HETATM   25  C   UNL     1      40.246 -10.931   8.792  1.00  0.00     0.069 A 
HETATM   26  C   UNL     1      39.209 -11.778   8.407  1.00  0.00     0.037 A 
HETATM   27  C   UNL     1      39.202 -12.345   7.125  1.00  0.00     0.016 A 
BRANCH  25  28
HETATM   28  O   UNL     1      40.366 -10.296   9.996  1.00  0.00    -0.347 OA
BRANCH  28  29
HETATM   29  C   UNL     1      40.389 -11.113  11.170  1.00  0.00     0.214 C 
BRANCH  29  30
HETATM   30  C   UNL     1      41.418 -10.582  12.139  1.00  0.00    -0.034 A 
HETATM   31  C   UNL     1      42.671 -10.155  11.673  1.00  0.00     0.009 A 
HETATM   32  C   UNL     1      43.622  -9.642  12.557  1.00  0.00     0.001 A 
HETATM   33  C   UNL     1      43.330  -9.541  13.914  1.00  0.00     0.000 A 
HETATM   34  C   UNL     1      42.085  -9.947  14.390  1.00  0.00     0.001 A 
HETATM   35  C   UNL     1      41.132 -10.458  13.507  1.00  0.00     0.009 A 
ENDBRANCH  29  30
ENDBRANCH  28  29
ENDBRANCH  25  28
ENDBRANCH   1  22
TORSDOF 6
ENDMDL
