MODEL 1
REMARK VINA RESULT:      -8.7      0.000      0.000
REMARK  6 active torsions:
REMARK  status: ('A' for Active; 'I' for Inactive)
REMARK    1  A    between atoms: O_2  and  C_3 
REMARK    2  A    between atoms: C_6  and  C_7 
REMARK    3  A    between atoms: C_11  and  C_12 
REMARK       I    between atoms: C_12  and  N_13 
REMARK    4  A    between atoms: N_13  and  N_14 
REMARK       I    between atoms: N_14  and  C_15 
REMARK    5  A    between atoms: C_15  and  C_16 
REMARK    6  A    between atoms: C_16  and  C_17 
ROOT
HETATM    1  C   UNL     1      42.833 -13.698   5.275  1.00  0.00     0.288 C 
HETATM    2  N   UNL     1      43.165 -13.834   6.607  1.00  0.00    -0.262 N 
HETATM    3  O   UNL     1      42.373 -12.651   4.823  1.00  0.00    -0.264 OA
HETATM    4  H   UNL     1      43.697 -14.631   6.953  1.00  0.00     0.190 HD
ENDROOT
BRANCH   1   5
HETATM    5  C   UNL     1      43.083 -14.852   4.456  1.00  0.00     0.121 A 
HETATM    6  N   UNL     1      43.301 -14.751   3.111  1.00  0.00    -0.272 N 
HETATM    7  N   UNL     1      43.530 -15.922   2.500  1.00  0.00    -0.174 NA
HETATM    8  H   UNL     1      43.303 -13.900   2.557  1.00  0.00     0.189 HD
HETATM    9  C   UNL     1      43.490 -16.834   3.484  1.00  0.00     0.089 A 
HETATM   10  C   UNL     1      43.190 -16.203   4.725  1.00  0.00     0.071 A 
BRANCH   9  11
HETATM   11  C   UNL     1      43.732 -18.258   3.231  1.00  0.00    -0.005 A 
HETATM   12  C   UNL     1      44.402 -19.056   4.167  1.00  0.00     0.016 A 
HETATM   13  C   UNL     1      44.627 -20.413   3.912  1.00  0.00     0.037 A 
HETATM   14  C   UNL     1      44.188 -21.000   2.725  1.00  0.00     0.068 A 
HETATM   15  C   UNL     1      43.526 -20.213   1.784  1.00  0.00     0.037 A 
HETATM   16  C   UNL     1      43.304 -18.852   2.035  1.00  0.00     0.016 A 
BRANCH  14  17
HETATM   17  O   UNL     1      44.469 -22.333   2.608  1.00  0.00    -0.356 OA
HETATM   18  C   UNL     1      44.724 -23.043   3.814  1.00  0.00     0.210 C 
ENDBRANCH  14  17
ENDBRANCH   9  11
ENDBRANCH   1   5
BRANCH   2  19
HETATM   19  N   UNL     1      43.241 -12.675   7.397  1.00  0.00    -0.267 N 
HETATM   20  C   UNL     1      44.186 -12.668   8.404  1.00  0.00     0.240 C 
HETATM   21  O   UNL     1      44.784 -13.688   8.746  1.00  0.00    -0.272 OA
HETATM   22  H   UNL     1      42.864 -11.820   6.986  1.00  0.00     0.190 HD
BRANCH  20  23
HETATM   23  C   UNL     1      44.417 -11.316   9.046  1.00  0.00     0.148 C 
BRANCH  23  24
HETATM   24  C   UNL     1      43.498 -11.063  10.212  1.00  0.00     0.011 A 
HETATM   25  C   UNL     1      42.320 -10.311  10.114  1.00  0.00     0.043 A 
HETATM   26 CL   UNL     1      41.827  -9.578   8.629  1.00  0.00    -0.084 Cl
HETATM   27  C   UNL     1      41.497 -10.122  11.232  1.00  0.00     0.024 A 
HETATM   28  C   UNL     1      41.834 -10.690  12.460  1.00  0.00     0.005 A 
HETATM   29  C   UNL     1      42.993 -11.450  12.569  1.00  0.00     0.043 A 
HETATM   30  C   UNL     1      43.807 -11.631  11.453  1.00  0.00     0.124 A 
HETATM   31  F   UNL     1      44.922 -12.363  11.592  1.00  0.00    -0.205 F 
ENDBRANCH  23  24
ENDBRANCH  20  23
ENDBRANCH   2  19
TORSDOF 6
ENDMDL
MODEL 2
REMARK VINA RESULT:      -8.7      2.166      2.871
REMARK  6 active torsions:
REMARK  status: ('A' for Active; 'I' for Inactive)
REMARK    1  A    between atoms: O_2  and  C_3 
REMARK    2  A    between atoms: C_6  and  C_7 
REMARK    3  A    between atoms: C_11  and  C_12 
REMARK       I    between atoms: C_12  and  N_13 
REMARK    4  A    between atoms: N_13  and  N_14 
REMARK       I    between atoms: N_14  and  C_15 
REMARK    5  A    between atoms: C_15  and  C_16 
REMARK    6  A    between atoms: C_16  and  C_17 
ROOT
HETATM    1  C   UNL     1      44.107 -13.884   7.402  1.00  0.00     0.288 C 
HETATM    2  N   UNL     1      43.177 -12.878   7.239  1.00  0.00    -0.262 N 
HETATM    3  O   UNL     1      45.126 -13.724   8.072  1.00  0.00    -0.264 OA
HETATM    4  H   UNL     1      42.260 -13.051   6.830  1.00  0.00     0.190 HD
ENDROOT
BRANCH   1   5
HETATM    5  C   UNL     1      43.789 -15.129   6.757  1.00  0.00     0.121 A 
HETATM    6  N   UNL     1      42.498 -15.536   6.569  1.00  0.00    -0.272 N 
HETATM    7  N   UNL     1      42.379 -16.715   5.941  1.00  0.00    -0.174 NA
HETATM    8  H   UNL     1      41.656 -15.044   6.852  1.00  0.00     0.189 HD
HETATM    9  C   UNL     1      43.641 -17.091   5.678  1.00  0.00     0.089 A 
HETATM   10  C   UNL     1      44.555 -16.130   6.195  1.00  0.00     0.071 A 
BRANCH   9  11
HETATM   11  C   UNL     1      43.944 -18.330   4.957  1.00  0.00    -0.005 A 
HETATM   12  C   UNL     1      43.716 -18.440   3.579  1.00  0.00     0.016 A 
HETATM   13  C   UNL     1      44.010 -19.629   2.903  1.00  0.00     0.037 A 
HETATM   14  C   UNL     1      44.538 -20.727   3.583  1.00  0.00     0.068 A 
HETATM   15  C   UNL     1      44.763 -20.630   4.956  1.00  0.00     0.037 A 
HETATM   16  C   UNL     1      44.465 -19.442   5.635  1.00  0.00     0.016 A 
BRANCH  14  17
HETATM   17  O   UNL     1      44.782 -21.821   2.800  1.00  0.00    -0.356 OA
HETATM   18  C   UNL     1      44.080 -21.896   1.566  1.00  0.00     0.210 C 
ENDBRANCH  14  17
ENDBRANCH   9  11
ENDBRANCH   1   5
BRANCH   2  19
HETATM   19  N   UNL     1      43.258 -11.753   8.076  1.00  0.00    -0.267 N 
HETATM   20  C   UNL     1      42.193 -10.875   8.044  1.00  0.00     0.240 C 
HETATM   21  O   UNL     1      41.317 -10.941   7.181  1.00  0.00    -0.272 OA
HETATM   22  H   UNL     1      43.893 -11.824   8.872  1.00  0.00     0.190 HD
BRANCH  20  23
HETATM   23  C   UNL     1      42.196  -9.835   9.145  1.00  0.00     0.148 C 
BRANCH  23  24
HETATM   24  C   UNL     1      41.826 -10.409  10.487  1.00  0.00     0.011 A 
HETATM   25  C   UNL     1      42.769 -10.739  11.469  1.00  0.00     0.043 A 
HETATM   26 CL   UNL     1      44.464 -10.532  11.211  1.00  0.00    -0.084 Cl
HETATM   27  C   UNL     1      42.362 -11.258  12.706  1.00  0.00     0.024 A 
HETATM   28  C   UNL     1      41.007 -11.445  12.981  1.00  0.00     0.005 A 
HETATM   29  C   UNL     1      40.060 -11.110  12.020  1.00  0.00     0.043 A 
HETATM   30  C   UNL     1      40.473 -10.598  10.792  1.00  0.00     0.124 A 
HETATM   31  F   UNL     1      39.536 -10.292   9.884  1.00  0.00    -0.205 F 
ENDBRANCH  23  24
ENDBRANCH  20  23
ENDBRANCH   2  19
TORSDOF 6
ENDMDL
MODEL 3
REMARK VINA RESULT:      -8.3      1.757      2.261
REMARK  6 active torsions:
REMARK  status: ('A' for Active; 'I' for Inactive)
REMARK    1  A    between atoms: O_2  and  C_3 
REMARK    2  A    between atoms: C_6  and  C_7 
REMARK    3  A    between atoms: C_11  and  C_12 
REMARK       I    between atoms: C_12  and  N_13 
REMARK    4  A    between atoms: N_13  and  N_14 
REMARK       I    between atoms: N_14  and  C_15 
REMARK    5  A    between atoms: C_15  and  C_16 
REMARK    6  A    between atoms: C_16  and  C_17 
ROOT
HETATM    1  C   UNL     1      41.608 -11.962   5.587  1.00  0.00     0.288 C 
HETATM    2  N   UNL     1      41.469 -12.332   6.908  1.00  0.00    -0.262 N 
HETATM    3  O   UNL     1      41.319 -10.833   5.194  1.00  0.00    -0.264 OA
HETATM    4  H   UNL     1      41.858 -13.200   7.270  1.00  0.00     0.190 HD
ENDROOT
BRANCH   1   5
HETATM    5  C   UNL     1      42.132 -12.976   4.714  1.00  0.00     0.121 A 
HETATM    6  N   UNL     1      42.711 -12.669   3.515  1.00  0.00    -0.272 N 
HETATM    7  N   UNL     1      43.158 -13.733   2.831  1.00  0.00    -0.174 NA
HETATM    8  H   UNL     1      42.827 -11.744   3.113  1.00  0.00     0.189 HD
HETATM    9  C   UNL     1      42.889 -14.784   3.621  1.00  0.00     0.089 A 
HETATM   10  C   UNL     1      42.225 -14.351   4.804  1.00  0.00     0.071 A 
BRANCH   9  11
HETATM   11  C   UNL     1      43.261 -16.151   3.244  1.00  0.00    -0.005 A 
HETATM   12  C   UNL     1      43.176 -17.204   4.164  1.00  0.00     0.016 A 
HETATM   13  C   UNL     1      43.535 -18.504   3.790  1.00  0.00     0.037 A 
HETATM   14  C   UNL     1      43.980 -18.780   2.496  1.00  0.00     0.068 A 
HETATM   15  C   UNL     1      44.074 -17.737   1.575  1.00  0.00     0.037 A 
HETATM   16  C   UNL     1      43.720 -16.434   1.949  1.00  0.00     0.016 A 
BRANCH  14  17
HETATM   17  O   UNL     1      44.292 -20.091   2.266  1.00  0.00    -0.356 OA
HETATM   18  C   UNL     1      44.760 -20.843   3.379  1.00  0.00     0.210 C 
ENDBRANCH  14  17
ENDBRANCH   9  11
ENDBRANCH   1   5
BRANCH   2  19
HETATM   19  N   UNL     1      41.261 -11.324   7.864  1.00  0.00    -0.267 N 
HETATM   20  C   UNL     1      42.379 -10.844   8.516  1.00  0.00     0.240 C 
HETATM   21  O   UNL     1      43.473 -11.404   8.438  1.00  0.00    -0.272 OA
HETATM   22  H   UNL     1      40.398 -10.786   7.778  1.00  0.00     0.190 HD
BRANCH  20  23
HETATM   23  C   UNL     1      42.148  -9.587   9.330  1.00  0.00     0.148 C 
BRANCH  23  24
HETATM   24  C   UNL     1      42.082  -9.858  10.809  1.00  0.00     0.011 A 
HETATM   25  C   UNL     1      40.882 -10.071  11.500  1.00  0.00     0.043 A 
HETATM   26 CL   UNL     1      39.350 -10.015  10.703  1.00  0.00    -0.084 Cl
HETATM   27  C   UNL     1      40.885 -10.333  12.877  1.00  0.00     0.024 A 
HETATM   28  C   UNL     1      42.088 -10.396  13.580  1.00  0.00     0.005 A 
HETATM   29  C   UNL     1      43.288 -10.200  12.905  1.00  0.00     0.043 A 
HETATM   30  C   UNL     1      43.276  -9.937  11.537  1.00  0.00     0.124 A 
HETATM   31  F   UNL     1      44.448  -9.746  10.916  1.00  0.00    -0.205 F 
ENDBRANCH  23  24
ENDBRANCH  20  23
ENDBRANCH   2  19
TORSDOF 6
ENDMDL
MODEL 4
REMARK VINA RESULT:      -8.3      3.750     10.594
REMARK  6 active torsions:
REMARK  status: ('A' for Active; 'I' for Inactive)
REMARK    1  A    between atoms: O_2  and  C_3 
REMARK    2  A    between atoms: C_6  and  C_7 
REMARK    3  A    between atoms: C_11  and  C_12 
REMARK       I    between atoms: C_12  and  N_13 
REMARK    4  A    between atoms: N_13  and  N_14 
REMARK       I    between atoms: N_14  and  C_15 
REMARK    5  A    between atoms: C_15  and  C_16 
REMARK    6  A    between atoms: C_16  and  C_17 
ROOT
HETATM    1  C   UNL     1      44.751 -13.362   8.098  1.00  0.00     0.288 C 
HETATM    2  N   UNL     1      44.059 -14.532   7.864  1.00  0.00    -0.262 N 
HETATM    3  O   UNL     1      45.821 -13.118   7.541  1.00  0.00    -0.264 OA
HETATM    4  H   UNL     1      43.102 -14.667   8.187  1.00  0.00     0.190 HD
ENDROOT
BRANCH   1   5
HETATM    5  C   UNL     1      44.126 -12.448   9.014  1.00  0.00     0.121 A 
HETATM    6  N   UNL     1      43.281 -11.463   8.587  1.00  0.00    -0.272 N 
HETATM    7  N   UNL     1      42.776 -10.706   9.573  1.00  0.00    -0.174 NA
HETATM    8  H   UNL     1      43.013 -11.262   7.628  1.00  0.00     0.189 HD
HETATM    9  C   UNL     1      43.286 -11.228  10.699  1.00  0.00     0.089 A 
HETATM   10  C   UNL     1      44.157 -12.310  10.387  1.00  0.00     0.071 A 
BRANCH   9  11
HETATM   11  C   UNL     1      42.943 -10.698  12.022  1.00  0.00    -0.005 A 
HETATM   12  C   UNL     1      41.782 -11.110  12.689  1.00  0.00     0.016 A 
HETATM   13  C   UNL     1      41.467 -10.595  13.951  1.00  0.00     0.037 A 
HETATM   14  C   UNL     1      42.300  -9.665  14.573  1.00  0.00     0.068 A 
HETATM   15  C   UNL     1      43.455  -9.243  13.915  1.00  0.00     0.037 A 
HETATM   16  C   UNL     1      43.770  -9.754  12.649  1.00  0.00     0.016 A 
BRANCH  14  17
HETATM   17  O   UNL     1      41.875  -9.250  15.804  1.00  0.00    -0.356 OA
HETATM   18  C   UNL     1      40.709  -8.436  15.839  1.00  0.00     0.210 C 
ENDBRANCH  14  17
ENDBRANCH   9  11
ENDBRANCH   1   5
BRANCH   2  19
HETATM   19  N   UNL     1      44.438 -15.324   6.768  1.00  0.00    -0.267 N 
HETATM   20  C   UNL     1      43.447 -16.076   6.170  1.00  0.00     0.240 C 
HETATM   21  O   UNL     1      42.340 -16.228   6.686  1.00  0.00    -0.272 OA
HETATM   22  H   UNL     1      45.292 -15.047   6.281  1.00  0.00     0.190 HD
BRANCH  20  23
HETATM   23  C   UNL     1      43.835 -16.696   4.843  1.00  0.00     0.148 C 
BRANCH  23  24
HETATM   24  C   UNL     1      42.847 -16.391   3.749  1.00  0.00     0.011 A 
HETATM   25  C   UNL     1      42.781 -15.154   3.094  1.00  0.00     0.043 A 
HETATM   26 CL   UNL     1      43.831 -13.846   3.510  1.00  0.00    -0.084 Cl
HETATM   27  C   UNL     1      41.848 -14.934   2.073  1.00  0.00     0.024 A 
HETATM   28  C   UNL     1      40.974 -15.949   1.685  1.00  0.00     0.005 A 
HETATM   29  C   UNL     1      41.037 -17.186   2.317  1.00  0.00     0.043 A 
HETATM   30  C   UNL     1      41.966 -17.396   3.334  1.00  0.00     0.124 A 
HETATM   31  F   UNL     1      41.996 -18.597   3.929  1.00  0.00    -0.205 F 
ENDBRANCH  23  24
ENDBRANCH  20  23
ENDBRANCH   2  19
TORSDOF 6
ENDMDL
MODEL 5
REMARK VINA RESULT:      -8.3      1.922      2.327
REMARK  6 active torsions:
REMARK  status: ('A' for Active; 'I' for Inactive)
REMARK    1  A    between atoms: O_2  and  C_3 
REMARK    2  A    between atoms: C_6  and  C_7 
REMARK    3  A    between atoms: C_11  and  C_12 
REMARK       I    between atoms: C_12  and  N_13 
REMARK    4  A    between atoms: N_13  and  N_14 
REMARK       I    between atoms: N_14  and  C_15 
REMARK    5  A    between atoms: C_15  and  C_16 
REMARK    6  A    between atoms: C_16  and  C_17 
ROOT
HETATM    1  C   UNL     1      41.924 -12.890   5.278  1.00  0.00     0.288 C 
HETATM    2  N   UNL     1      41.821 -12.780   6.649  1.00  0.00    -0.262 N 
HETATM    3  O   UNL     1      42.004 -11.901   4.550  1.00  0.00    -0.264 OA
HETATM    4  H   UNL     1      41.922 -13.585   7.264  1.00  0.00     0.190 HD
ENDROOT
BRANCH   1   5
HETATM    5  C   UNL     1      41.952 -14.233   4.767  1.00  0.00     0.121 A 
HETATM    6  N   UNL     1      40.861 -14.804   4.175  1.00  0.00    -0.272 N 
HETATM    7  N   UNL     1      41.062 -16.059   3.744  1.00  0.00    -0.174 NA
HETATM    8  H   UNL     1      39.949 -14.379   4.039  1.00  0.00     0.189 HD
HETATM    9  C   UNL     1      42.346 -16.319   4.038  1.00  0.00     0.089 A 
HETATM   10  C   UNL     1      42.932 -15.204   4.702  1.00  0.00     0.071 A 
BRANCH   9  11
HETATM   11  C   UNL     1      42.976 -17.596   3.691  1.00  0.00    -0.005 A 
HETATM   12  C   UNL     1      42.784 -18.179   2.431  1.00  0.00     0.016 A 
HETATM   13  C   UNL     1      43.391 -19.399   2.113  1.00  0.00     0.037 A 
HETATM   14  C   UNL     1      44.201 -20.058   3.039  1.00  0.00     0.068 A 
HETATM   15  C   UNL     1      44.392 -19.490   4.298  1.00  0.00     0.037 A 
HETATM   16  C   UNL     1      43.781 -18.270   4.620  1.00  0.00     0.016 A 
BRANCH  14  17
HETATM   17  O   UNL     1      44.733 -21.237   2.596  1.00  0.00    -0.356 OA
HETATM   18  C   UNL     1      44.031 -21.907   1.556  1.00  0.00     0.210 C 
ENDBRANCH  14  17
ENDBRANCH   9  11
ENDBRANCH   1   5
BRANCH   2  19
HETATM   19  N   UNL     1      42.095 -11.536   7.240  1.00  0.00    -0.267 N 
HETATM   20  C   UNL     1      41.093 -10.976   8.007  1.00  0.00     0.240 C 
HETATM   21  O   UNL     1      39.945 -11.420   8.007  1.00  0.00    -0.272 OA
HETATM   22  H   UNL     1      43.080 -11.294   7.355  1.00  0.00     0.190 HD
BRANCH  20  23
HETATM   23  C   UNL     1      41.520  -9.783   8.836  1.00  0.00     0.148 C 
BRANCH  23  24
HETATM   24  C   UNL     1      41.902 -10.161  10.243  1.00  0.00     0.011 A 
HETATM   25  C   UNL     1      40.981 -10.239  11.296  1.00  0.00     0.043 A 
HETATM   26 CL   UNL     1      39.306  -9.879  11.070  1.00  0.00    -0.084 Cl
HETATM   27  C   UNL     1      41.395 -10.609  12.582  1.00  0.00     0.024 A 
HETATM   28  C   UNL     1      42.732 -10.918  12.832  1.00  0.00     0.005 A 
HETATM   29  C   UNL     1      43.655 -10.857  11.793  1.00  0.00     0.043 A 
HETATM   30  C   UNL     1      43.236 -10.484  10.518  1.00  0.00     0.124 A 
HETATM   31  F   UNL     1      44.151 -10.428   9.540  1.00  0.00    -0.205 F 
ENDBRANCH  23  24
ENDBRANCH  20  23
ENDBRANCH   2  19
TORSDOF 6
ENDMDL
MODEL 6
REMARK VINA RESULT:      -8.1      2.260      2.745
REMARK  6 active torsions:
REMARK  status: ('A' for Active; 'I' for Inactive)
REMARK    1  A    between atoms: O_2  and  C_3 
REMARK    2  A    between atoms: C_6  and  C_7 
REMARK    3  A    between atoms: C_11  and  C_12 
REMARK       I    between atoms: C_12  and  N_13 
REMARK    4  A    between atoms: N_13  and  N_14 
REMARK       I    between atoms: N_14  and  C_15 
REMARK    5  A    between atoms: C_15  and  C_16 
REMARK    6  A    between atoms: C_16  and  C_17 
ROOT
HETATM    1  C   UNL     1      41.779 -12.920   5.231  1.00  0.00     0.288 C 
HETATM    2  N   UNL     1      41.477 -12.833   6.574  1.00  0.00    -0.262 N 
HETATM    3  O   UNL     1      41.999 -11.920   4.549  1.00  0.00    -0.264 OA
HETATM    4  H   UNL     1      41.459 -13.654   7.177  1.00  0.00     0.190 HD
ENDROOT
BRANCH   1   5
HETATM    5  C   UNL     1      41.839 -14.253   4.697  1.00  0.00     0.121 A 
HETATM    6  N   UNL     1      40.793 -14.805   4.013  1.00  0.00    -0.272 N 
HETATM    7  N   UNL     1      41.019 -16.052   3.573  1.00  0.00    -0.174 NA
HETATM    8  H   UNL     1      39.895 -14.372   3.819  1.00  0.00     0.189 HD
HETATM    9  C   UNL     1      42.277 -16.325   3.956  1.00  0.00     0.089 A 
HETATM   10  C   UNL     1      42.817 -15.227   4.684  1.00  0.00     0.071 A 
BRANCH   9  11
HETATM   11  C   UNL     1      42.925 -17.599   3.630  1.00  0.00    -0.005 A 
HETATM   12  C   UNL     1      42.703 -18.230   2.399  1.00  0.00     0.016 A 
HETATM   13  C   UNL     1      43.328 -19.446   2.101  1.00  0.00     0.037 A 
HETATM   14  C   UNL     1      44.185 -20.054   3.019  1.00  0.00     0.068 A 
HETATM   15  C   UNL     1      44.407 -19.437   4.250  1.00  0.00     0.037 A 
HETATM   16  C   UNL     1      43.779 -18.221   4.552  1.00  0.00     0.016 A 
BRANCH  14  17
HETATM   17  O   UNL     1      44.730 -21.234   2.598  1.00  0.00    -0.356 OA
HETATM   18  C   UNL     1      44.040 -21.926   1.564  1.00  0.00     0.210 C 
ENDBRANCH  14  17
ENDBRANCH   9  11
ENDBRANCH   1   5
BRANCH   2  19
HETATM   19  N   UNL     1      41.700 -11.612   7.231  1.00  0.00    -0.267 N 
HETATM   20  C   UNL     1      40.648 -11.095   7.959  1.00  0.00     0.240 C 
HETATM   21  O   UNL     1      39.507 -11.549   7.872  1.00  0.00    -0.272 OA
HETATM   22  H   UNL     1      42.674 -11.366   7.414  1.00  0.00     0.190 HD
BRANCH  20  23
HETATM   23  C   UNL     1      41.011  -9.932   8.860  1.00  0.00     0.148 C 
BRANCH  23  24
HETATM   24  C   UNL     1      41.230 -10.352  10.289  1.00  0.00     0.011 A 
HETATM   25  C   UNL     1      42.482 -10.717  10.801  1.00  0.00     0.043 A 
HETATM   26 CL   UNL     1      43.899 -10.738   9.813  1.00  0.00    -0.084 Cl
HETATM   27  C   UNL     1      42.625 -11.086  12.145  1.00  0.00     0.024 A 
HETATM   28  C   UNL     1      41.522 -11.086  12.998  1.00  0.00     0.005 A 
HETATM   29  C   UNL     1      40.275 -10.713  12.507  1.00  0.00     0.043 A 
HETATM   30  C   UNL     1      40.141 -10.351  11.169  1.00  0.00     0.124 A 
HETATM   31  F   UNL     1      38.925 -10.005  10.723  1.00  0.00    -0.205 F 
ENDBRANCH  23  24
ENDBRANCH  20  23
ENDBRANCH   2  19
TORSDOF 6
ENDMDL
MODEL 7
REMARK VINA RESULT:      -8.1      1.983      2.514
REMARK  6 active torsions:
REMARK  status: ('A' for Active; 'I' for Inactive)
REMARK    1  A    between atoms: O_2  and  C_3 
REMARK    2  A    between atoms: C_6  and  C_7 
REMARK    3  A    between atoms: C_11  and  C_12 
REMARK       I    between atoms: C_12  and  N_13 
REMARK    4  A    between atoms: N_13  and  N_14 
REMARK       I    between atoms: N_14  and  C_15 
REMARK    5  A    between atoms: C_15  and  C_16 
REMARK    6  A    between atoms: C_16  and  C_17 
ROOT
HETATM    1  C   UNL     1      41.696 -12.077   5.418  1.00  0.00     0.288 C 
HETATM    2  N   UNL     1      41.519 -12.484   6.724  1.00  0.00    -0.262 N 
HETATM    3  O   UNL     1      41.485 -10.918   5.064  1.00  0.00    -0.264 OA
HETATM    4  H   UNL     1      41.847 -13.388   7.057  1.00  0.00     0.190 HD
ENDROOT
BRANCH   1   5
HETATM    5  C   UNL     1      42.163 -13.092   4.513  1.00  0.00     0.121 A 
HETATM    6  N   UNL     1      42.744 -12.781   3.317  1.00  0.00    -0.272 N 
HETATM    7  N   UNL     1      43.133 -13.846   2.600  1.00  0.00    -0.174 NA
HETATM    8  H   UNL     1      42.900 -11.852   2.938  1.00  0.00     0.189 HD
HETATM    9  C   UNL     1      42.822 -14.904   3.366  1.00  0.00     0.089 A 
HETATM   10  C   UNL     1      42.191 -14.471   4.566  1.00  0.00     0.071 A 
BRANCH   9  11
HETATM   11  C   UNL     1      43.124 -16.277   2.949  1.00  0.00    -0.005 A 
HETATM   12  C   UNL     1      43.137 -17.328   3.874  1.00  0.00     0.016 A 
HETATM   13  C   UNL     1      43.428 -18.633   3.462  1.00  0.00     0.037 A 
HETATM   14  C   UNL     1      43.708 -18.916   2.125  1.00  0.00     0.068 A 
HETATM   15  C   UNL     1      43.705 -17.875   1.197  1.00  0.00     0.037 A 
HETATM   16  C   UNL     1      43.418 -16.566   1.608  1.00  0.00     0.016 A 
BRANCH  14  17
HETATM   17  O   UNL     1      43.970 -20.232   1.861  1.00  0.00    -0.356 OA
HETATM   18  C   UNL     1      44.591 -20.982   2.897  1.00  0.00     0.210 C 
ENDBRANCH  14  17
ENDBRANCH   9  11
ENDBRANCH   1   5
BRANCH   2  19
HETATM   19  N   UNL     1      41.367 -11.499   7.714  1.00  0.00    -0.267 N 
HETATM   20  C   UNL     1      42.499 -11.147   8.421  1.00  0.00     0.240 C 
HETATM   21  O   UNL     1      43.541 -11.799   8.354  1.00  0.00    -0.272 OA
HETATM   22  H   UNL     1      40.558 -10.884   7.622  1.00  0.00     0.190 HD
BRANCH  20  23
HETATM   23  C   UNL     1      42.350  -9.907   9.279  1.00  0.00     0.148 C 
BRANCH  23  24
HETATM   24  C   UNL     1      42.072 -10.231  10.722  1.00  0.00     0.011 A 
HETATM   25  C   UNL     1      43.078 -10.528  11.652  1.00  0.00     0.043 A 
HETATM   26 CL   UNL     1      44.747 -10.571  11.206  1.00  0.00    -0.084 Cl
HETATM   27  C   UNL     1      42.758 -10.808  12.987  1.00  0.00     0.024 A 
HETATM   28  C   UNL     1      41.431 -10.785  13.414  1.00  0.00     0.005 A 
HETATM   29  C   UNL     1      40.423 -10.479  12.506  1.00  0.00     0.043 A 
HETATM   30  C   UNL     1      40.749 -10.205  11.180  1.00  0.00     0.124 A 
HETATM   31  F   UNL     1      39.755  -9.921  10.327  1.00  0.00    -0.205 F 
ENDBRANCH  23  24
ENDBRANCH  20  23
ENDBRANCH   2  19
TORSDOF 6
ENDMDL
MODEL 8
REMARK VINA RESULT:      -8.0      4.061     10.561
REMARK  6 active torsions:
REMARK  status: ('A' for Active; 'I' for Inactive)
REMARK    1  A    between atoms: O_2  and  C_3 
REMARK    2  A    between atoms: C_6  and  C_7 
REMARK    3  A    between atoms: C_11  and  C_12 
REMARK       I    between atoms: C_12  and  N_13 
REMARK    4  A    between atoms: N_13  and  N_14 
REMARK       I    between atoms: N_14  and  C_15 
REMARK    5  A    between atoms: C_15  and  C_16 
REMARK    6  A    between atoms: C_16  and  C_17 
ROOT
HETATM    1  C   UNL     1      45.117 -13.105   7.830  1.00  0.00     0.288 C 
HETATM    2  N   UNL     1      44.063 -13.899   7.432  1.00  0.00    -0.262 N 
HETATM    3  O   UNL     1      46.169 -13.054   7.195  1.00  0.00    -0.264 OA
HETATM    4  H   UNL     1      43.139 -13.822   7.852  1.00  0.00     0.190 HD
ENDROOT
BRANCH   1   5
HETATM    5  C   UNL     1      44.891 -12.330   9.020  1.00  0.00     0.121 A 
HETATM    6  N   UNL     1      45.821 -11.451   9.497  1.00  0.00    -0.272 N 
HETATM    7  N   UNL     1      45.446 -10.802  10.609  1.00  0.00    -0.174 NA
HETATM    8  H   UNL     1      46.735 -11.255   9.100  1.00  0.00     0.189 HD
HETATM    9  C   UNL     1      44.206 -11.249  10.863  1.00  0.00     0.089 A 
HETATM   10  C   UNL     1      43.831 -12.227   9.898  1.00  0.00     0.071 A 
BRANCH   9  11
HETATM   11  C   UNL     1      43.419 -10.748  11.994  1.00  0.00    -0.005 A 
HETATM   12  C   UNL     1      43.841  -9.636  12.734  1.00  0.00     0.016 A 
HETATM   13  C   UNL     1      43.080  -9.170  13.811  1.00  0.00     0.037 A 
HETATM   14  C   UNL     1      41.887  -9.797  14.170  1.00  0.00     0.068 A 
HETATM   15  C   UNL     1      41.461 -10.909  13.444  1.00  0.00     0.037 A 
HETATM   16  C   UNL     1      42.224 -11.381  12.367  1.00  0.00     0.016 A 
BRANCH  14  17
HETATM   17  O   UNL     1      41.244  -9.236  15.237  1.00  0.00    -0.356 OA
HETATM   18  C   UNL     1      42.045  -8.895  16.362  1.00  0.00     0.210 C 
ENDBRANCH  14  17
ENDBRANCH   9  11
ENDBRANCH   1   5
BRANCH   2  19
HETATM   19  N   UNL     1      44.087 -14.439   6.135  1.00  0.00    -0.267 N 
HETATM   20  C   UNL     1      43.321 -13.801   5.180  1.00  0.00     0.240 C 
HETATM   21  O   UNL     1      42.489 -12.943   5.476  1.00  0.00    -0.272 OA
HETATM   22  H   UNL     1      44.893 -15.020   5.900  1.00  0.00     0.190 HD
BRANCH  20  23
HETATM   23  C   UNL     1      43.585 -14.244   3.756  1.00  0.00     0.148 C 
BRANCH  23  24
HETATM   24  C   UNL     1      42.475 -15.095   3.199  1.00  0.00     0.011 A 
HETATM   25  C   UNL     1      42.432 -16.489   3.334  1.00  0.00     0.043 A 
HETATM   26 CL   UNL     1      43.681 -17.365   4.144  1.00  0.00    -0.084 Cl
HETATM   27  C   UNL     1      41.365 -17.227   2.805  1.00  0.00     0.024 A 
HETATM   28  C   UNL     1      40.320 -16.581   2.142  1.00  0.00     0.005 A 
HETATM   29  C   UNL     1      40.343 -15.197   2.012  1.00  0.00     0.043 A 
HETATM   30  C   UNL     1      41.410 -14.471   2.539  1.00  0.00     0.124 A 
HETATM   31  F   UNL     1      41.406 -13.139   2.390  1.00  0.00    -0.205 F 
ENDBRANCH  23  24
ENDBRANCH  20  23
ENDBRANCH   2  19
TORSDOF 6
ENDMDL
MODEL 9
REMARK VINA RESULT:      -7.9      3.775     10.075
REMARK  6 active torsions:
REMARK  status: ('A' for Active; 'I' for Inactive)
REMARK    1  A    between atoms: O_2  and  C_3 
REMARK    2  A    between atoms: C_6  and  C_7 
REMARK    3  A    between atoms: C_11  and  C_12 
REMARK       I    between atoms: C_12  and  N_13 
REMARK    4  A    between atoms: N_13  and  N_14 
REMARK       I    between atoms: N_14  and  C_15 
REMARK    5  A    between atoms: C_15  and  C_16 
REMARK    6  A    between atoms: C_16  and  C_17 
ROOT
HETATM    1  C   UNL     1      41.143 -11.885   5.159  1.00  0.00     0.288 C 
HETATM    2  N   UNL     1      42.113 -12.002   4.186  1.00  0.00    -0.262 N 
HETATM    3  O   UNL     1      40.041 -12.420   5.046  1.00  0.00    -0.264 OA
HETATM    4  H   UNL     1      43.075 -11.707   4.343  1.00  0.00     0.190 HD
ENDROOT
BRANCH   1   5
HETATM    5  C   UNL     1      41.518 -11.119   6.316  1.00  0.00     0.121 A 
HETATM    6  N   UNL     1      41.509  -9.753   6.311  1.00  0.00    -0.272 N 
HETATM    7  N   UNL     1      41.876  -9.196   7.475  1.00  0.00    -0.174 NA
HETATM    8  H   UNL     1      41.260  -9.147   5.535  1.00  0.00     0.189 HD
HETATM    9  C   UNL     1      42.111 -10.235   8.292  1.00  0.00     0.089 A 
HETATM   10  C   UNL     1      41.918 -11.461   7.592  1.00  0.00     0.071 A 
BRANCH   9  11
HETATM   11  C   UNL     1      42.506 -10.047   9.691  1.00  0.00    -0.005 A 
HETATM   12  C   UNL     1      41.724  -9.283  10.567  1.00  0.00     0.016 A 
HETATM   13  C   UNL     1      42.114  -9.111  11.900  1.00  0.00     0.037 A 
HETATM   14  C   UNL     1      43.284  -9.696  12.385  1.00  0.00     0.068 A 
HETATM   15  C   UNL     1      44.073 -10.453  11.518  1.00  0.00     0.037 A 
HETATM   16  C   UNL     1      43.686 -10.623  10.182  1.00  0.00     0.016 A 
BRANCH  14  17
HETATM   17  O   UNL     1      43.542  -9.451  13.704  1.00  0.00    -0.356 OA
HETATM   18  C   UNL     1      42.515  -9.782  14.631  1.00  0.00     0.210 C 
ENDBRANCH  14  17
ENDBRANCH   9  11
ENDBRANCH   1   5
BRANCH   2  19
HETATM   19  N   UNL     1      41.940 -12.972   3.185  1.00  0.00    -0.267 N 
HETATM   20  C   UNL     1      42.975 -13.867   3.000  1.00  0.00     0.240 C 
HETATM   21  O   UNL     1      44.080 -13.705   3.518  1.00  0.00    -0.272 OA
HETATM   22  H   UNL     1      40.979 -13.175   2.910  1.00  0.00     0.190 HD
BRANCH  20  23
HETATM   23  C   UNL     1      42.641 -15.048   2.112  1.00  0.00     0.148 C 
BRANCH  23  24
HETATM   24  C   UNL     1      42.850 -16.369   2.801  1.00  0.00     0.011 A 
HETATM   25  C   UNL     1      42.090 -16.794   3.899  1.00  0.00     0.043 A 
HETATM   26 CL   UNL     1      40.843 -15.809   4.579  1.00  0.00    -0.084 Cl
HETATM   27  C   UNL     1      42.322 -18.042   4.491  1.00  0.00     0.024 A 
HETATM   28  C   UNL     1      43.310 -18.888   3.987  1.00  0.00     0.005 A 
HETATM   29  C   UNL     1      44.064 -18.486   2.890  1.00  0.00     0.043 A 
HETATM   30  C   UNL     1      43.829 -17.242   2.310  1.00  0.00     0.124 A 
HETATM   31  F   UNL     1      44.577 -16.879   1.259  1.00  0.00    -0.205 F 
ENDBRANCH  23  24
ENDBRANCH  20  23
ENDBRANCH   2  19
TORSDOF 6
ENDMDL
MODEL 10
REMARK VINA RESULT:      -7.8      3.721     10.566
REMARK  6 active torsions:
REMARK  status: ('A' for Active; 'I' for Inactive)
REMARK    1  A    between atoms: O_2  and  C_3 
REMARK    2  A    between atoms: C_6  and  C_7 
REMARK    3  A    between atoms: C_11  and  C_12 
REMARK       I    between atoms: C_12  and  N_13 
REMARK    4  A    between atoms: N_13  and  N_14 
REMARK       I    between atoms: N_14  and  C_15 
REMARK    5  A    between atoms: C_15  and  C_16 
REMARK    6  A    between atoms: C_16  and  C_17 
ROOT
HETATM    1  C   UNL     1      44.415 -14.054   6.715  1.00  0.00     0.288 C 
HETATM    2  N   UNL     1      44.154 -15.358   7.082  1.00  0.00    -0.262 N 
HETATM    3  O   UNL     1      44.552 -13.726   5.538  1.00  0.00    -0.264 OA
HETATM    4  H   UNL     1      43.876 -15.607   8.030  1.00  0.00     0.190 HD
ENDROOT
BRANCH   1   5
HETATM    5  C   UNL     1      44.493 -13.112   7.798  1.00  0.00     0.121 A 
HETATM    6  N   UNL     1      45.690 -12.669   8.286  1.00  0.00    -0.272 N 
HETATM    7  N   UNL     1      45.582 -11.785   9.288  1.00  0.00    -0.174 NA
HETATM    8  H   UNL     1      46.616 -12.941   7.969  1.00  0.00     0.189 HD
HETATM    9  C   UNL     1      44.261 -11.614   9.452  1.00  0.00     0.089 A 
HETATM   10  C   UNL     1      43.544 -12.448   8.549  1.00  0.00     0.071 A 
BRANCH   9  11
HETATM   11  C   UNL     1      43.719 -10.681  10.444  1.00  0.00    -0.005 A 
HETATM   12  C   UNL     1      44.207 -10.655  11.757  1.00  0.00     0.016 A 
HETATM   13  C   UNL     1      43.680  -9.760  12.694  1.00  0.00     0.037 A 
HETATM   14  C   UNL     1      42.661  -8.874  12.342  1.00  0.00     0.068 A 
HETATM   15  C   UNL     1      42.163  -8.896  11.040  1.00  0.00     0.037 A 
HETATM   16  C   UNL     1      42.687  -9.795  10.101  1.00  0.00     0.016 A 
BRANCH  14  17
HETATM   17  O   UNL     1      42.243  -8.053  13.352  1.00  0.00    -0.356 OA
HETATM   18  C   UNL     1      42.163  -8.625  14.652  1.00  0.00     0.210 C 
ENDBRANCH  14  17
ENDBRANCH   9  11
ENDBRANCH   1   5
BRANCH   2  19
HETATM   19  N   UNL     1      43.761 -16.266   6.085  1.00  0.00    -0.267 N 
HETATM   20  C   UNL     1      42.801 -17.195   6.431  1.00  0.00     0.240 C 
HETATM   21  O   UNL     1      42.457 -17.375   7.599  1.00  0.00    -0.272 OA
HETATM   22  H   UNL     1      43.935 -15.983   5.120  1.00  0.00     0.190 HD
BRANCH  20  23
HETATM   23  C   UNL     1      42.218 -17.968   5.266  1.00  0.00     0.148 C 
BRANCH  23  24
HETATM   24  C   UNL     1      43.249 -18.792   4.542  1.00  0.00     0.011 A 
HETATM   25  C   UNL     1      43.947 -19.850   5.141  1.00  0.00     0.043 A 
HETATM   26 CL   UNL     1      43.695 -20.288   6.793  1.00  0.00    -0.084 Cl
HETATM   27  C   UNL     1      44.886 -20.590   4.412  1.00  0.00     0.024 A 
HETATM   28  C   UNL     1      45.133 -20.292   3.072  1.00  0.00     0.005 A 
HETATM   29  C   UNL     1      44.439 -19.253   2.461  1.00  0.00     0.043 A 
HETATM   30  C   UNL     1      43.509 -18.520   3.194  1.00  0.00     0.124 A 
HETATM   31  F   UNL     1      42.861 -17.520   2.579  1.00  0.00    -0.205 F 
ENDBRANCH  23  24
ENDBRANCH  20  23
ENDBRANCH   2  19
TORSDOF 6
ENDMDL
