MODEL 1
REMARK VINA RESULT:      -9.0      0.000      0.000
REMARK  2 active torsions:
REMARK  status: ('A' for Active; 'I' for Inactive)
REMARK    1  A    between atoms: C_2  and  N_3 
REMARK    2  A    between atoms: N_3  and  C_4 
ROOT
HETATM    1  C   UNL     1      41.372 -16.948   4.192  1.00  0.00     0.143 A 
HETATM    2  N   UNL     1      41.042 -16.037   5.142  1.00  0.00    -0.223 NA
HETATM    3  C   UNL     1      41.780 -15.930   6.251  1.00  0.00     0.236 A 
HETATM    4  N   UNL     1      42.858 -16.638   6.571  1.00  0.00    -0.234 NA
HETATM    5  C   UNL     1      43.176 -17.537   5.628  1.00  0.00     0.114 A 
HETATM    6  C   UNL     1      42.516 -17.762   4.423  1.00  0.00     0.053 A 
HETATM    7  S   UNL     1      44.520 -18.555   5.862  1.00  0.00    -0.073 SA
HETATM    8  C   UNL     1      44.258 -19.340   4.384  1.00  0.00    -0.008 A 
HETATM    9  C   UNL     1      43.183 -18.821   3.679  1.00  0.00    -0.028 A 
HETATM   10  C   UNL     1      42.794 -19.394   2.343  1.00  0.00     0.041 C 
HETATM   11  C   UNL     1      43.858 -20.339   1.760  1.00  0.00     0.005 C 
HETATM   12  C   UNL     1      44.456 -21.265   2.823  1.00  0.00     0.005 C 
HETATM   13  C   UNL     1      45.145 -20.459   3.930  1.00  0.00     0.047 C 
ENDROOT
BRANCH   1  14
HETATM   14  N   UNL     1      40.610 -17.029   3.017  1.00  0.00    -0.340 N 
HETATM   15  H   UNL     1      39.948 -17.785   3.002  1.00  0.00     0.167 HD
BRANCH  14  16
HETATM   16  C   UNL     1      40.630 -16.267   1.835  1.00  0.00     0.036 A 
HETATM   17  C   UNL     1      41.406 -16.595   0.717  1.00  0.00     0.032 A 
HETATM   18  C   UNL     1      41.363 -15.822  -0.448  1.00  0.00     0.042 A 
HETATM   19  C   UNL     1      40.500 -14.734  -0.531  1.00  0.00     0.102 A 
HETATM   20  C   UNL     1      39.707 -14.398   0.564  1.00  0.00     0.104 A 
HETATM   21  O   UNL     1      40.552 -13.987  -1.675  1.00  0.00    -0.348 OA
HETATM   22  C   UNL     1      39.786 -15.149   1.741  1.00  0.00     0.069 A 
HETATM   23  O   UNL     1      38.893 -13.298   0.591  1.00  0.00    -0.348 OA
HETATM   24  C   UNL     1      37.859 -13.374  -0.390  1.00  0.00     0.178 C 
HETATM   25  C   UNL     1      38.342 -12.945  -1.768  1.00  0.00     0.053 C 
HETATM   26  C   UNL     1      39.299 -13.970  -2.359  1.00  0.00     0.178 C 
ENDBRANCH  14  16
ENDBRANCH   1  14
TORSDOF 2
ENDMDL
MODEL 2
REMARK VINA RESULT:      -8.9      0.961      1.737
REMARK  2 active torsions:
REMARK  status: ('A' for Active; 'I' for Inactive)
REMARK    1  A    between atoms: C_2  and  N_3 
REMARK    2  A    between atoms: N_3  and  C_4 
ROOT
HETATM    1  C   UNL     1      41.372 -16.848   3.982  1.00  0.00     0.143 A 
HETATM    2  N   UNL     1      41.036 -15.885   4.878  1.00  0.00    -0.223 NA
HETATM    3  C   UNL     1      41.752 -15.733   5.996  1.00  0.00     0.236 A 
HETATM    4  N   UNL     1      42.811 -16.441   6.375  1.00  0.00    -0.234 NA
HETATM    5  C   UNL     1      43.135 -17.391   5.485  1.00  0.00     0.114 A 
HETATM    6  C   UNL     1      42.497 -17.666   4.279  1.00  0.00     0.053 A 
HETATM    7  S   UNL     1      44.457 -18.416   5.799  1.00  0.00    -0.073 SA
HETATM    8  C   UNL     1      44.213 -19.270   4.357  1.00  0.00    -0.008 A 
HETATM    9  C   UNL     1      43.162 -18.771   3.604  1.00  0.00    -0.028 A 
HETATM   10  C   UNL     1      42.792 -19.405   2.290  1.00  0.00     0.041 C 
HETATM   11  C   UNL     1      43.853 -20.394   1.779  1.00  0.00     0.005 C 
HETATM   12  C   UNL     1      44.413 -21.274   2.899  1.00  0.00     0.005 C 
HETATM   13  C   UNL     1      45.092 -20.424   3.980  1.00  0.00     0.047 C 
ENDROOT
BRANCH   1  14
HETATM   14  N   UNL     1      40.634 -16.977   2.796  1.00  0.00    -0.340 N 
HETATM   15  H   UNL     1      40.398 -17.923   2.553  1.00  0.00     0.167 HD
BRANCH  14  16
HETATM   16  C   UNL     1      40.192 -16.024   1.861  1.00  0.00     0.036 A 
HETATM   17  C   UNL     1      39.008 -15.291   2.004  1.00  0.00     0.032 A 
HETATM   18  C   UNL     1      38.632 -14.329   1.061  1.00  0.00     0.042 A 
HETATM   19  C   UNL     1      39.463 -14.048  -0.018  1.00  0.00     0.102 A 
HETATM   20  C   UNL     1      40.654 -14.755  -0.173  1.00  0.00     0.104 A 
HETATM   21  O   UNL     1      39.006 -13.141  -0.934  1.00  0.00    -0.348 OA
HETATM   22  C   UNL     1      41.004 -15.746   0.749  1.00  0.00     0.069 A 
HETATM   23  O   UNL     1      41.485 -14.596  -1.249  1.00  0.00    -0.348 OA
HETATM   24  C   UNL     1      42.025 -13.276  -1.315  1.00  0.00     0.178 C 
HETATM   25  C   UNL     1      41.058 -12.292  -1.957  1.00  0.00     0.053 C 
HETATM   26  C   UNL     1      39.872 -12.012  -1.045  1.00  0.00     0.178 C 
ENDBRANCH  14  16
ENDBRANCH   1  14
TORSDOF 2
ENDMDL
MODEL 3
REMARK VINA RESULT:      -8.6      1.882      2.322
REMARK  2 active torsions:
REMARK  status: ('A' for Active; 'I' for Inactive)
REMARK    1  A    between atoms: C_2  and  N_3 
REMARK    2  A    between atoms: N_3  and  C_4 
ROOT
HETATM    1  C   UNL     1      42.072 -17.035   5.684  1.00  0.00     0.143 A 
HETATM    2  N   UNL     1      42.080 -16.719   7.003  1.00  0.00    -0.223 NA
HETATM    3  C   UNL     1      42.874 -17.389   7.846  1.00  0.00     0.236 A 
HETATM    4  N   UNL     1      43.704 -18.383   7.549  1.00  0.00    -0.234 NA
HETATM    5  C   UNL     1      43.689 -18.689   6.243  1.00  0.00     0.114 A 
HETATM    6  C   UNL     1      42.929 -18.082   5.247  1.00  0.00     0.053 A 
HETATM    7  S   UNL     1      44.675 -19.951   5.668  1.00  0.00    -0.073 SA
HETATM    8  C   UNL     1      44.113 -19.748   4.083  1.00  0.00    -0.008 A 
HETATM    9  C   UNL     1      43.208 -18.705   3.960  1.00  0.00    -0.028 A 
HETATM   10  C   UNL     1      42.595 -18.375   2.625  1.00  0.00     0.041 C 
HETATM   11  C   UNL     1      43.295 -19.080   1.452  1.00  0.00     0.005 C 
HETATM   12  C   UNL     1      43.642 -20.537   1.773  1.00  0.00     0.005 C 
HETATM   13  C   UNL     1      44.598 -20.623   2.969  1.00  0.00     0.047 C 
ENDROOT
BRANCH   1  14
HETATM   14  N   UNL     1      41.261 -16.304   4.803  1.00  0.00    -0.340 N 
HETATM   15  H   UNL     1      40.303 -16.607   4.771  1.00  0.00     0.167 HD
BRANCH  14  16
HETATM   16  C   UNL     1      41.551 -15.244   3.924  1.00  0.00     0.036 A 
HETATM   17  C   UNL     1      42.833 -14.709   3.757  1.00  0.00     0.032 A 
HETATM   18  C   UNL     1      43.075 -13.678   2.844  1.00  0.00     0.042 A 
HETATM   19  C   UNL     1      42.043 -13.198   2.044  1.00  0.00     0.102 A 
HETATM   20  C   UNL     1      40.761 -13.726   2.184  1.00  0.00     0.104 A 
HETATM   21  O   UNL     1      42.334 -12.149   1.217  1.00  0.00    -0.348 OA
HETATM   22  C   UNL     1      40.516 -14.728   3.128  1.00  0.00     0.069 A 
HETATM   23  O   UNL     1      39.677 -13.255   1.494  1.00  0.00    -0.348 OA
HETATM   24  C   UNL     1      39.819 -13.441   0.085  1.00  0.00     0.178 C 
HETATM   25  C   UNL     1      40.662 -12.348  -0.556  1.00  0.00     0.053 C 
HETATM   26  C   UNL     1      42.125 -12.478  -0.156  1.00  0.00     0.178 C 
ENDBRANCH  14  16
ENDBRANCH   1  14
TORSDOF 2
ENDMDL
MODEL 4
REMARK VINA RESULT:      -8.6      1.382      1.729
REMARK  2 active torsions:
REMARK  status: ('A' for Active; 'I' for Inactive)
REMARK    1  A    between atoms: C_2  and  N_3 
REMARK    2  A    between atoms: N_3  and  C_4 
ROOT
HETATM    1  C   UNL     1      41.359 -16.959   4.648  1.00  0.00     0.143 A 
HETATM    2  N   UNL     1      40.971 -16.352   5.799  1.00  0.00    -0.223 NA
HETATM    3  C   UNL     1      41.564 -16.669   6.954  1.00  0.00     0.236 A 
HETATM    4  N   UNL     1      42.539 -17.552   7.142  1.00  0.00    -0.234 NA
HETATM    5  C   UNL     1      42.915 -18.147   6.000  1.00  0.00     0.114 A 
HETATM    6  C   UNL     1      42.404 -17.920   4.725  1.00  0.00     0.053 A 
HETATM    7  S   UNL     1      44.144 -19.325   6.036  1.00  0.00    -0.073 SA
HETATM    8  C   UNL     1      44.023 -19.587   4.367  1.00  0.00    -0.008 A 
HETATM    9  C   UNL     1      43.087 -18.766   3.757  1.00  0.00    -0.028 A 
HETATM   10  C   UNL     1      42.837 -18.857   2.275  1.00  0.00     0.041 C 
HETATM   11  C   UNL     1      43.901 -19.686   1.535  1.00  0.00     0.005 C 
HETATM   12  C   UNL     1      44.290 -20.951   2.305  1.00  0.00     0.005 C 
HETATM   13  C   UNL     1      44.882 -20.601   3.675  1.00  0.00     0.047 C 
ENDROOT
BRANCH   1  14
HETATM   14  N   UNL     1      40.753 -16.595   3.437  1.00  0.00    -0.340 N 
HETATM   15  H   UNL     1      40.011 -17.206   3.141  1.00  0.00     0.167 HD
BRANCH  14  16
HETATM   16  C   UNL     1      41.018 -15.548   2.535  1.00  0.00     0.036 A 
HETATM   17  C   UNL     1      41.981 -14.558   2.763  1.00  0.00     0.032 A 
HETATM   18  C   UNL     1      42.231 -13.558   1.817  1.00  0.00     0.042 A 
HETATM   19  C   UNL     1      41.553 -13.562   0.602  1.00  0.00     0.102 A 
HETATM   20  C   UNL     1      40.600 -14.547   0.348  1.00  0.00     0.104 A 
HETATM   21  O   UNL     1      41.801 -12.522  -0.250  1.00  0.00    -0.348 OA
HETATM   22  C   UNL     1      40.325 -15.519   1.314  1.00  0.00     0.069 A 
HETATM   23  O   UNL     1      39.835 -14.575  -0.786  1.00  0.00    -0.348 OA
HETATM   24  C   UNL     1      40.627 -14.753  -1.961  1.00  0.00     0.178 C 
HETATM   25  C   UNL     1      41.241 -13.447  -2.443  1.00  0.00     0.053 C 
HETATM   26  C   UNL     1      42.332 -12.970  -1.497  1.00  0.00     0.178 C 
ENDBRANCH  14  16
ENDBRANCH   1  14
TORSDOF 2
ENDMDL
MODEL 5
REMARK VINA RESULT:      -8.3      2.454      2.913
REMARK  2 active torsions:
REMARK  status: ('A' for Active; 'I' for Inactive)
REMARK    1  A    between atoms: C_2  and  N_3 
REMARK    2  A    between atoms: N_3  and  C_4 
ROOT
HETATM    1  C   UNL     1      40.315 -15.242   2.963  1.00  0.00     0.143 A 
HETATM    2  N   UNL     1      39.640 -14.405   3.791  1.00  0.00    -0.223 NA
HETATM    3  C   UNL     1      39.881 -14.429   5.106  1.00  0.00     0.236 A 
HETATM    4  N   UNL     1      40.742 -15.208   5.752  1.00  0.00    -0.234 NA
HETATM    5  C   UNL     1      41.403 -16.033   4.926  1.00  0.00     0.114 A 
HETATM    6  C   UNL     1      41.271 -16.121   3.543  1.00  0.00     0.053 A 
HETATM    7  S   UNL     1      42.541 -17.124   5.567  1.00  0.00    -0.073 SA
HETATM    8  C   UNL     1      42.880 -17.763   4.035  1.00  0.00    -0.008 A 
HETATM    9  C   UNL     1      42.172 -17.138   3.020  1.00  0.00    -0.028 A 
HETATM   10  C   UNL     1      42.340 -17.573   1.589  1.00  0.00     0.041 C 
HETATM   11  C   UNL     1      43.544 -18.507   1.381  1.00  0.00     0.005 C 
HETATM   12  C   UNL     1      43.669 -19.548   2.496  1.00  0.00     0.005 C 
HETATM   13  C   UNL     1      43.869 -18.874   3.858  1.00  0.00     0.047 C 
ENDROOT
BRANCH   1  14
HETATM   14  N   UNL     1      40.078 -15.186   1.581  1.00  0.00    -0.340 N 
HETATM   15  H   UNL     1      39.271 -15.702   1.276  1.00  0.00     0.167 HD
BRANCH  14  16
HETATM   16  C   UNL     1      40.787 -14.568   0.535  1.00  0.00     0.036 A 
HETATM   17  C   UNL     1      40.767 -15.028  -0.787  1.00  0.00     0.032 A 
HETATM   18  C   UNL     1      41.463 -14.356  -1.799  1.00  0.00     0.042 A 
HETATM   19  C   UNL     1      42.150 -13.182  -1.510  1.00  0.00     0.102 A 
HETATM   20  C   UNL     1      42.170 -12.698  -0.204  1.00  0.00     0.104 A 
HETATM   21  O   UNL     1      42.857 -12.610  -2.532  1.00  0.00    -0.348 OA
HETATM   22  C   UNL     1      41.509 -13.396   0.811  1.00  0.00     0.069 A 
HETATM   23  O   UNL     1      42.888 -11.596   0.176  1.00  0.00    -0.348 OA
HETATM   24  C   UNL     1      42.427 -10.409  -0.470  1.00  0.00     0.178 C 
HETATM   25  C   UNL     1      42.999 -10.260  -1.872  1.00  0.00     0.053 C 
HETATM   26  C   UNL     1      42.403 -11.289  -2.822  1.00  0.00     0.178 C 
ENDBRANCH  14  16
ENDBRANCH   1  14
TORSDOF 2
ENDMDL
MODEL 6
REMARK VINA RESULT:      -8.2      1.965      2.537
REMARK  2 active torsions:
REMARK  status: ('A' for Active; 'I' for Inactive)
REMARK    1  A    between atoms: C_2  and  N_3 
REMARK    2  A    between atoms: N_3  and  C_4 
ROOT
HETATM    1  C   UNL     1      43.535 -17.447   5.271  1.00  0.00     0.143 A 
HETATM    2  N   UNL     1      43.246 -16.767   6.409  1.00  0.00    -0.223 NA
HETATM    3  C   UNL     1      43.243 -17.404   7.585  1.00  0.00     0.236 A 
HETATM    4  N   UNL     1      43.498 -18.689   7.804  1.00  0.00    -0.234 NA
HETATM    5  C   UNL     1      43.782 -19.353   6.673  1.00  0.00     0.114 A 
HETATM    6  C   UNL     1      43.834 -18.833   5.383  1.00  0.00     0.053 A 
HETATM    7  S   UNL     1      44.123 -21.019   6.745  1.00  0.00    -0.073 SA
HETATM    8  C   UNL     1      44.328 -21.109   5.065  1.00  0.00    -0.008 A 
HETATM    9  C   UNL     1      44.183 -19.883   4.437  1.00  0.00    -0.028 A 
HETATM   10  C   UNL     1      44.327 -19.766   2.943  1.00  0.00     0.041 C 
HETATM   11  C   UNL     1      44.929 -21.024   2.296  1.00  0.00     0.005 C 
HETATM   12  C   UNL     1      44.355 -22.313   2.890  1.00  0.00     0.005 C 
HETATM   13  C   UNL     1      44.654 -22.407   4.391  1.00  0.00     0.047 C 
ENDROOT
BRANCH   1  14
HETATM   14  N   UNL     1      43.568 -16.762   4.047  1.00  0.00    -0.340 N 
HETATM   15  H   UNL     1      44.492 -16.544   3.716  1.00  0.00     0.167 HD
BRANCH  14  16
HETATM   16  C   UNL     1      42.540 -16.290   3.211  1.00  0.00     0.036 A 
HETATM   17  C   UNL     1      41.359 -17.000   2.963  1.00  0.00     0.032 A 
HETATM   18  C   UNL     1      40.352 -16.470   2.150  1.00  0.00     0.042 A 
HETATM   19  C   UNL     1      40.489 -15.194   1.612  1.00  0.00     0.102 A 
HETATM   20  C   UNL     1      41.650 -14.464   1.858  1.00  0.00     0.104 A 
HETATM   21  O   UNL     1      39.495 -14.762   0.778  1.00  0.00    -0.348 OA
HETATM   22  C   UNL     1      42.672 -15.016   2.636  1.00  0.00     0.069 A 
HETATM   23  O   UNL     1      41.897 -13.238   1.300  1.00  0.00    -0.348 OA
HETATM   24  C   UNL     1      40.949 -12.258   1.725  1.00  0.00     0.178 C 
HETATM   25  C   UNL     1      39.656 -12.327   0.926  1.00  0.00     0.053 C 
HETATM   26  C   UNL     1      38.864 -13.580   1.269  1.00  0.00     0.178 C 
ENDBRANCH  14  16
ENDBRANCH   1  14
TORSDOF 2
ENDMDL
MODEL 7
REMARK VINA RESULT:      -8.2      3.527      6.965
REMARK  2 active torsions:
REMARK  status: ('A' for Active; 'I' for Inactive)
REMARK    1  A    between atoms: C_2  and  N_3 
REMARK    2  A    between atoms: N_3  and  C_4 
ROOT
HETATM    1  C   UNL     1      42.354 -15.607   4.979  1.00  0.00     0.143 A 
HETATM    2  N   UNL     1      42.773 -14.828   6.008  1.00  0.00    -0.223 NA
HETATM    3  C   UNL     1      42.994 -13.524   5.812  1.00  0.00     0.236 A 
HETATM    4  N   UNL     1      42.853 -12.846   4.678  1.00  0.00    -0.234 NA
HETATM    5  C   UNL     1      42.440 -13.624   3.666  1.00  0.00     0.114 A 
HETATM    6  C   UNL     1      42.160 -14.987   3.713  1.00  0.00     0.053 A 
HETATM    7  S   UNL     1      42.215 -12.941   2.123  1.00  0.00    -0.073 SA
HETATM    8  C   UNL     1      41.761 -14.434   1.463  1.00  0.00    -0.008 A 
HETATM    9  C   UNL     1      41.734 -15.454   2.402  1.00  0.00    -0.028 A 
HETATM   10  C   UNL     1      41.356 -16.855   2.000  1.00  0.00     0.041 C 
HETATM   11  C   UNL     1      40.739 -16.932   0.594  1.00  0.00     0.005 C 
HETATM   12  C   UNL     1      41.474 -16.041  -0.412  1.00  0.00     0.005 C 
HETATM   13  C   UNL     1      41.414 -14.568   0.012  1.00  0.00     0.047 C 
ENDROOT
BRANCH   1  14
HETATM   14  N   UNL     1      42.093 -16.967   5.203  1.00  0.00    -0.340 N 
HETATM   15  H   UNL     1      41.153 -17.168   5.498  1.00  0.00     0.167 HD
BRANCH  14  16
HETATM   16  C   UNL     1      42.919 -18.103   5.128  1.00  0.00     0.036 A 
HETATM   17  C   UNL     1      43.341 -18.827   6.250  1.00  0.00     0.032 A 
HETATM   18  C   UNL     1      44.134 -19.971   6.118  1.00  0.00     0.042 A 
HETATM   19  C   UNL     1      44.477 -20.440   4.854  1.00  0.00     0.102 A 
HETATM   20  C   UNL     1      44.055 -19.744   3.723  1.00  0.00     0.104 A 
HETATM   21  O   UNL     1      45.304 -21.528   4.799  1.00  0.00    -0.348 OA
HETATM   22  C   UNL     1      43.298 -18.577   3.862  1.00  0.00     0.069 A 
HETATM   23  O   UNL     1      44.417 -20.093   2.450  1.00  0.00    -0.348 OA
HETATM   24  C   UNL     1      43.920 -21.382   2.089  1.00  0.00     0.178 C 
HETATM   25  C   UNL     1      44.803 -22.505   2.614  1.00  0.00     0.053 C 
HETATM   26  C   UNL     1      44.693 -22.629   4.127  1.00  0.00     0.178 C 
ENDBRANCH  14  16
ENDBRANCH   1  14
TORSDOF 2
ENDMDL
MODEL 8
REMARK VINA RESULT:      -8.0      1.886      2.547
REMARK  2 active torsions:
REMARK  status: ('A' for Active; 'I' for Inactive)
REMARK    1  A    between atoms: C_2  and  N_3 
REMARK    2  A    between atoms: N_3  and  C_4 
ROOT
HETATM    1  C   UNL     1      42.773 -14.248   3.508  1.00  0.00     0.143 A 
HETATM    2  N   UNL     1      42.649 -13.291   4.462  1.00  0.00    -0.223 NA
HETATM    3  C   UNL     1      42.880 -13.591   5.745  1.00  0.00     0.236 A 
HETATM    4  N   UNL     1      43.234 -14.771   6.243  1.00  0.00    -0.234 NA
HETATM    5  C   UNL     1      43.353 -15.712   5.293  1.00  0.00     0.114 A 
HETATM    6  C   UNL     1      43.156 -15.554   3.924  1.00  0.00     0.053 A 
HETATM    7  S   UNL     1      43.784 -17.297   5.736  1.00  0.00    -0.073 SA
HETATM    8  C   UNL     1      43.702 -17.831   4.130  1.00  0.00    -0.008 A 
HETATM    9  C   UNL     1      43.390 -16.817   3.239  1.00  0.00    -0.028 A 
HETATM   10  C   UNL     1      43.269 -17.101   1.766  1.00  0.00     0.041 C 
HETATM   11  C   UNL     1      43.814 -18.485   1.374  1.00  0.00     0.005 C 
HETATM   12  C   UNL     1      43.416 -19.571   2.378  1.00  0.00     0.005 C 
HETATM   13  C   UNL     1      43.973 -19.260   3.772  1.00  0.00     0.047 C 
ENDROOT
BRANCH   1  14
HETATM   14  N   UNL     1      42.560 -13.915   2.163  1.00  0.00    -0.340 N 
HETATM   15  H   UNL     1      43.374 -13.568   1.686  1.00  0.00     0.167 HD
BRANCH  14  16
HETATM   16  C   UNL     1      41.403 -13.941   1.364  1.00  0.00     0.036 A 
HETATM   17  C   UNL     1      40.188 -13.361   1.746  1.00  0.00     0.032 A 
HETATM   18  C   UNL     1      39.075 -13.384   0.899  1.00  0.00     0.042 A 
HETATM   19  C   UNL     1      39.176 -13.946  -0.370  1.00  0.00     0.102 A 
HETATM   20  C   UNL     1      40.380 -14.516  -0.777  1.00  0.00     0.104 A 
HETATM   21  O   UNL     1      38.035 -13.989  -1.122  1.00  0.00    -0.348 OA
HETATM   22  C   UNL     1      41.477 -14.528   0.091  1.00  0.00     0.069 A 
HETATM   23  O   UNL     1      40.538 -15.159  -1.975  1.00  0.00    -0.348 OA
HETATM   24  C   UNL     1      40.348 -14.278  -3.082  1.00  0.00     0.178 C 
HETATM   25  C   UNL     1      38.876 -14.084  -3.415  1.00  0.00     0.053 C 
HETATM   26  C   UNL     1      38.173 -13.265  -2.344  1.00  0.00     0.178 C 
ENDBRANCH  14  16
ENDBRANCH   1  14
TORSDOF 2
ENDMDL
MODEL 9
REMARK VINA RESULT:      -8.0      1.879      2.496
REMARK  2 active torsions:
REMARK  status: ('A' for Active; 'I' for Inactive)
REMARK    1  A    between atoms: C_2  and  N_3 
REMARK    2  A    between atoms: N_3  and  C_4 
ROOT
HETATM    1  C   UNL     1      41.277 -17.036   4.543  1.00  0.00     0.143 A 
HETATM    2  N   UNL     1      40.842 -16.380   5.649  1.00  0.00    -0.223 NA
HETATM    3  C   UNL     1      41.427 -16.603   6.831  1.00  0.00     0.236 A 
HETATM    4  N   UNL     1      42.434 -17.430   7.086  1.00  0.00    -0.234 NA
HETATM    5  C   UNL     1      42.857 -18.075   5.988  1.00  0.00     0.114 A 
HETATM    6  C   UNL     1      42.361 -17.945   4.694  1.00  0.00     0.053 A 
HETATM    7  S   UNL     1      44.133 -19.193   6.115  1.00  0.00    -0.073 SA
HETATM    8  C   UNL     1      44.055 -19.558   4.462  1.00  0.00    -0.008 A 
HETATM    9  C   UNL     1      43.098 -18.816   3.789  1.00  0.00    -0.028 A 
HETATM   10  C   UNL     1      42.880 -19.005   2.312  1.00  0.00     0.041 C 
HETATM   11  C   UNL     1      43.991 -19.829   1.640  1.00  0.00     0.005 C 
HETATM   12  C   UNL     1      44.419 -21.028   2.490  1.00  0.00     0.005 C 
HETATM   13  C   UNL     1      44.970 -20.573   3.847  1.00  0.00     0.047 C 
ENDROOT
BRANCH   1  14
HETATM   14  N   UNL     1      40.680 -16.770   3.302  1.00  0.00    -0.340 N 
HETATM   15  H   UNL     1      40.544 -17.581   2.723  1.00  0.00     0.167 HD
BRANCH  14  16
HETATM   16  C   UNL     1      40.268 -15.568   2.700  1.00  0.00     0.036 A 
HETATM   17  C   UNL     1      39.087 -15.439   1.960  1.00  0.00     0.032 A 
HETATM   18  C   UNL     1      38.705 -14.211   1.410  1.00  0.00     0.042 A 
HETATM   19  C   UNL     1      39.478 -13.076   1.636  1.00  0.00     0.102 A 
HETATM   20  C   UNL     1      40.651 -13.178   2.382  1.00  0.00     0.104 A 
HETATM   21  O   UNL     1      39.080 -11.922   1.020  1.00  0.00    -0.348 OA
HETATM   22  C   UNL     1      41.049 -14.417   2.893  1.00  0.00     0.069 A 
HETATM   23  O   UNL     1      41.506 -12.128   2.581  1.00  0.00    -0.348 OA
HETATM   24  C   UNL     1      40.890 -11.070   3.317  1.00  0.00     0.178 C 
HETATM   25  C   UNL     1      40.042 -10.171   2.429  1.00  0.00     0.053 C 
HETATM   26  C   UNL     1      38.786 -10.889   1.960  1.00  0.00     0.178 C 
ENDBRANCH  14  16
ENDBRANCH   1  14
TORSDOF 2
ENDMDL
MODEL 10
REMARK VINA RESULT:      -8.0      3.584      7.182
REMARK  2 active torsions:
REMARK  status: ('A' for Active; 'I' for Inactive)
REMARK    1  A    between atoms: C_2  and  N_3 
REMARK    2  A    between atoms: N_3  and  C_4 
ROOT
HETATM    1  C   UNL     1      41.721 -14.174   2.875  1.00  0.00     0.143 A 
HETATM    2  N   UNL     1      41.554 -13.701   4.136  1.00  0.00    -0.223 NA
HETATM    3  C   UNL     1      40.445 -13.027   4.455  1.00  0.00     0.236 A 
HETATM    4  N   UNL     1      39.423 -12.737   3.657  1.00  0.00    -0.234 NA
HETATM    5  C   UNL     1      39.597 -13.207   2.413  1.00  0.00     0.114 A 
HETATM    6  C   UNL     1      40.685 -13.929   1.932  1.00  0.00     0.053 A 
HETATM    7  S   UNL     1      38.401 -12.922   1.236  1.00  0.00    -0.073 SA
HETATM    8  C   UNL     1      39.296 -13.729   0.046  1.00  0.00    -0.008 A 
HETATM    9  C   UNL     1      40.484 -14.256   0.527  1.00  0.00    -0.028 A 
HETATM   10  C   UNL     1      41.416 -15.006  -0.387  1.00  0.00     0.041 C 
HETATM   11  C   UNL     1      40.775 -15.363  -1.738  1.00  0.00     0.005 C 
HETATM   12  C   UNL     1      39.940 -14.211  -2.306  1.00  0.00     0.005 C 
HETATM   13  C   UNL     1      38.791 -13.847  -1.360  1.00  0.00     0.047 C 
ENDROOT
BRANCH   1  14
HETATM   14  N   UNL     1      42.874 -14.909   2.559  1.00  0.00    -0.340 N 
HETATM   15  H   UNL     1      43.619 -14.365   2.162  1.00  0.00     0.167 HD
BRANCH  14  16
HETATM   16  C   UNL     1      43.166 -16.281   2.662  1.00  0.00     0.036 A 
HETATM   17  C   UNL     1      43.733 -17.030   1.625  1.00  0.00     0.032 A 
HETATM   18  C   UNL     1      44.037 -18.385   1.790  1.00  0.00     0.042 A 
HETATM   19  C   UNL     1      43.823 -19.003   3.018  1.00  0.00     0.102 A 
HETATM   20  C   UNL     1      43.272 -18.273   4.070  1.00  0.00     0.104 A 
HETATM   21  O   UNL     1      44.084 -20.343   3.093  1.00  0.00    -0.348 OA
HETATM   22  C   UNL     1      42.931 -16.929   3.886  1.00  0.00     0.069 A 
HETATM   23  O   UNL     1      42.956 -18.826   5.281  1.00  0.00    -0.348 OA
HETATM   24  C   UNL     1      44.112 -19.317   5.961  1.00  0.00     0.178 C 
HETATM   25  C   UNL     1      44.521 -20.699   5.472  1.00  0.00     0.053 C 
HETATM   26  C   UNL     1      45.090 -20.637   4.063  1.00  0.00     0.178 C 
ENDBRANCH  14  16
ENDBRANCH   1  14
TORSDOF 2
ENDMDL
