MODEL 1
REMARK VINA RESULT:      -8.9      0.000      0.000
REMARK  10 active torsions:
REMARK  status: ('A' for Active; 'I' for Inactive)
REMARK    1  A    between atoms: C_7  and  N_8 
REMARK    2  A    between atoms: C_9  and  S_10 
REMARK    3  A    between atoms: S_10  and  C_11 
REMARK    4  A    between atoms: C_11  and  C_12 
REMARK       I    between atoms: C_12  and  N_13 
REMARK    5  A    between atoms: N_13  and  C_14 
REMARK    6  A    between atoms: C_14  and  C_15 
REMARK    7  A    between atoms: C_15  and  C_16 
REMARK    8  A    between atoms: C_18  and  O_19 
REMARK    9  A    between atoms: C_21  and  O_22 
REMARK   10  A    between atoms: C_30  and  N_31 
ROOT
HETATM    1  N   UNL     1      42.588 -17.132   3.269  1.00  0.00    -0.276 N 
HETATM    2  C   UNL     1      43.181 -16.793   4.517  1.00  0.00     0.177 A 
HETATM    3  N   UNL     1      43.993 -17.553   5.212  1.00  0.00    -0.204 NA
HETATM    4  C   UNL     1      44.276 -18.736   4.625  1.00  0.00     0.162 A 
HETATM    5  C   UNL     1      43.829 -19.243   3.437  1.00  0.00     0.081 A 
HETATM    6  C   UNL     1      42.901 -18.439   2.697  1.00  0.00     0.124 A 
HETATM    7  N   UNL     1      45.128 -19.678   5.121  1.00  0.00    -0.260 N 
HETATM    8  H   UNL     1      45.656 -19.647   5.985  1.00  0.00     0.191 HD
HETATM    9  N   UNL     1      45.252 -20.755   4.314  1.00  0.00    -0.177 NA
HETATM   10  C   UNL     1      44.459 -20.483   3.263  1.00  0.00     0.068 A 
HETATM   11  C   UNL     1      44.376 -21.453   2.145  1.00  0.00     0.073 C 
ENDROOT
BRANCH   2  12
HETATM   12  S   UNL     1      42.895 -15.193   5.234  1.00  0.00    -0.082 SA
BRANCH  12  13
HETATM   13  C   UNL     1      43.870 -15.351   6.757  1.00  0.00     0.185 C 
BRANCH  13  14
HETATM   14  C   UNL     1      44.653 -14.085   7.074  1.00  0.00     0.227 C 
HETATM   15  N   UNL     1      44.286 -13.511   8.281  1.00  0.00    -0.360 N 
HETATM   16  H   UNL     1      43.435 -13.829   8.726  1.00  0.00     0.162 HD
HETATM   17  O   UNL     1      45.489 -13.584   6.329  1.00  0.00    -0.273 OA
BRANCH  15  18
HETATM   18  C   UNL     1      44.847 -12.238   8.709  1.00  0.00     0.127 C 
BRANCH  18  19
HETATM   19  C   UNL     1      44.817 -12.104  10.231  1.00  0.00     0.058 C 
BRANCH  19  20
HETATM   20  C   UNL     1      43.839 -11.061  10.711  1.00  0.00    -0.054 A 
HETATM   21  C   UNL     1      42.717 -10.734   9.935  1.00  0.00     0.046 A 
HETATM   22  C   UNL     1      41.810  -9.755  10.363  1.00  0.00     0.102 A 
HETATM   23  C   UNL     1      42.025  -9.096  11.589  1.00  0.00     0.101 A 
HETATM   24  C   UNL     1      43.133  -9.439  12.371  1.00  0.00     0.040 A 
HETATM   25  C   UNL     1      44.032 -10.415  11.934  1.00  0.00     0.010 A 
BRANCH  22  26
HETATM   26  O   UNL     1      40.696  -9.369   9.658  1.00  0.00    -0.353 OA
HETATM   27  C   UNL     1      39.625 -10.295   9.554  1.00  0.00     0.210 C 
ENDBRANCH  22  26
BRANCH  23  28
HETATM   28  O   UNL     1      41.094  -8.149  11.938  1.00  0.00    -0.353 OA
HETATM   29  C   UNL     1      40.404  -8.328  13.166  1.00  0.00     0.210 C 
ENDBRANCH  23  28
ENDBRANCH  19  20
ENDBRANCH  18  19
ENDBRANCH  15  18
ENDBRANCH  13  14
ENDBRANCH  12  13
ENDBRANCH   2  12
BRANCH   1  30
HETATM   30  C   UNL     1      41.712 -16.242   2.577  1.00  0.00     0.043 A 
HETATM   31  C   UNL     1      40.332 -16.250   2.814  1.00  0.00     0.032 A 
HETATM   32  C   UNL     1      39.482 -15.434   2.064  1.00  0.00     0.026 A 
HETATM   33  C   UNL     1      39.996 -14.614   1.058  1.00  0.00     0.040 A 
HETATM   34  C   UNL     1      41.374 -14.591   0.794  1.00  0.00    -0.038 A 
HETATM   35 CL   UNL     1      38.886 -13.654   0.149  1.00  0.00    -0.084 Cl
HETATM   36  C   UNL     1      41.958 -13.726  -0.288  1.00  0.00     0.050 C 
HETATM   37  C   UNL     1      42.220 -15.405   1.566  1.00  0.00     0.038 A 
ENDBRANCH   1  30
BRANCH   6  38
HETATM   38  N   UNL     1      42.341 -18.895   1.593  1.00  0.00    -0.384 N 
HETATM   39  H   UNL     1      41.745 -18.317   1.019  1.00  0.00     0.157 HD
HETATM   40  H   UNL     1      42.535 -19.838   1.277  1.00  0.00     0.157 HD
ENDBRANCH   6  38
TORSDOF 10
ENDMDL
MODEL 2
REMARK VINA RESULT:      -8.5      5.349      8.727
REMARK  10 active torsions:
REMARK  status: ('A' for Active; 'I' for Inactive)
REMARK    1  A    between atoms: C_7  and  N_8 
REMARK    2  A    between atoms: C_9  and  S_10 
REMARK    3  A    between atoms: S_10  and  C_11 
REMARK    4  A    between atoms: C_11  and  C_12 
REMARK       I    between atoms: C_12  and  N_13 
REMARK    5  A    between atoms: N_13  and  C_14 
REMARK    6  A    between atoms: C_14  and  C_15 
REMARK    7  A    between atoms: C_15  and  C_16 
REMARK    8  A    between atoms: C_18  and  O_19 
REMARK    9  A    between atoms: C_21  and  O_22 
REMARK   10  A    between atoms: C_30  and  N_31 
ROOT
HETATM    1  N   UNL     1      40.324 -12.899   2.398  1.00  0.00    -0.276 N 
HETATM    2  C   UNL     1      41.500 -12.643   1.639  1.00  0.00     0.177 A 
HETATM    3  N   UNL     1      42.725 -12.945   1.998  1.00  0.00    -0.204 NA
HETATM    4  C   UNL     1      42.809 -13.578   3.187  1.00  0.00     0.162 A 
HETATM    5  C   UNL     1      41.813 -13.927   4.056  1.00  0.00     0.081 A 
HETATM    6  C   UNL     1      40.477 -13.555   3.694  1.00  0.00     0.124 A 
HETATM    7  N   UNL     1      43.960 -14.038   3.756  1.00  0.00    -0.260 N 
HETATM    8  H   UNL     1      44.904 -13.968   3.395  1.00  0.00     0.191 HD
HETATM    9  N   UNL     1      43.753 -14.663   4.936  1.00  0.00    -0.177 NA
HETATM   10  C   UNL     1      42.422 -14.609   5.119  1.00  0.00     0.068 A 
HETATM   11  C   UNL     1      41.827 -15.239   6.321  1.00  0.00     0.073 C 
ENDROOT
BRANCH   2  12
HETATM   12  S   UNL     1      41.378 -11.908   0.026  1.00  0.00    -0.082 SA
BRANCH  12  13
HETATM   13  C   UNL     1      42.061 -13.253  -0.985  1.00  0.00     0.185 C 
BRANCH  13  14
HETATM   14  C   UNL     1      41.354 -14.577  -0.735  1.00  0.00     0.227 C 
HETATM   15  N   UNL     1      42.065 -15.418   0.107  1.00  0.00    -0.360 N 
HETATM   16  H   UNL     1      43.032 -15.197   0.304  1.00  0.00     0.162 HD
HETATM   17  O   UNL     1      40.292 -14.903  -1.254  1.00  0.00    -0.273 OA
BRANCH  15  18
HETATM   18  C   UNL     1      41.604 -16.771   0.383  1.00  0.00     0.127 C 
BRANCH  18  19
HETATM   19  C   UNL     1      41.359 -16.978   1.877  1.00  0.00     0.058 C 
BRANCH  19  20
HETATM   20  C   UNL     1      42.360 -17.909   2.513  1.00  0.00    -0.054 A 
HETATM   21  C   UNL     1      42.530 -17.921   3.906  1.00  0.00     0.046 A 
HETATM   22  C   UNL     1      43.468 -18.771   4.507  1.00  0.00     0.102 A 
HETATM   23  C   UNL     1      44.247 -19.626   3.702  1.00  0.00     0.101 A 
HETATM   24  C   UNL     1      44.062 -19.627   2.316  1.00  0.00     0.040 A 
HETATM   25  C   UNL     1      43.125 -18.775   1.727  1.00  0.00     0.010 A 
BRANCH  22  26
HETATM   26  O   UNL     1      43.704 -18.835   5.858  1.00  0.00    -0.353 OA
HETATM   27  C   UNL     1      44.551 -17.849   6.429  1.00  0.00     0.210 C 
ENDBRANCH  22  26
BRANCH  23  28
HETATM   28  O   UNL     1      45.147 -20.426   4.364  1.00  0.00    -0.353 OA
HETATM   29  C   UNL     1      44.825 -21.802   4.500  1.00  0.00     0.210 C 
ENDBRANCH  23  28
ENDBRANCH  19  20
ENDBRANCH  18  19
ENDBRANCH  15  18
ENDBRANCH  13  14
ENDBRANCH  12  13
ENDBRANCH   2  12
BRANCH   1  30
HETATM   30  C   UNL     1      39.025 -12.535   1.931  1.00  0.00     0.043 A 
HETATM   31  C   UNL     1      38.292 -13.379   1.087  1.00  0.00     0.032 A 
HETATM   32  C   UNL     1      37.062 -12.966   0.571  1.00  0.00     0.026 A 
HETATM   33  C   UNL     1      36.556 -11.701   0.875  1.00  0.00     0.040 A 
HETATM   34  C   UNL     1      37.273 -10.832   1.712  1.00  0.00    -0.038 A 
HETATM   35 CL   UNL     1      35.045 -11.243   0.179  1.00  0.00    -0.084 Cl
HETATM   36  C   UNL     1      36.761  -9.459   2.052  1.00  0.00     0.050 C 
HETATM   37  C   UNL     1      38.502 -11.264   2.237  1.00  0.00     0.038 A 
ENDBRANCH   1  30
BRANCH   6  38
HETATM   38  N   UNL     1      39.469 -13.760   4.521  1.00  0.00    -0.384 N 
HETATM   39  H   UNL     1      38.884 -14.579   4.454  1.00  0.00     0.157 HD
HETATM   40  H   UNL     1      39.288 -13.107   5.273  1.00  0.00     0.157 HD
ENDBRANCH   6  38
TORSDOF 10
ENDMDL
MODEL 3
REMARK VINA RESULT:      -8.4      2.613      4.859
REMARK  10 active torsions:
REMARK  status: ('A' for Active; 'I' for Inactive)
REMARK    1  A    between atoms: C_7  and  N_8 
REMARK    2  A    between atoms: C_9  and  S_10 
REMARK    3  A    between atoms: S_10  and  C_11 
REMARK    4  A    between atoms: C_11  and  C_12 
REMARK       I    between atoms: C_12  and  N_13 
REMARK    5  A    between atoms: N_13  and  C_14 
REMARK    6  A    between atoms: C_14  and  C_15 
REMARK    7  A    between atoms: C_15  and  C_16 
REMARK    8  A    between atoms: C_18  and  O_19 
REMARK    9  A    between atoms: C_21  and  O_22 
REMARK   10  A    between atoms: C_30  and  N_31 
ROOT
HETATM    1  N   UNL     1      42.876 -16.842   4.518  1.00  0.00    -0.276 N 
HETATM    2  C   UNL     1      43.308 -15.689   5.231  1.00  0.00     0.177 A 
HETATM    3  N   UNL     1      42.793 -14.487   5.130  1.00  0.00    -0.204 NA
HETATM    4  C   UNL     1      41.746 -14.407   4.281  1.00  0.00     0.162 A 
HETATM    5  C   UNL     1      41.172 -15.385   3.519  1.00  0.00     0.081 A 
HETATM    6  C   UNL     1      41.761 -16.690   3.586  1.00  0.00     0.124 A 
HETATM    7  N   UNL     1      41.011 -13.284   4.038  1.00  0.00    -0.260 N 
HETATM    8  H   UNL     1      41.139 -12.359   4.433  1.00  0.00     0.191 HD
HETATM    9  N   UNL     1      40.000 -13.493   3.167  1.00  0.00    -0.177 NA
HETATM   10  C   UNL     1      40.087 -14.796   2.854  1.00  0.00     0.068 A 
HETATM   11  C   UNL     1      39.093 -15.389   1.928  1.00  0.00     0.073 C 
ENDROOT
BRANCH   2  12
HETATM   12  S   UNL     1      44.614 -15.819   6.429  1.00  0.00    -0.082 SA
BRANCH  12  13
HETATM   13  C   UNL     1      43.957 -14.737   7.730  1.00  0.00     0.185 C 
BRANCH  13  14
HETATM   14  C   UNL     1      44.825 -13.505   7.946  1.00  0.00     0.227 C 
HETATM   15  N   UNL     1      44.348 -12.679   8.952  1.00  0.00    -0.360 N 
HETATM   16  H   UNL     1      43.409 -12.831   9.296  1.00  0.00     0.162 HD
HETATM   17  O   UNL     1      45.815 -13.230   7.277  1.00  0.00    -0.273 OA
BRANCH  15  18
HETATM   18  C   UNL     1      44.981 -11.400   9.238  1.00  0.00     0.127 C 
BRANCH  18  19
HETATM   19  C   UNL     1      45.057 -11.143  10.743  1.00  0.00     0.058 C 
BRANCH  19  20
HETATM   20  C   UNL     1      43.859 -10.397  11.273  1.00  0.00    -0.054 A 
HETATM   21  C   UNL     1      42.786 -10.088  10.424  1.00  0.00     0.046 A 
HETATM   22  C   UNL     1      41.674  -9.381  10.902  1.00  0.00     0.102 A 
HETATM   23  C   UNL     1      41.632  -8.981  12.252  1.00  0.00     0.101 A 
HETATM   24  C   UNL     1      42.693  -9.309  13.101  1.00  0.00     0.040 A 
HETATM   25  C   UNL     1      43.798 -10.012  12.615  1.00  0.00     0.010 A 
BRANCH  22  26
HETATM   26  O   UNL     1      40.591  -9.029  10.135  1.00  0.00    -0.353 OA
HETATM   27  C   UNL     1      39.673 -10.052   9.777  1.00  0.00     0.210 C 
ENDBRANCH  22  26
BRANCH  23  28
HETATM   28  O   UNL     1      40.511  -8.291  12.644  1.00  0.00    -0.353 OA
HETATM   29  C   UNL     1      40.414  -7.917  14.010  1.00  0.00     0.210 C 
ENDBRANCH  23  28
ENDBRANCH  19  20
ENDBRANCH  18  19
ENDBRANCH  15  18
ENDBRANCH  13  14
ENDBRANCH  12  13
ENDBRANCH   2  12
BRANCH   1  30
HETATM   30  C   UNL     1      43.494 -18.117   4.689  1.00  0.00     0.043 A 
HETATM   31  C   UNL     1      44.222 -18.717   3.654  1.00  0.00     0.032 A 
HETATM   32  C   UNL     1      44.745 -20.003   3.811  1.00  0.00     0.026 A 
HETATM   33  C   UNL     1      44.533 -20.711   4.995  1.00  0.00     0.040 A 
HETATM   34  C   UNL     1      43.801 -20.138   6.046  1.00  0.00    -0.038 A 
HETATM   35 CL   UNL     1      45.180 -22.307   5.111  1.00  0.00    -0.084 Cl
HETATM   36  C   UNL     1      43.546 -20.879   7.330  1.00  0.00     0.050 C 
HETATM   37  C   UNL     1      43.293 -18.838   5.881  1.00  0.00     0.038 A 
ENDBRANCH   1  30
BRANCH   6  38
HETATM   38  N   UNL     1      41.335 -17.666   2.807  1.00  0.00    -0.384 N 
HETATM   39  H   UNL     1      41.907 -18.472   2.602  1.00  0.00     0.157 HD
HETATM   40  H   UNL     1      40.397 -17.640   2.427  1.00  0.00     0.157 HD
ENDBRANCH   6  38
TORSDOF 10
ENDMDL
MODEL 4
REMARK VINA RESULT:      -8.3      5.499      8.928
REMARK  10 active torsions:
REMARK  status: ('A' for Active; 'I' for Inactive)
REMARK    1  A    between atoms: C_7  and  N_8 
REMARK    2  A    between atoms: C_9  and  S_10 
REMARK    3  A    between atoms: S_10  and  C_11 
REMARK    4  A    between atoms: C_11  and  C_12 
REMARK       I    between atoms: C_12  and  N_13 
REMARK    5  A    between atoms: N_13  and  C_14 
REMARK    6  A    between atoms: C_14  and  C_15 
REMARK    7  A    between atoms: C_15  and  C_16 
REMARK    8  A    between atoms: C_18  and  O_19 
REMARK    9  A    between atoms: C_21  and  O_22 
REMARK   10  A    between atoms: C_30  and  N_31 
ROOT
HETATM    1  N   UNL     1      40.942 -12.689   2.704  1.00  0.00    -0.276 N 
HETATM    2  C   UNL     1      39.613 -13.194   2.773  1.00  0.00     0.177 A 
HETATM    3  N   UNL     1      39.177 -14.094   3.622  1.00  0.00    -0.204 NA
HETATM    4  C   UNL     1      40.111 -14.518   4.500  1.00  0.00     0.162 A 
HETATM    5  C   UNL     1      41.424 -14.156   4.612  1.00  0.00     0.081 A 
HETATM    6  C   UNL     1      41.920 -13.211   3.656  1.00  0.00     0.124 A 
HETATM    7  N   UNL     1      39.897 -15.411   5.508  1.00  0.00    -0.260 N 
HETATM    8  H   UNL     1      39.035 -15.891   5.743  1.00  0.00     0.191 HD
HETATM    9  N   UNL     1      40.998 -15.635   6.258  1.00  0.00    -0.177 NA
HETATM   10  C   UNL     1      41.943 -14.849   5.715  1.00  0.00     0.068 A 
HETATM   11  C   UNL     1      43.296 -14.816   6.318  1.00  0.00     0.073 C 
ENDROOT
BRANCH   2  12
HETATM   12  S   UNL     1      38.360 -12.553   1.689  1.00  0.00    -0.082 SA
BRANCH  12  13
HETATM   13  C   UNL     1      38.087 -14.003   0.632  1.00  0.00     0.185 C 
BRANCH  13  14
HETATM   14  C   UNL     1      39.393 -14.603   0.129  1.00  0.00     0.227 C 
HETATM   15  N   UNL     1      39.907 -15.568   0.982  1.00  0.00    -0.360 N 
HETATM   16  H   UNL     1      39.520 -15.642   1.914  1.00  0.00     0.162 HD
HETATM   17  O   UNL     1      39.969 -14.248  -0.893  1.00  0.00    -0.273 OA
BRANCH  15  18
HETATM   18  C   UNL     1      41.201 -16.183   0.728  1.00  0.00     0.127 C 
BRANCH  18  19
HETATM   19  C   UNL     1      41.150 -17.694   0.954  1.00  0.00     0.058 C 
BRANCH  19  20
HETATM   20  C   UNL     1      42.111 -18.162   2.018  1.00  0.00    -0.054 A 
HETATM   21  C   UNL     1      42.988 -19.226   1.761  1.00  0.00     0.046 A 
HETATM   22  C   UNL     1      43.874 -19.679   2.748  1.00  0.00     0.102 A 
HETATM   23  C   UNL     1      43.887 -19.054   4.011  1.00  0.00     0.101 A 
HETATM   24  C   UNL     1      43.026 -17.980   4.258  1.00  0.00     0.040 A 
HETATM   25  C   UNL     1      42.145 -17.538   3.268  1.00  0.00     0.010 A 
BRANCH  22  26
HETATM   26  O   UNL     1      44.754 -20.720   2.581  1.00  0.00    -0.353 OA
HETATM   27  C   UNL     1      44.297 -21.867   1.882  1.00  0.00     0.210 C 
ENDBRANCH  22  26
BRANCH  23  28
HETATM   28  O   UNL     1      44.781 -19.556   4.925  1.00  0.00    -0.353 OA
HETATM   29  C   UNL     1      44.260 -20.328   5.997  1.00  0.00     0.210 C 
ENDBRANCH  23  28
ENDBRANCH  19  20
ENDBRANCH  18  19
ENDBRANCH  15  18
ENDBRANCH  13  14
ENDBRANCH  12  13
ENDBRANCH   2  12
BRANCH   1  30
HETATM   30  C   UNL     1      41.333 -11.707   1.745  1.00  0.00     0.043 A 
HETATM   31  C   UNL     1      40.983 -10.360   1.899  1.00  0.00     0.032 A 
HETATM   32  C   UNL     1      41.298  -9.430   0.905  1.00  0.00     0.026 A 
HETATM   33  C   UNL     1      41.951  -9.836  -0.260  1.00  0.00     0.040 A 
HETATM   34  C   UNL     1      42.307 -11.180  -0.445  1.00  0.00    -0.038 A 
HETATM   35 CL   UNL     1      42.283  -8.641  -1.461  1.00  0.00    -0.084 Cl
HETATM   36  C   UNL     1      43.002 -11.652  -1.693  1.00  0.00     0.050 C 
HETATM   37  C   UNL     1      41.997 -12.104   0.569  1.00  0.00     0.038 A 
ENDBRANCH   1  30
BRANCH   6  38
HETATM   38  N   UNL     1      43.198 -12.884   3.627  1.00  0.00    -0.384 N 
HETATM   39  H   UNL     1      43.905 -13.454   4.066  1.00  0.00     0.157 HD
HETATM   40  H   UNL     1      43.500 -12.061   3.120  1.00  0.00     0.157 HD
ENDBRANCH   6  38
TORSDOF 10
ENDMDL
MODEL 5
REMARK VINA RESULT:      -8.3      4.715     10.131
REMARK  10 active torsions:
REMARK  status: ('A' for Active; 'I' for Inactive)
REMARK    1  A    between atoms: C_7  and  N_8 
REMARK    2  A    between atoms: C_9  and  S_10 
REMARK    3  A    between atoms: S_10  and  C_11 
REMARK    4  A    between atoms: C_11  and  C_12 
REMARK       I    between atoms: C_12  and  N_13 
REMARK    5  A    between atoms: N_13  and  C_14 
REMARK    6  A    between atoms: C_14  and  C_15 
REMARK    7  A    between atoms: C_15  and  C_16 
REMARK    8  A    between atoms: C_18  and  O_19 
REMARK    9  A    between atoms: C_21  and  O_22 
REMARK   10  A    between atoms: C_30  and  N_31 
ROOT
HETATM    1  N   UNL     1      40.911 -12.238   5.452  1.00  0.00    -0.276 N 
HETATM    2  C   UNL     1      40.617 -11.884   4.105  1.00  0.00     0.177 A 
HETATM    3  N   UNL     1      39.856 -10.886   3.723  1.00  0.00    -0.204 NA
HETATM    4  C   UNL     1      39.360 -10.152   4.743  1.00  0.00     0.162 A 
HETATM    5  C   UNL     1      39.530 -10.313   6.089  1.00  0.00     0.081 A 
HETATM    6  C   UNL     1      40.319 -11.430   6.515  1.00  0.00     0.124 A 
HETATM    7  N   UNL     1      38.583  -9.039   4.608  1.00  0.00    -0.260 N 
HETATM    8  H   UNL     1      38.255  -8.609   3.750  1.00  0.00     0.191 HD
HETATM    9  N   UNL     1      38.252  -8.480   5.792  1.00  0.00    -0.177 NA
HETATM   10  C   UNL     1      38.848  -9.257   6.712  1.00  0.00     0.068 A 
HETATM   11  C   UNL     1      38.721  -8.912   8.148  1.00  0.00     0.073 C 
ENDROOT
BRANCH   2  12
HETATM   12  S   UNL     1      41.358 -12.784   2.764  1.00  0.00    -0.082 SA
BRANCH  12  13
HETATM   13  C   UNL     1      40.026 -13.961   2.401  1.00  0.00     0.185 C 
BRANCH  13  14
HETATM   14  C   UNL     1      40.544 -15.382   2.233  1.00  0.00     0.227 C 
HETATM   15  N   UNL     1      41.190 -15.581   1.022  1.00  0.00    -0.360 N 
HETATM   16  H   UNL     1      41.085 -14.880   0.300  1.00  0.00     0.162 HD
HETATM   17  O   UNL     1      40.374 -16.283   3.048  1.00  0.00    -0.273 OA
BRANCH  15  18
HETATM   18  C   UNL     1      41.663 -16.901   0.630  1.00  0.00     0.127 C 
BRANCH  18  19
HETATM   19  C   UNL     1      43.174 -17.026   0.822  1.00  0.00     0.058 C 
BRANCH  19  20
HETATM   20  C   UNL     1      43.548 -17.919   1.978  1.00  0.00    -0.054 A 
HETATM   21  C   UNL     1      43.860 -19.269   1.758  1.00  0.00     0.046 A 
HETATM   22  C   UNL     1      44.194 -20.111   2.828  1.00  0.00     0.102 A 
HETATM   23  C   UNL     1      44.220 -19.594   4.138  1.00  0.00     0.101 A 
HETATM   24  C   UNL     1      43.929 -18.243   4.353  1.00  0.00     0.040 A 
HETATM   25  C   UNL     1      43.596 -17.413   3.280  1.00  0.00     0.010 A 
BRANCH  22  26
HETATM   26  O   UNL     1      44.499 -21.444   2.699  1.00  0.00    -0.353 OA
HETATM   27  C   UNL     1      44.125 -22.095   1.494  1.00  0.00     0.210 C 
ENDBRANCH  22  26
BRANCH  23  28
HETATM   28  O   UNL     1      44.553 -20.482   5.132  1.00  0.00    -0.353 OA
HETATM   29  C   UNL     1      43.930 -20.315   6.397  1.00  0.00     0.210 C 
ENDBRANCH  23  28
ENDBRANCH  19  20
ENDBRANCH  18  19
ENDBRANCH  15  18
ENDBRANCH  13  14
ENDBRANCH  12  13
ENDBRANCH   2  12
BRANCH   1  30
HETATM   30  C   UNL     1      41.753 -13.343   5.779  1.00  0.00     0.043 A 
HETATM   31  C   UNL     1      41.240 -14.642   5.889  1.00  0.00     0.032 A 
HETATM   32  C   UNL     1      42.062 -15.694   6.298  1.00  0.00     0.026 A 
HETATM   33  C   UNL     1      43.401 -15.461   6.618  1.00  0.00     0.040 A 
HETATM   34  C   UNL     1      43.940 -14.169   6.524  1.00  0.00    -0.038 A 
HETATM   35 CL   UNL     1      44.353 -16.801   7.145  1.00  0.00    -0.084 Cl
HETATM   36  C   UNL     1      45.376 -13.883   6.871  1.00  0.00     0.050 C 
HETATM   37  C   UNL     1      43.106 -13.122   6.098  1.00  0.00     0.038 A 
ENDBRANCH   1  30
BRANCH   6  38
HETATM   38  N   UNL     1      40.449 -11.719   7.796  1.00  0.00    -0.384 N 
HETATM   39  H   UNL     1      41.237 -12.242   8.147  1.00  0.00     0.157 HD
HETATM   40  H   UNL     1      39.768 -11.380   8.464  1.00  0.00     0.157 HD
ENDBRANCH   6  38
TORSDOF 10
ENDMDL
MODEL 6
REMARK VINA RESULT:      -8.2      2.111      2.599
REMARK  10 active torsions:
REMARK  status: ('A' for Active; 'I' for Inactive)
REMARK    1  A    between atoms: C_7  and  N_8 
REMARK    2  A    between atoms: C_9  and  S_10 
REMARK    3  A    between atoms: S_10  and  C_11 
REMARK    4  A    between atoms: C_11  and  C_12 
REMARK       I    between atoms: C_12  and  N_13 
REMARK    5  A    between atoms: N_13  and  C_14 
REMARK    6  A    between atoms: C_14  and  C_15 
REMARK    7  A    between atoms: C_15  and  C_16 
REMARK    8  A    between atoms: C_18  and  O_19 
REMARK    9  A    between atoms: C_21  and  O_22 
REMARK   10  A    between atoms: C_30  and  N_31 
ROOT
HETATM    1  N   UNL     1      41.621 -16.020   2.651  1.00  0.00    -0.276 N 
HETATM    2  C   UNL     1      42.198 -15.531   3.856  1.00  0.00     0.177 A 
HETATM    3  N   UNL     1      43.030 -16.187   4.630  1.00  0.00    -0.204 NA
HETATM    4  C   UNL     1      43.351 -17.416   4.173  1.00  0.00     0.162 A 
HETATM    5  C   UNL     1      42.924 -18.062   3.046  1.00  0.00     0.081 A 
HETATM    6  C   UNL     1      41.976 -17.371   2.224  1.00  0.00     0.124 A 
HETATM    7  N   UNL     1      44.229 -18.274   4.768  1.00  0.00    -0.260 N 
HETATM    8  H   UNL     1      44.753 -18.133   5.625  1.00  0.00     0.191 HD
HETATM    9  N   UNL     1      44.389 -19.426   4.082  1.00  0.00    -0.177 NA
HETATM   10  C   UNL     1      43.593 -19.294   3.007  1.00  0.00     0.068 A 
HETATM   11  C   UNL     1      43.544 -20.380   2.000  1.00  0.00     0.073 C 
ENDROOT
BRANCH   2  12
HETATM   12  S   UNL     1      41.860 -13.873   4.397  1.00  0.00    -0.082 SA
BRANCH  12  13
HETATM   13  C   UNL     1      40.452 -14.182   5.500  1.00  0.00     0.185 C 
BRANCH  13  14
HETATM   14  C   UNL     1      39.994 -12.920   6.217  1.00  0.00     0.227 C 
HETATM   15  N   UNL     1      41.044 -12.199   6.765  1.00  0.00    -0.360 N 
HETATM   16  H   UNL     1      41.950 -12.644   6.832  1.00  0.00     0.162 HD
HETATM   17  O   UNL     1      38.821 -12.587   6.351  1.00  0.00    -0.273 OA
BRANCH  15  18
HETATM   18  C   UNL     1      40.801 -11.018   7.578  1.00  0.00     0.127 C 
BRANCH  18  19
HETATM   19  C   UNL     1      42.112 -10.407   8.075  1.00  0.00     0.058 C 
BRANCH  19  20
HETATM   20  C   UNL     1      42.246 -10.445   9.576  1.00  0.00    -0.054 A 
HETATM   21  C   UNL     1      41.107 -10.364  10.391  1.00  0.00     0.046 A 
HETATM   22  C   UNL     1      41.220 -10.383  11.787  1.00  0.00     0.102 A 
HETATM   23  C   UNL     1      42.494 -10.490  12.380  1.00  0.00     0.101 A 
HETATM   24  C   UNL     1      43.627 -10.591  11.566  1.00  0.00     0.040 A 
HETATM   25  C   UNL     1      43.502 -10.570  10.174  1.00  0.00     0.010 A 
BRANCH  22  26
HETATM   26  O   UNL     1      40.159 -10.296  12.654  1.00  0.00    -0.353 OA
HETATM   27  C   UNL     1      39.470  -9.057  12.732  1.00  0.00     0.210 C 
ENDBRANCH  22  26
BRANCH  23  28
HETATM   28  O   UNL     1      42.524 -10.499  13.753  1.00  0.00    -0.353 OA
HETATM   29  C   UNL     1      42.956  -9.315  14.408  1.00  0.00     0.210 C 
ENDBRANCH  23  28
ENDBRANCH  19  20
ENDBRANCH  18  19
ENDBRANCH  15  18
ENDBRANCH  13  14
ENDBRANCH  12  13
ENDBRANCH   2  12
BRANCH   1  30
HETATM   30  C   UNL     1      40.721 -15.237   1.867  1.00  0.00     0.043 A 
HETATM   31  C   UNL     1      39.343 -15.238   2.123  1.00  0.00     0.032 A 
HETATM   32  C   UNL     1      38.470 -14.535   1.290  1.00  0.00     0.026 A 
HETATM   33  C   UNL     1      38.957 -13.838   0.183  1.00  0.00     0.040 A 
HETATM   34  C   UNL     1      40.331 -13.827  -0.102  1.00  0.00    -0.038 A 
HETATM   35 CL   UNL     1      37.820 -13.017  -0.822  1.00  0.00    -0.084 Cl
HETATM   36  C   UNL     1      40.887 -13.095  -1.293  1.00  0.00     0.050 C 
HETATM   37  C   UNL     1      41.201 -14.526   0.752  1.00  0.00     0.038 A 
ENDBRANCH   1  30
BRANCH   6  38
HETATM   38  N   UNL     1      41.434 -17.960   1.174  1.00  0.00    -0.384 N 
HETATM   39  H   UNL     1      40.443 -18.134   1.113  1.00  0.00     0.157 HD
HETATM   40  H   UNL     1      42.011 -18.217   0.382  1.00  0.00     0.157 HD
ENDBRANCH   6  38
TORSDOF 10
ENDMDL
MODEL 7
REMARK VINA RESULT:      -8.2      2.919      5.156
REMARK  10 active torsions:
REMARK  status: ('A' for Active; 'I' for Inactive)
REMARK    1  A    between atoms: C_7  and  N_8 
REMARK    2  A    between atoms: C_9  and  S_10 
REMARK    3  A    between atoms: S_10  and  C_11 
REMARK    4  A    between atoms: C_11  and  C_12 
REMARK       I    between atoms: C_12  and  N_13 
REMARK    5  A    between atoms: N_13  and  C_14 
REMARK    6  A    between atoms: C_14  and  C_15 
REMARK    7  A    between atoms: C_15  and  C_16 
REMARK    8  A    between atoms: C_18  and  O_19 
REMARK    9  A    between atoms: C_21  and  O_22 
REMARK   10  A    between atoms: C_30  and  N_31 
ROOT
HETATM    1  N   UNL     1      42.804 -15.681   4.843  1.00  0.00    -0.276 N 
HETATM    2  C   UNL     1      43.421 -14.566   5.475  1.00  0.00     0.177 A 
HETATM    3  N   UNL     1      43.280 -13.310   5.124  1.00  0.00    -0.204 NA
HETATM    4  C   UNL     1      42.442 -13.122   4.083  1.00  0.00     0.162 A 
HETATM    5  C   UNL     1      41.745 -14.043   3.353  1.00  0.00     0.081 A 
HETATM    6  C   UNL     1      41.934 -15.421   3.698  1.00  0.00     0.124 A 
HETATM    7  N   UNL     1      42.092 -11.910   3.561  1.00  0.00    -0.260 N 
HETATM    8  H   UNL     1      42.407 -10.992   3.854  1.00  0.00     0.191 HD
HETATM    9  N   UNL     1      41.210 -12.009   2.542  1.00  0.00    -0.177 NA
HETATM   10  C   UNL     1      40.982 -13.328   2.419  1.00  0.00     0.068 A 
HETATM   11  C   UNL     1      40.020 -13.806   1.398  1.00  0.00     0.073 C 
ENDROOT
BRANCH   2  12
HETATM   12  S   UNL     1      44.437 -14.807   6.913  1.00  0.00    -0.082 SA
BRANCH  12  13
HETATM   13  C   UNL     1      45.769 -13.625   6.558  1.00  0.00     0.185 C 
BRANCH  13  14
HETATM   14  C   UNL     1      46.076 -12.730   7.750  1.00  0.00     0.227 C 
HETATM   15  N   UNL     1      45.026 -12.653   8.652  1.00  0.00    -0.360 N 
HETATM   16  H   UNL     1      44.119 -12.997   8.366  1.00  0.00     0.162 HD
HETATM   17  O   UNL     1      47.116 -12.096   7.889  1.00  0.00    -0.273 OA
BRANCH  15  18
HETATM   18  C   UNL     1      45.088 -11.765   9.804  1.00  0.00     0.127 C 
BRANCH  18  19
HETATM   19  C   UNL     1      44.294 -12.329  10.982  1.00  0.00     0.058 C 
BRANCH  19  20
HETATM   20  C   UNL     1      43.116 -11.469  11.363  1.00  0.00    -0.054 A 
HETATM   21  C   UNL     1      42.769 -11.302  12.712  1.00  0.00     0.046 A 
HETATM   22  C   UNL     1      41.667 -10.517  13.077  1.00  0.00     0.102 A 
HETATM   23  C   UNL     1      40.902  -9.884  12.078  1.00  0.00     0.101 A 
HETATM   24  C   UNL     1      41.262 -10.035  10.735  1.00  0.00     0.040 A 
HETATM   25  C   UNL     1      42.362 -10.821  10.381  1.00  0.00     0.010 A 
BRANCH  22  26
HETATM   26  O   UNL     1      41.254 -10.313  14.371  1.00  0.00    -0.353 OA
HETATM   27  C   UNL     1      42.203  -9.802  15.295  1.00  0.00     0.210 C 
ENDBRANCH  22  26
BRANCH  23  28
HETATM   28  O   UNL     1      39.837  -9.135  12.514  1.00  0.00    -0.353 OA
HETATM   29  C   UNL     1      38.561  -9.423  11.961  1.00  0.00     0.210 C 
ENDBRANCH  23  28
ENDBRANCH  19  20
ENDBRANCH  18  19
ENDBRANCH  15  18
ENDBRANCH  13  14
ENDBRANCH  12  13
ENDBRANCH   2  12
BRANCH   1  30
HETATM   30  C   UNL     1      43.012 -17.020   5.291  1.00  0.00     0.043 A 
HETATM   31  C   UNL     1      42.562 -17.446   6.547  1.00  0.00     0.032 A 
HETATM   32  C   UNL     1      42.853 -18.733   7.003  1.00  0.00     0.026 A 
HETATM   33  C   UNL     1      43.612 -19.605   6.219  1.00  0.00     0.040 A 
HETATM   34  C   UNL     1      44.084 -19.203   4.961  1.00  0.00    -0.038 A 
HETATM   35 CL   UNL     1      43.962 -21.170   6.856  1.00  0.00    -0.084 Cl
HETATM   36  C   UNL     1      44.912 -20.114   4.097  1.00  0.00     0.050 C 
HETATM   37  C   UNL     1      43.771 -17.910   4.507  1.00  0.00     0.038 A 
ENDBRANCH   1  30
BRANCH   6  38
HETATM   38  N   UNL     1      41.382 -16.381   2.980  1.00  0.00    -0.384 N 
HETATM   39  H   UNL     1      41.142 -17.275   3.381  1.00  0.00     0.157 HD
HETATM   40  H   UNL     1      41.151 -16.219   2.008  1.00  0.00     0.157 HD
ENDBRANCH   6  38
TORSDOF 10
ENDMDL
MODEL 8
REMARK VINA RESULT:      -8.1      2.005      2.898
REMARK  10 active torsions:
REMARK  status: ('A' for Active; 'I' for Inactive)
REMARK    1  A    between atoms: C_7  and  N_8 
REMARK    2  A    between atoms: C_9  and  S_10 
REMARK    3  A    between atoms: S_10  and  C_11 
REMARK    4  A    between atoms: C_11  and  C_12 
REMARK       I    between atoms: C_12  and  N_13 
REMARK    5  A    between atoms: N_13  and  C_14 
REMARK    6  A    between atoms: C_14  and  C_15 
REMARK    7  A    between atoms: C_15  and  C_16 
REMARK    8  A    between atoms: C_18  and  O_19 
REMARK    9  A    between atoms: C_21  and  O_22 
REMARK   10  A    between atoms: C_30  and  N_31 
ROOT
HETATM    1  N   UNL     1      41.964 -15.987   3.156  1.00  0.00    -0.276 N 
HETATM    2  C   UNL     1      42.369 -15.391   4.382  1.00  0.00     0.177 A 
HETATM    3  N   UNL     1      43.143 -15.945   5.285  1.00  0.00    -0.204 NA
HETATM    4  C   UNL     1      43.584 -17.176   4.950  1.00  0.00     0.162 A 
HETATM    5  C   UNL     1      43.328 -17.914   3.828  1.00  0.00     0.081 A 
HETATM    6  C   UNL     1      42.442 -17.336   2.861  1.00  0.00     0.124 A 
HETATM    7  N   UNL     1      44.436 -17.939   5.694  1.00  0.00    -0.260 N 
HETATM    8  H   UNL     1      44.849 -17.714   6.592  1.00  0.00     0.191 HD
HETATM    9  N   UNL     1      44.739 -19.117   5.107  1.00  0.00    -0.177 NA
HETATM   10  C   UNL     1      44.065 -19.100   3.945  1.00  0.00     0.068 A 
HETATM   11  C   UNL     1      44.195 -20.245   3.013  1.00  0.00     0.073 C 
ENDROOT
BRANCH   2  12
HETATM   12  S   UNL     1      41.877 -13.729   4.772  1.00  0.00    -0.082 SA
BRANCH  12  13
HETATM   13  C   UNL     1      40.399 -14.064   5.769  1.00  0.00     0.185 C 
BRANCH  13  14
HETATM   14  C   UNL     1      39.728 -12.785   6.252  1.00  0.00     0.227 C 
HETATM   15  N   UNL     1      40.402 -12.188   7.306  1.00  0.00    -0.360 N 
HETATM   16  H   UNL     1      41.116 -12.721   7.786  1.00  0.00     0.162 HD
HETATM   17  O   UNL     1      38.677 -12.343   5.803  1.00  0.00    -0.273 OA
BRANCH  15  18
HETATM   18  C   UNL     1      39.862 -11.013   7.974  1.00  0.00     0.127 C 
BRANCH  18  19
HETATM   19  C   UNL     1      40.881  -9.874   8.002  1.00  0.00     0.058 C 
BRANCH  19  20
HETATM   20  C   UNL     1      41.579  -9.743   9.332  1.00  0.00    -0.054 A 
HETATM   21  C   UNL     1      42.586 -10.650   9.695  1.00  0.00     0.046 A 
HETATM   22  C   UNL     1      43.231 -10.547  10.935  1.00  0.00     0.102 A 
HETATM   23  C   UNL     1      42.867  -9.517  11.825  1.00  0.00     0.101 A 
HETATM   24  C   UNL     1      41.878  -8.601  11.452  1.00  0.00     0.040 A 
HETATM   25  C   UNL     1      41.240  -8.714  10.215  1.00  0.00     0.010 A 
BRANCH  22  26
HETATM   26  O   UNL     1      44.215 -11.400  11.371  1.00  0.00    -0.353 OA
HETATM   27  C   UNL     1      45.399 -11.494  10.594  1.00  0.00     0.210 C 
ENDBRANCH  22  26
BRANCH  23  28
HETATM   28  O   UNL     1      43.542  -9.484  13.021  1.00  0.00    -0.353 OA
HETATM   29  C   UNL     1      42.801  -9.755  14.201  1.00  0.00     0.210 C 
ENDBRANCH  23  28
ENDBRANCH  19  20
ENDBRANCH  18  19
ENDBRANCH  15  18
ENDBRANCH  13  14
ENDBRANCH  12  13
ENDBRANCH   2  12
BRANCH   1  30
HETATM   30  C   UNL     1      41.116 -15.312   2.227  1.00  0.00     0.043 A 
HETATM   31  C   UNL     1      39.721 -15.372   2.337  1.00  0.00     0.032 A 
HETATM   32  C   UNL     1      38.909 -14.778   1.368  1.00  0.00     0.026 A 
HETATM   33  C   UNL     1      39.479 -14.132   0.269  1.00  0.00     0.040 A 
HETATM   34  C   UNL     1      40.873 -14.063   0.129  1.00  0.00    -0.038 A 
HETATM   35 CL   UNL     1      38.418 -13.447  -0.907  1.00  0.00    -0.084 Cl
HETATM   36  C   UNL     1      41.518 -13.384  -1.048  1.00  0.00     0.050 C 
HETATM   37  C   UNL     1      41.679 -14.652   1.118  1.00  0.00     0.038 A 
ENDBRANCH   1  30
BRANCH   6  38
HETATM   38  N   UNL     1      42.059 -18.019   1.799  1.00  0.00    -0.384 N 
HETATM   39  H   UNL     1      41.905 -19.016   1.834  1.00  0.00     0.157 HD
HETATM   40  H   UNL     1      41.874 -17.540   0.926  1.00  0.00     0.157 HD
ENDBRANCH   6  38
TORSDOF 10
ENDMDL
MODEL 9
REMARK VINA RESULT:      -8.1      6.188      9.807
REMARK  10 active torsions:
REMARK  status: ('A' for Active; 'I' for Inactive)
REMARK    1  A    between atoms: C_7  and  N_8 
REMARK    2  A    between atoms: C_9  and  S_10 
REMARK    3  A    between atoms: S_10  and  C_11 
REMARK    4  A    between atoms: C_11  and  C_12 
REMARK       I    between atoms: C_12  and  N_13 
REMARK    5  A    between atoms: N_13  and  C_14 
REMARK    6  A    between atoms: C_14  and  C_15 
REMARK    7  A    between atoms: C_15  and  C_16 
REMARK    8  A    between atoms: C_18  and  O_19 
REMARK    9  A    between atoms: C_21  and  O_22 
REMARK   10  A    between atoms: C_30  and  N_31 
ROOT
HETATM    1  N   UNL     1      39.001 -12.125  -0.292  1.00  0.00    -0.276 N 
HETATM    2  C   UNL     1      39.350 -13.484  -0.054  1.00  0.00     0.177 A 
HETATM    3  N   UNL     1      40.379 -14.114  -0.570  1.00  0.00    -0.204 NA
HETATM    4  C   UNL     1      41.151 -13.343  -1.365  1.00  0.00     0.162 A 
HETATM    5  C   UNL     1      41.002 -12.029  -1.709  1.00  0.00     0.081 A 
HETATM    6  C   UNL     1      39.853 -11.349  -1.189  1.00  0.00     0.124 A 
HETATM    7  N   UNL     1      42.300 -13.748  -1.980  1.00  0.00    -0.260 N 
HETATM    8  H   UNL     1      42.734 -14.663  -1.948  1.00  0.00     0.191 HD
HETATM    9  N   UNL     1      42.893 -12.764  -2.692  1.00  0.00    -0.177 NA
HETATM   10  C   UNL     1      42.099 -11.694  -2.516  1.00  0.00     0.068 A 
HETATM   11  C   UNL     1      42.472 -10.402  -3.141  1.00  0.00     0.073 C 
ENDROOT
BRANCH   2  12
HETATM   12  S   UNL     1      38.395 -14.465   1.078  1.00  0.00    -0.082 SA
BRANCH  12  13
HETATM   13  C   UNL     1      39.492 -14.435   2.524  1.00  0.00     0.185 C 
BRANCH  13  14
HETATM   14  C   UNL     1      40.316 -15.709   2.647  1.00  0.00     0.227 C 
HETATM   15  N   UNL     1      40.371 -16.433   1.466  1.00  0.00    -0.360 N 
HETATM   16  H   UNL     1      39.726 -16.193   0.724  1.00  0.00     0.162 HD
HETATM   17  O   UNL     1      40.841 -16.095   3.686  1.00  0.00    -0.273 OA
BRANCH  15  18
HETATM   18  C   UNL     1      41.024 -17.732   1.411  1.00  0.00     0.127 C 
BRANCH  18  19
HETATM   19  C   UNL     1      42.543 -17.585   1.320  1.00  0.00     0.058 C 
BRANCH  19  20
HETATM   20  C   UNL     1      43.281 -18.557   2.205  1.00  0.00    -0.054 A 
HETATM   21  C   UNL     1      43.703 -18.168   3.486  1.00  0.00     0.046 A 
HETATM   22  C   UNL     1      44.404 -19.058   4.311  1.00  0.00     0.102 A 
HETATM   23  C   UNL     1      44.682 -20.360   3.851  1.00  0.00     0.101 A 
HETATM   24  C   UNL     1      44.242 -20.753   2.583  1.00  0.00     0.040 A 
HETATM   25  C   UNL     1      43.547 -19.857   1.767  1.00  0.00     0.010 A 
BRANCH  22  26
HETATM   26  O   UNL     1      44.861 -18.753   5.569  1.00  0.00    -0.353 OA
HETATM   27  C   UNL     1      43.910 -18.686   6.621  1.00  0.00     0.210 C 
ENDBRANCH  22  26
BRANCH  23  28
HETATM   28  O   UNL     1      45.374 -21.172   4.716  1.00  0.00    -0.353 OA
HETATM   29  C   UNL     1      44.812 -22.440   5.019  1.00  0.00     0.210 C 
ENDBRANCH  23  28
ENDBRANCH  19  20
ENDBRANCH  18  19
ENDBRANCH  15  18
ENDBRANCH  13  14
ENDBRANCH  12  13
ENDBRANCH   2  12
BRANCH   1  30
HETATM   30  C   UNL     1      37.860 -11.517   0.313  1.00  0.00     0.043 A 
HETATM   31  C   UNL     1      36.607 -11.537  -0.313  1.00  0.00     0.032 A 
HETATM   32  C   UNL     1      35.524 -10.861   0.252  1.00  0.00     0.026 A 
HETATM   33  C   UNL     1      35.682 -10.142   1.439  1.00  0.00     0.040 A 
HETATM   34  C   UNL     1      36.927 -10.098   2.084  1.00  0.00    -0.038 A 
HETATM   35 CL   UNL     1      34.310  -9.304   2.067  1.00  0.00    -0.084 Cl
HETATM   36  C   UNL     1      37.133  -9.326   3.358  1.00  0.00     0.050 C 
HETATM   37  C   UNL     1      38.005 -10.796   1.513  1.00  0.00     0.038 A 
ENDBRANCH   1  30
BRANCH   6  38
HETATM   38  N   UNL     1      39.577 -10.111  -1.552  1.00  0.00    -0.384 N 
HETATM   39  H   UNL     1      39.067  -9.480  -0.952  1.00  0.00     0.157 HD
HETATM   40  H   UNL     1      39.911  -9.755  -2.440  1.00  0.00     0.157 HD
ENDBRANCH   6  38
TORSDOF 10
ENDMDL
MODEL 10
REMARK VINA RESULT:      -8.1      5.377      8.915
REMARK  10 active torsions:
REMARK  status: ('A' for Active; 'I' for Inactive)
REMARK    1  A    between atoms: C_7  and  N_8 
REMARK    2  A    between atoms: C_9  and  S_10 
REMARK    3  A    between atoms: S_10  and  C_11 
REMARK    4  A    between atoms: C_11  and  C_12 
REMARK       I    between atoms: C_12  and  N_13 
REMARK    5  A    between atoms: N_13  and  C_14 
REMARK    6  A    between atoms: C_14  and  C_15 
REMARK    7  A    between atoms: C_15  and  C_16 
REMARK    8  A    between atoms: C_18  and  O_19 
REMARK    9  A    between atoms: C_21  and  O_22 
REMARK   10  A    between atoms: C_30  and  N_31 
ROOT
HETATM    1  N   UNL     1      42.759 -18.349   3.604  1.00  0.00    -0.276 N 
HETATM    2  C   UNL     1      42.358 -18.630   2.268  1.00  0.00     0.177 A 
HETATM    3  N   UNL     1      42.715 -19.679   1.565  1.00  0.00    -0.204 NA
HETATM    4  C   UNL     1      43.507 -20.544   2.232  1.00  0.00     0.162 A 
HETATM    5  C   UNL     1      43.990 -20.470   3.509  1.00  0.00     0.081 A 
HETATM    6  C   UNL     1      43.646 -19.303   4.265  1.00  0.00     0.124 A 
HETATM    7  N   UNL     1      43.972 -21.729   1.740  1.00  0.00    -0.260 N 
HETATM    8  H   UNL     1      43.812 -22.127   0.822  1.00  0.00     0.191 HD
HETATM    9  N   UNL     1      44.719 -22.414   2.633  1.00  0.00    -0.177 NA
HETATM   10  C   UNL     1      44.722 -21.645   3.734  1.00  0.00     0.068 A 
HETATM   11  C   UNL     1      45.433 -22.114   4.947  1.00  0.00     0.073 C 
ENDROOT
BRANCH   2  12
HETATM   12  S   UNL     1      41.228 -17.546   1.429  1.00  0.00    -0.082 SA
BRANCH  12  13
HETATM   13  C   UNL     1      42.406 -16.434   0.612  1.00  0.00     0.185 C 
BRANCH  13  14
HETATM   14  C   UNL     1      41.721 -15.224  -0.007  1.00  0.00     0.227 C 
HETATM   15  N   UNL     1      41.379 -15.418  -1.337  1.00  0.00    -0.360 N 
HETATM   16  H   UNL     1      41.776 -16.211  -1.825  1.00  0.00     0.162 HD
HETATM   17  O   UNL     1      41.529 -14.163   0.577  1.00  0.00    -0.273 OA
BRANCH  15  18
HETATM   18  C   UNL     1      40.809 -14.341  -2.132  1.00  0.00     0.127 C 
BRANCH  18  19
HETATM   19  C   UNL     1      41.827 -13.792  -3.131  1.00  0.00     0.058 C 
BRANCH  19  20
HETATM   20  C   UNL     1      42.196 -12.355  -2.864  1.00  0.00    -0.054 A 
HETATM   21  C   UNL     1      41.882 -11.357  -3.800  1.00  0.00     0.046 A 
HETATM   22  C   UNL     1      42.234 -10.021  -3.569  1.00  0.00     0.102 A 
HETATM   23  C   UNL     1      42.907  -9.674  -2.381  1.00  0.00     0.101 A 
HETATM   24  C   UNL     1      43.201 -10.666  -1.441  1.00  0.00     0.040 A 
HETATM   25  C   UNL     1      42.847 -11.996  -1.681  1.00  0.00     0.010 A 
BRANCH  22  26
HETATM   26  O   UNL     1      41.974  -8.989  -4.438  1.00  0.00    -0.353 OA
HETATM   27  C   UNL     1      42.647  -8.992  -5.688  1.00  0.00     0.210 C 
ENDBRANCH  22  26
BRANCH  23  28
HETATM   28  O   UNL     1      43.221  -8.346  -2.229  1.00  0.00    -0.353 OA
HETATM   29  C   UNL     1      44.204  -8.010  -1.261  1.00  0.00     0.210 C 
ENDBRANCH  23  28
ENDBRANCH  19  20
ENDBRANCH  18  19
ENDBRANCH  15  18
ENDBRANCH  13  14
ENDBRANCH  12  13
ENDBRANCH   2  12
BRANCH   1  30
HETATM   30  C   UNL     1      42.323 -17.180   4.297  1.00  0.00     0.043 A 
HETATM   31  C   UNL     1      41.196 -17.205   5.128  1.00  0.00     0.032 A 
HETATM   32  C   UNL     1      40.734 -16.030   5.727  1.00  0.00     0.026 A 
HETATM   33  C   UNL     1      41.381 -14.816   5.491  1.00  0.00     0.040 A 
HETATM   34  C   UNL     1      42.507 -14.760   4.657  1.00  0.00    -0.038 A 
HETATM   35 CL   UNL     1      40.740 -13.398   6.238  1.00  0.00    -0.084 Cl
HETATM   36  C   UNL     1      43.221 -13.466   4.374  1.00  0.00     0.050 C 
HETATM   37  C   UNL     1      42.971 -15.951   4.072  1.00  0.00     0.038 A 
ENDBRANCH   1  30
BRANCH   6  38
HETATM   38  N   UNL     1      44.152 -19.101   5.467  1.00  0.00    -0.384 N 
HETATM   39  H   UNL     1      44.363 -18.176   5.809  1.00  0.00     0.157 HD
HETATM   40  H   UNL     1      44.304 -19.884   6.092  1.00  0.00     0.157 HD
ENDBRANCH   6  38
TORSDOF 10
ENDMDL
