MODEL 1
REMARK VINA RESULT:      -8.7      0.000      0.000
REMARK  8 active torsions:
REMARK  status: ('A' for Active; 'I' for Inactive)
REMARK    1  A    between atoms: O_2  and  C_3 
REMARK    2  A    between atoms: C_4  and  O_5 
REMARK    3  A    between atoms: C_13  and  C_14 
REMARK    4  A    between atoms: C_14  and  N_15 
REMARK    5  A    between atoms: N_15  and  C_16 
REMARK    6  A    between atoms: C_17  and  C_18 
REMARK       I    between atoms: C_18  and  N_19 
REMARK    7  A    between atoms: N_19  and  C_20 
REMARK    8  A    between atoms: C_20  and  C_21 
ROOT
HETATM    1  N   UNL     1      43.493 -17.689   3.167  1.00  0.00    -0.285 NA
HETATM    2  H   UNL     1      43.666 -17.195   4.049  1.00  0.00     0.128 HD
ENDROOT
BRANCH   1   3
HETATM    3  C   UNL     1      42.107 -17.485   2.706  1.00  0.00     0.171 C 
BRANCH   3   4
HETATM    4  C   UNL     1      41.937 -16.335   1.720  1.00  0.00     0.120 A 
HETATM    5  N   UNL     1      42.240 -15.068   2.134  1.00  0.00    -0.310 N 
HETATM    6  C   UNL     1      42.135 -13.969   1.317  1.00  0.00     0.259 A 
HETATM    7  H   UNL     1      42.594 -14.903   3.068  1.00  0.00     0.170 HD
HETATM    8  C   UNL     1      41.674 -14.230  -0.054  1.00  0.00     0.064 A 
HETATM    9  O   UNL     1      42.412 -12.835   1.685  1.00  0.00    -0.267 OA
HETATM   10  C   UNL     1      41.388 -15.549  -0.393  1.00  0.00     0.077 A 
HETATM   11  C   UNL     1      41.553 -13.199  -0.986  1.00  0.00     0.059 A 
HETATM   12  C   UNL     1      40.964 -15.831  -1.694  1.00  0.00     0.072 A 
HETATM   13  N   UNL     1      41.517 -16.605   0.522  1.00  0.00    -0.233 NA
HETATM   14  C   UNL     1      40.821 -14.808  -2.644  1.00  0.00     0.103 A 
HETATM   15  C   UNL     1      41.156 -13.489  -2.294  1.00  0.00     0.102 A 
BRANCH  14  16
HETATM   16  O   UNL     1      40.396 -15.061  -3.922  1.00  0.00    -0.353 OA
HETATM   17  C   UNL     1      39.102 -15.647  -4.023  1.00  0.00     0.210 C 
ENDBRANCH  14  16
BRANCH  15  18
HETATM   18  O   UNL     1      41.068 -12.389  -3.106  1.00  0.00    -0.353 OA
HETATM   19  C   UNL     1      42.287 -11.979  -3.716  1.00  0.00     0.210 C 
ENDBRANCH  15  18
ENDBRANCH   3   4
ENDBRANCH   1   3
BRANCH   1  20
HETATM   20  C   UNL     1      43.910 -19.041   3.361  1.00  0.00     0.024 A 
HETATM   21  C   UNL     1      44.356 -19.494   4.630  1.00  0.00     0.053 A 
HETATM   22  C   UNL     1      44.736 -20.837   4.822  1.00  0.00     0.019 A 
HETATM   23  C   UNL     1      44.707 -21.744   3.769  1.00  0.00     0.001 A 
HETATM   24  C   UNL     1      44.296 -21.317   2.516  1.00  0.00     0.002 A 
HETATM   25  C   UNL     1      43.906 -19.987   2.316  1.00  0.00     0.024 A 
BRANCH  21  26
HETATM   26  C   UNL     1      44.498 -18.618   5.829  1.00  0.00     0.253 C 
HETATM   27  N   UNL     1      43.336 -18.088   6.329  1.00  0.00    -0.351 N 
HETATM   28  H   UNL     1      42.458 -18.381   5.914  1.00  0.00     0.163 HD
HETATM   29  O   UNL     1      45.607 -18.366   6.286  1.00  0.00    -0.268 OA
BRANCH  27  30
HETATM   30  C   UNL     1      43.325 -17.170   7.440  1.00  0.00     0.187 C 
BRANCH  30  31
HETATM   31  C   UNL     1      43.554 -15.799   6.931  1.00  0.00     0.070 A 
HETATM   32  O   UNL     1      44.388 -15.010   7.665  1.00  0.00    -0.325 OA
HETATM   33  C   UNL     1      44.428 -13.798   7.053  1.00  0.00     0.142 A 
HETATM   34  C   UNL     1      43.648 -13.804   5.921  1.00  0.00     0.027 A 
HETATM   35  C   UNL     1      43.084 -15.099   5.838  1.00  0.00     0.036 A 
ENDBRANCH  30  31
ENDBRANCH  27  30
ENDBRANCH  21  26
ENDBRANCH   1  20
TORSDOF 8
ENDMDL
MODEL 2
REMARK VINA RESULT:      -8.6      1.822      2.259
REMARK  8 active torsions:
REMARK  status: ('A' for Active; 'I' for Inactive)
REMARK    1  A    between atoms: O_2  and  C_3 
REMARK    2  A    between atoms: C_4  and  O_5 
REMARK    3  A    between atoms: C_13  and  C_14 
REMARK    4  A    between atoms: C_14  and  N_15 
REMARK    5  A    between atoms: N_15  and  C_16 
REMARK    6  A    between atoms: C_17  and  C_18 
REMARK       I    between atoms: C_18  and  N_19 
REMARK    7  A    between atoms: N_19  and  C_20 
REMARK    8  A    between atoms: C_20  and  C_21 
ROOT
HETATM    1  N   UNL     1      43.627 -18.432   2.571  1.00  0.00    -0.285 NA
HETATM    2  H   UNL     1      43.483 -17.731   3.306  1.00  0.00     0.128 HD
ENDROOT
BRANCH   1   3
HETATM    3  C   UNL     1      42.451 -18.527   1.688  1.00  0.00     0.171 C 
BRANCH   3   4
HETATM    4  C   UNL     1      41.697 -17.215   1.502  1.00  0.00     0.120 A 
HETATM    5  N   UNL     1      41.022 -16.692   2.570  1.00  0.00    -0.310 N 
HETATM    6  C   UNL     1      40.327 -15.509   2.509  1.00  0.00     0.259 A 
HETATM    7  H   UNL     1      41.044 -17.156   3.470  1.00  0.00     0.170 HD
HETATM    8  C   UNL     1      40.350 -14.818   1.212  1.00  0.00     0.064 A 
HETATM    9  O   UNL     1      39.727 -15.037   3.466  1.00  0.00    -0.267 OA
HETATM   10  C   UNL     1      41.061 -15.418   0.178  1.00  0.00     0.077 A 
HETATM   11  C   UNL     1      39.704 -13.594   1.032  1.00  0.00     0.059 A 
HETATM   12  C   UNL     1      41.115 -14.777  -1.062  1.00  0.00     0.072 A 
HETATM   13  N   UNL     1      41.732 -16.641   0.339  1.00  0.00    -0.233 NA
HETATM   14  C   UNL     1      40.462 -13.553  -1.269  1.00  0.00     0.103 A 
HETATM   15  C   UNL     1      39.784 -12.942  -0.201  1.00  0.00     0.102 A 
BRANCH  14  16
HETATM   16  O   UNL     1      40.492 -12.911  -2.480  1.00  0.00    -0.353 OA
HETATM   17  C   UNL     1      41.075 -13.659  -3.544  1.00  0.00     0.210 C 
ENDBRANCH  14  16
BRANCH  15  18
HETATM   18  O   UNL     1      39.100 -11.755  -0.248  1.00  0.00    -0.353 OA
HETATM   19  C   UNL     1      37.681 -11.865  -0.229  1.00  0.00     0.210 C 
ENDBRANCH  15  18
ENDBRANCH   3   4
ENDBRANCH   1   3
BRANCH   1  20
HETATM   20  C   UNL     1      44.038 -19.635   3.222  1.00  0.00     0.024 A 
HETATM   21  C   UNL     1      44.337 -19.650   4.609  1.00  0.00     0.053 A 
HETATM   22  C   UNL     1      44.711 -20.847   5.252  1.00  0.00     0.019 A 
HETATM   23  C   UNL     1      44.820 -22.036   4.538  1.00  0.00     0.001 A 
HETATM   24  C   UNL     1      44.555 -22.038   3.177  1.00  0.00     0.002 A 
HETATM   25  C   UNL     1      44.172 -20.856   2.531  1.00  0.00     0.024 A 
BRANCH  21  26
HETATM   26  C   UNL     1      44.323 -18.441   5.482  1.00  0.00     0.253 C 
HETATM   27  N   UNL     1      43.228 -17.624   5.362  1.00  0.00    -0.351 N 
HETATM   28  H   UNL     1      42.469 -17.924   4.760  1.00  0.00     0.163 HD
HETATM   29  O   UNL     1      45.273 -18.194   6.216  1.00  0.00    -0.268 OA
BRANCH  27  30
HETATM   30  C   UNL     1      43.108 -16.385   6.090  1.00  0.00     0.187 C 
BRANCH  30  31
HETATM   31  C   UNL     1      43.114 -15.261   5.127  1.00  0.00     0.070 A 
HETATM   32  O   UNL     1      43.610 -15.527   3.887  1.00  0.00    -0.325 OA
HETATM   33  C   UNL     1      43.562 -14.366   3.182  1.00  0.00     0.142 A 
HETATM   34  C   UNL     1      43.020 -13.361   3.947  1.00  0.00     0.027 A 
HETATM   35  C   UNL     1      42.725 -13.939   5.205  1.00  0.00     0.036 A 
ENDBRANCH  30  31
ENDBRANCH  27  30
ENDBRANCH  21  26
ENDBRANCH   1  20
TORSDOF 8
ENDMDL
MODEL 3
REMARK VINA RESULT:      -8.5      2.137      7.839
REMARK  8 active torsions:
REMARK  status: ('A' for Active; 'I' for Inactive)
REMARK    1  A    between atoms: O_2  and  C_3 
REMARK    2  A    between atoms: C_4  and  O_5 
REMARK    3  A    between atoms: C_13  and  C_14 
REMARK    4  A    between atoms: C_14  and  N_15 
REMARK    5  A    between atoms: N_15  and  C_16 
REMARK    6  A    between atoms: C_17  and  C_18 
REMARK       I    between atoms: C_18  and  N_19 
REMARK    7  A    between atoms: N_19  and  C_20 
REMARK    8  A    between atoms: C_20  and  C_21 
ROOT
HETATM    1  N   UNL     1      41.906 -15.707  -0.003  1.00  0.00    -0.285 NA
HETATM    2  H   UNL     1      42.704 -16.254  -0.345  1.00  0.00     0.128 HD
ENDROOT
BRANCH   1   3
HETATM    3  C   UNL     1      40.950 -16.558   0.727  1.00  0.00     0.171 C 
BRANCH   3   4
HETATM    4  C   UNL     1      41.438 -17.018   2.097  1.00  0.00     0.120 A 
HETATM    5  N   UNL     1      40.836 -16.503   3.212  1.00  0.00    -0.310 N 
HETATM    6  C   UNL     1      41.191 -16.863   4.488  1.00  0.00     0.259 A 
HETATM    7  H   UNL     1      40.066 -15.850   3.125  1.00  0.00     0.170 HD
HETATM    8  C   UNL     1      42.272 -17.855   4.597  1.00  0.00     0.064 A 
HETATM    9  O   UNL     1      40.649 -16.408   5.486  1.00  0.00    -0.267 OA
HETATM   10  C   UNL     1      42.829 -18.328   3.413  1.00  0.00     0.077 A 
HETATM   11  C   UNL     1      42.704 -18.322   5.839  1.00  0.00     0.059 A 
HETATM   12  C   UNL     1      43.847 -19.282   3.484  1.00  0.00     0.072 A 
HETATM   13  N   UNL     1      42.401 -17.885   2.152  1.00  0.00    -0.233 NA
HETATM   14  C   UNL     1      44.306 -19.755   4.722  1.00  0.00     0.103 A 
HETATM   15  C   UNL     1      43.701 -19.297   5.904  1.00  0.00     0.102 A 
BRANCH  14  16
HETATM   16  O   UNL     1      45.310 -20.684   4.815  1.00  0.00    -0.353 OA
HETATM   17  C   UNL     1      44.880 -22.041   4.787  1.00  0.00     0.210 C 
ENDBRANCH  14  16
BRANCH  15  18
HETATM   18  O   UNL     1      44.040 -19.662   7.181  1.00  0.00    -0.353 OA
HETATM   19  C   UNL     1      44.124 -18.596   8.122  1.00  0.00     0.210 C 
ENDBRANCH  15  18
ENDBRANCH   3   4
ENDBRANCH   1   3
BRANCH   1  20
HETATM   20  C   UNL     1      41.393 -14.983  -1.122  1.00  0.00     0.024 A 
HETATM   21  C   UNL     1      41.389 -13.564  -1.137  1.00  0.00     0.053 A 
HETATM   22  C   UNL     1      40.911 -12.857  -2.258  1.00  0.00     0.019 A 
HETATM   23  C   UNL     1      40.409 -13.531  -3.366  1.00  0.00     0.001 A 
HETATM   24  C   UNL     1      40.382 -14.917  -3.363  1.00  0.00     0.002 A 
HETATM   25  C   UNL     1      40.865 -15.630  -2.258  1.00  0.00     0.024 A 
BRANCH  21  26
HETATM   26  C   UNL     1      41.838 -12.714   0.003  1.00  0.00     0.253 C 
HETATM   27  N   UNL     1      41.189 -12.914   1.195  1.00  0.00    -0.351 N 
HETATM   28  H   UNL     1      40.513 -13.668   1.253  1.00  0.00     0.163 HD
HETATM   29  O   UNL     1      42.703 -11.861  -0.160  1.00  0.00    -0.268 OA
BRANCH  27  30
HETATM   30  C   UNL     1      41.466 -12.119   2.366  1.00  0.00     0.187 C 
BRANCH  30  31
HETATM   31  C   UNL     1      42.259 -12.929   3.318  1.00  0.00     0.070 A 
HETATM   32  O   UNL     1      42.018 -12.719   4.641  1.00  0.00    -0.325 OA
HETATM   33  C   UNL     1      42.867 -13.522   5.333  1.00  0.00     0.142 A 
HETATM   34  C   UNL     1      43.638 -14.264   4.469  1.00  0.00     0.027 A 
HETATM   35  C   UNL     1      43.243 -13.885   3.164  1.00  0.00     0.036 A 
ENDBRANCH  30  31
ENDBRANCH  27  30
ENDBRANCH  21  26
ENDBRANCH   1  20
TORSDOF 8
ENDMDL
MODEL 4
REMARK VINA RESULT:      -8.5      4.257      7.557
REMARK  8 active torsions:
REMARK  status: ('A' for Active; 'I' for Inactive)
REMARK    1  A    between atoms: O_2  and  C_3 
REMARK    2  A    between atoms: C_4  and  O_5 
REMARK    3  A    between atoms: C_13  and  C_14 
REMARK    4  A    between atoms: C_14  and  N_15 
REMARK    5  A    between atoms: N_15  and  C_16 
REMARK    6  A    between atoms: C_17  and  C_18 
REMARK       I    between atoms: C_18  and  N_19 
REMARK    7  A    between atoms: N_19  and  C_20 
REMARK    8  A    between atoms: C_20  and  C_21 
ROOT
HETATM    1  N   UNL     1      40.333 -14.117   6.478  1.00  0.00    -0.285 NA
HETATM    2  H   UNL     1      41.248 -14.119   6.945  1.00  0.00     0.128 HD
ENDROOT
BRANCH   1   3
HETATM    3  C   UNL     1      39.948 -15.477   6.057  1.00  0.00     0.171 C 
BRANCH   3   4
HETATM    4  C   UNL     1      41.110 -16.460   5.972  1.00  0.00     0.120 A 
HETATM    5  N   UNL     1      41.802 -16.755   7.115  1.00  0.00    -0.310 N 
HETATM    6  C   UNL     1      42.853 -17.639   7.146  1.00  0.00     0.259 A 
HETATM    7  H   UNL     1      41.530 -16.347   8.001  1.00  0.00     0.170 HD
HETATM    8  C   UNL     1      43.201 -18.267   5.863  1.00  0.00     0.064 A 
HETATM    9  O   UNL     1      43.468 -17.908   8.169  1.00  0.00    -0.267 OA
HETATM   10  C   UNL     1      42.445 -17.912   4.750  1.00  0.00     0.077 A 
HETATM   11  C   UNL     1      44.231 -19.203   5.771  1.00  0.00     0.059 A 
HETATM   12  C   UNL     1      42.742 -18.505   3.520  1.00  0.00     0.072 A 
HETATM   13  N   UNL     1      41.394 -16.985   4.821  1.00  0.00    -0.233 NA
HETATM   14  C   UNL     1      43.783 -19.437   3.402  1.00  0.00     0.103 A 
HETATM   15  C   UNL     1      44.506 -19.814   4.546  1.00  0.00     0.102 A 
BRANCH  14  16
HETATM   16  O   UNL     1      44.098 -20.023   2.203  1.00  0.00    -0.353 OA
HETATM   17  C   UNL     1      43.334 -21.181   1.879  1.00  0.00     0.210 C 
ENDBRANCH  14  16
BRANCH  15  18
HETATM   18  O   UNL     1      45.546 -20.706   4.589  1.00  0.00    -0.353 OA
HETATM   19  C   UNL     1      45.204 -22.028   4.994  1.00  0.00     0.210 C 
ENDBRANCH  15  18
ENDBRANCH   3   4
ENDBRANCH   1   3
BRANCH   1  20
HETATM   20  C   UNL     1      40.394 -13.123   5.455  1.00  0.00     0.024 A 
HETATM   21  C   UNL     1      41.634 -12.729   4.890  1.00  0.00     0.053 A 
HETATM   22  C   UNL     1      41.683 -11.771   3.858  1.00  0.00     0.019 A 
HETATM   23  C   UNL     1      40.521 -11.170   3.386  1.00  0.00     0.001 A 
HETATM   24  C   UNL     1      39.301 -11.524   3.940  1.00  0.00     0.002 A 
HETATM   25  C   UNL     1      39.239 -12.484   4.959  1.00  0.00     0.024 A 
BRANCH  21  26
HETATM   26  C   UNL     1      42.960 -13.241   5.341  1.00  0.00     0.253 C 
HETATM   27  N   UNL     1      43.149 -13.311   6.698  1.00  0.00    -0.351 N 
HETATM   28  H   UNL     1      42.365 -13.092   7.304  1.00  0.00     0.163 HD
HETATM   29  O   UNL     1      43.827 -13.528   4.524  1.00  0.00    -0.268 OA
BRANCH  27  30
HETATM   30  C   UNL     1      44.403 -13.720   7.281  1.00  0.00     0.187 C 
BRANCH  30  31
HETATM   31  C   UNL     1      44.843 -12.686   8.244  1.00  0.00     0.070 A 
HETATM   32  O   UNL     1      43.861 -11.950   8.836  1.00  0.00    -0.325 OA
HETATM   33  C   UNL     1      44.474 -11.044   9.641  1.00  0.00     0.142 A 
HETATM   34  C   UNL     1      45.839 -11.203   9.592  1.00  0.00     0.027 A 
HETATM   35  C   UNL     1      46.080 -12.267   8.691  1.00  0.00     0.036 A 
ENDBRANCH  30  31
ENDBRANCH  27  30
ENDBRANCH  21  26
ENDBRANCH   1  20
TORSDOF 8
ENDMDL
MODEL 5
REMARK VINA RESULT:      -8.4      3.376      7.756
REMARK  8 active torsions:
REMARK  status: ('A' for Active; 'I' for Inactive)
REMARK    1  A    between atoms: O_2  and  C_3 
REMARK    2  A    between atoms: C_4  and  O_5 
REMARK    3  A    between atoms: C_13  and  C_14 
REMARK    4  A    between atoms: C_14  and  N_15 
REMARK    5  A    between atoms: N_15  and  C_16 
REMARK    6  A    between atoms: C_17  and  C_18 
REMARK       I    between atoms: C_18  and  N_19 
REMARK    7  A    between atoms: N_19  and  C_20 
REMARK    8  A    between atoms: C_20  and  C_21 
ROOT
HETATM    1  N   UNL     1      38.777 -15.301   1.874  1.00  0.00    -0.285 NA
HETATM    2  H   UNL     1      38.704 -15.332   2.897  1.00  0.00     0.128 HD
ENDROOT
BRANCH   1   3
HETATM    3  C   UNL     1      40.127 -15.688   1.425  1.00  0.00     0.171 C 
BRANCH   3   4
HETATM    4  C   UNL     1      40.930 -16.473   2.456  1.00  0.00     0.120 A 
HETATM    5  N   UNL     1      40.716 -16.219   3.783  1.00  0.00    -0.310 N 
HETATM    6  C   UNL     1      41.377 -16.882   4.787  1.00  0.00     0.259 A 
HETATM    7  H   UNL     1      40.021 -15.541   4.071  1.00  0.00     0.170 HD
HETATM    8  C   UNL     1      42.343 -17.903   4.355  1.00  0.00     0.064 A 
HETATM    9  O   UNL     1      41.182 -16.660   5.975  1.00  0.00    -0.267 OA
HETATM   10  C   UNL     1      42.498 -18.099   2.986  1.00  0.00     0.077 A 
HETATM   11  C   UNL     1      43.056 -18.664   5.282  1.00  0.00     0.059 A 
HETATM   12  C   UNL     1      43.397 -19.074   2.545  1.00  0.00     0.072 A 
HETATM   13  N   UNL     1      41.781 -17.357   2.035  1.00  0.00    -0.233 NA
HETATM   14  C   UNL     1      44.135 -19.840   3.459  1.00  0.00     0.103 A 
HETATM   15  C   UNL     1      43.932 -19.656   4.837  1.00  0.00     0.102 A 
BRANCH  14  16
HETATM   16  O   UNL     1      45.029 -20.794   3.048  1.00  0.00    -0.353 OA
HETATM   17  C   UNL     1      44.497 -21.782   2.171  1.00  0.00     0.210 C 
ENDBRANCH  14  16
BRANCH  15  18
HETATM   18  O   UNL     1      44.577 -20.324   5.846  1.00  0.00    -0.353 OA
HETATM   19  C   UNL     1      43.745 -20.776   6.910  1.00  0.00     0.210 C 
ENDBRANCH  15  18
ENDBRANCH   3   4
ENDBRANCH   1   3
BRANCH   1  20
HETATM   20  C   UNL     1      38.310 -14.014   1.466  1.00  0.00     0.024 A 
HETATM   21  C   UNL     1      38.681 -12.843   2.175  1.00  0.00     0.053 A 
HETATM   22  C   UNL     1      38.243 -11.574   1.748  1.00  0.00     0.019 A 
HETATM   23  C   UNL     1      37.418 -11.441   0.637  1.00  0.00     0.001 A 
HETATM   24  C   UNL     1      37.025 -12.575  -0.057  1.00  0.00     0.002 A 
HETATM   25  C   UNL     1      37.463 -13.841   0.352  1.00  0.00     0.024 A 
BRANCH  21  26
HETATM   26  C   UNL     1      39.506 -12.842   3.418  1.00  0.00     0.253 C 
HETATM   27  N   UNL     1      40.473 -11.872   3.498  1.00  0.00    -0.351 N 
HETATM   28  H   UNL     1      40.517 -11.176   2.761  1.00  0.00     0.163 HD
HETATM   29  O   UNL     1      39.339 -13.701   4.276  1.00  0.00    -0.268 OA
BRANCH  27  30
HETATM   30  C   UNL     1      41.392 -11.791   4.606  1.00  0.00     0.187 C 
BRANCH  30  31
HETATM   31  C   UNL     1      42.422 -12.843   4.452  1.00  0.00     0.070 A 
HETATM   32  O   UNL     1      42.962 -13.336   5.601  1.00  0.00    -0.325 OA
HETATM   33  C   UNL     1      43.902 -14.248   5.239  1.00  0.00     0.142 A 
HETATM   34  C   UNL     1      43.957 -14.364   3.870  1.00  0.00     0.027 A 
HETATM   35  C   UNL     1      42.998 -13.458   3.359  1.00  0.00     0.036 A 
ENDBRANCH  30  31
ENDBRANCH  27  30
ENDBRANCH  21  26
ENDBRANCH   1  20
TORSDOF 8
ENDMDL
MODEL 6
REMARK VINA RESULT:      -8.4      1.233      4.110
REMARK  8 active torsions:
REMARK  status: ('A' for Active; 'I' for Inactive)
REMARK    1  A    between atoms: O_2  and  C_3 
REMARK    2  A    between atoms: C_4  and  O_5 
REMARK    3  A    between atoms: C_13  and  C_14 
REMARK    4  A    between atoms: C_14  and  N_15 
REMARK    5  A    between atoms: N_15  and  C_16 
REMARK    6  A    between atoms: C_17  and  C_18 
REMARK       I    between atoms: C_18  and  N_19 
REMARK    7  A    between atoms: N_19  and  C_20 
REMARK    8  A    between atoms: C_20  and  C_21 
ROOT
HETATM    1  N   UNL     1      43.164 -16.467   3.621  1.00  0.00    -0.285 NA
HETATM    2  H   UNL     1      43.867 -16.155   2.942  1.00  0.00     0.128 HD
ENDROOT
BRANCH   1   3
HETATM    3  C   UNL     1      41.798 -16.259   3.107  1.00  0.00     0.171 C 
BRANCH   3   4
HETATM    4  C   UNL     1      41.727 -15.415   1.839  1.00  0.00     0.120 A 
HETATM    5  N   UNL     1      42.104 -14.102   1.906  1.00  0.00    -0.310 N 
HETATM    6  C   UNL     1      42.090 -13.264   0.818  1.00  0.00     0.259 A 
HETATM    7  H   UNL     1      42.446 -13.709   2.774  1.00  0.00     0.170 HD
HETATM    8  C   UNL     1      41.645 -13.863  -0.449  1.00  0.00     0.064 A 
HETATM    9  O   UNL     1      42.433 -12.090   0.875  1.00  0.00    -0.267 OA
HETATM   10  C   UNL     1      41.280 -15.206  -0.428  1.00  0.00     0.077 A 
HETATM   11  C   UNL     1      41.614 -13.122  -1.629  1.00  0.00     0.059 A 
HETATM   12  C   UNL     1      40.869 -15.808  -1.620  1.00  0.00     0.072 A 
HETATM   13  N   UNL     1      41.318 -15.977   0.744  1.00  0.00    -0.233 NA
HETATM   14  C   UNL     1      40.816 -15.077  -2.816  1.00  0.00     0.103 A 
HETATM   15  C   UNL     1      41.229 -13.734  -2.824  1.00  0.00     0.102 A 
BRANCH  14  16
HETATM   16  O   UNL     1      40.405 -15.645  -3.994  1.00  0.00    -0.353 OA
HETATM   17  C   UNL     1      38.997 -15.826  -4.118  1.00  0.00     0.210 C 
ENDBRANCH  14  16
BRANCH  15  18
HETATM   18  O   UNL     1      41.232 -12.895  -3.907  1.00  0.00    -0.353 OA
HETATM   19  C   UNL     1      41.491 -11.524  -3.620  1.00  0.00     0.210 C 
ENDBRANCH  15  18
ENDBRANCH   3   4
ENDBRANCH   1   3
BRANCH   1  20
HETATM   20  C   UNL     1      43.484 -15.838   4.863  1.00  0.00     0.024 A 
HETATM   21  C   UNL     1      43.881 -16.604   5.990  1.00  0.00     0.053 A 
HETATM   22  C   UNL     1      44.225 -15.974   7.203  1.00  0.00     0.019 A 
HETATM   23  C   UNL     1      44.161 -14.591   7.332  1.00  0.00     0.001 A 
HETATM   24  C   UNL     1      43.754 -13.826   6.250  1.00  0.00     0.002 A 
HETATM   25  C   UNL     1      43.419 -14.441   5.036  1.00  0.00     0.024 A 
BRANCH  21  26
HETATM   26  C   UNL     1      43.933 -18.094   6.014  1.00  0.00     0.253 C 
HETATM   27  N   UNL     1      44.774 -18.682   5.103  1.00  0.00    -0.351 N 
HETATM   28  H   UNL     1      45.361 -18.081   4.535  1.00  0.00     0.163 HD
HETATM   29  O   UNL     1      43.216 -18.729   6.779  1.00  0.00    -0.268 OA
BRANCH  27  30
HETATM   30  C   UNL     1      44.877 -20.113   4.963  1.00  0.00     0.187 C 
BRANCH  30  31
HETATM   31  C   UNL     1      44.365 -20.501   3.629  1.00  0.00     0.070 A 
HETATM   32  O   UNL     1      43.605 -19.577   2.979  1.00  0.00    -0.325 OA
HETATM   33  C   UNL     1      43.208 -20.141   1.808  1.00  0.00     0.142 A 
HETATM   34  C   UNL     1      43.723 -21.410   1.688  1.00  0.00     0.027 A 
HETATM   35  C   UNL     1      44.475 -21.644   2.864  1.00  0.00     0.036 A 
ENDBRANCH  30  31
ENDBRANCH  27  30
ENDBRANCH  21  26
ENDBRANCH   1  20
TORSDOF 8
ENDMDL
MODEL 7
REMARK VINA RESULT:      -8.4      2.783      4.484
REMARK  8 active torsions:
REMARK  status: ('A' for Active; 'I' for Inactive)
REMARK    1  A    between atoms: O_2  and  C_3 
REMARK    2  A    between atoms: C_4  and  O_5 
REMARK    3  A    between atoms: C_13  and  C_14 
REMARK    4  A    between atoms: C_14  and  N_15 
REMARK    5  A    between atoms: N_15  and  C_16 
REMARK    6  A    between atoms: C_17  and  C_18 
REMARK       I    between atoms: C_18  and  N_19 
REMARK    7  A    between atoms: N_19  and  C_20 
REMARK    8  A    between atoms: C_20  and  C_21 
ROOT
HETATM    1  N   UNL     1      42.558 -17.663   3.149  1.00  0.00    -0.285 NA
HETATM    2  H   UNL     1      42.359 -17.482   4.140  1.00  0.00     0.128 HD
ENDROOT
BRANCH   1   3
HETATM    3  C   UNL     1      41.341 -17.526   2.329  1.00  0.00     0.171 C 
BRANCH   3   4
HETATM    4  C   UNL     1      40.695 -16.147   2.389  1.00  0.00     0.120 A 
HETATM    5  N   UNL     1      40.231 -15.591   1.229  1.00  0.00    -0.310 N 
HETATM    6  C   UNL     1      39.620 -14.361   1.180  1.00  0.00     0.259 A 
HETATM    7  H   UNL     1      40.293 -16.098   0.355  1.00  0.00     0.170 HD
HETATM    8  C   UNL     1      39.485 -13.661   2.466  1.00  0.00     0.064 A 
HETATM    9  O   UNL     1      39.199 -13.866   0.143  1.00  0.00    -0.267 OA
HETATM   10  C   UNL     1      39.983 -14.298   3.598  1.00  0.00     0.077 A 
HETATM   11  C   UNL     1      38.858 -12.418   2.550  1.00  0.00     0.059 A 
HETATM   12  C   UNL     1      39.855 -13.664   4.836  1.00  0.00     0.072 A 
HETATM   13  N   UNL     1      40.604 -15.556   3.540  1.00  0.00    -0.233 NA
HETATM   14  C   UNL     1      39.241 -12.408   4.943  1.00  0.00     0.103 A 
HETATM   15  C   UNL     1      38.706 -11.801   3.794  1.00  0.00     0.102 A 
BRANCH  14  16
HETATM   16  O   UNL     1      39.114 -11.763   6.146  1.00  0.00    -0.353 OA
HETATM   17  C   UNL     1      40.336 -11.534   6.840  1.00  0.00     0.210 C 
ENDBRANCH  14  16
BRANCH  15  18
HETATM   18  O   UNL     1      38.083 -10.581   3.739  1.00  0.00    -0.353 OA
HETATM   19  C   UNL     1      37.588 -10.204   2.458  1.00  0.00     0.210 C 
ENDBRANCH  15  18
ENDBRANCH   3   4
ENDBRANCH   1   3
BRANCH   1  20
HETATM   20  C   UNL     1      43.233 -18.920   3.087  1.00  0.00     0.024 A 
HETATM   21  C   UNL     1      44.011 -19.387   4.178  1.00  0.00     0.053 A 
HETATM   22  C   UNL     1      44.649 -20.643   4.122  1.00  0.00     0.019 A 
HETATM   23  C   UNL     1      44.552 -21.442   2.989  1.00  0.00     0.001 A 
HETATM   24  C   UNL     1      43.816 -20.994   1.903  1.00  0.00     0.002 A 
HETATM   25  C   UNL     1      43.169 -19.753   1.952  1.00  0.00     0.024 A 
BRANCH  21  26
HETATM   26  C   UNL     1      44.253 -18.610   5.428  1.00  0.00     0.253 C 
HETATM   27  N   UNL     1      43.148 -18.038   6.005  1.00  0.00    -0.351 N 
HETATM   28  H   UNL     1      42.238 -18.240   5.604  1.00  0.00     0.163 HD
HETATM   29  O   UNL     1      45.391 -18.467   5.860  1.00  0.00    -0.268 OA
BRANCH  27  30
HETATM   30  C   UNL     1      43.237 -17.201   7.176  1.00  0.00     0.187 C 
BRANCH  30  31
HETATM   31  C   UNL     1      43.585 -15.825   6.756  1.00  0.00     0.070 A 
HETATM   32  O   UNL     1      43.084 -15.412   5.559  1.00  0.00    -0.325 OA
HETATM   33  C   UNL     1      43.550 -14.153   5.347  1.00  0.00     0.142 A 
HETATM   34  C   UNL     1      44.327 -13.743   6.404  1.00  0.00     0.027 A 
HETATM   35  C   UNL     1      44.348 -14.823   7.319  1.00  0.00     0.036 A 
ENDBRANCH  30  31
ENDBRANCH  27  30
ENDBRANCH  21  26
ENDBRANCH   1  20
TORSDOF 8
ENDMDL
MODEL 8
REMARK VINA RESULT:      -8.2      1.902      4.867
REMARK  8 active torsions:
REMARK  status: ('A' for Active; 'I' for Inactive)
REMARK    1  A    between atoms: O_2  and  C_3 
REMARK    2  A    between atoms: C_4  and  O_5 
REMARK    3  A    between atoms: C_13  and  C_14 
REMARK    4  A    between atoms: C_14  and  N_15 
REMARK    5  A    between atoms: N_15  and  C_16 
REMARK    6  A    between atoms: C_17  and  C_18 
REMARK       I    between atoms: C_18  and  N_19 
REMARK    7  A    between atoms: N_19  and  C_20 
REMARK    8  A    between atoms: C_20  and  C_21 
ROOT
HETATM    1  N   UNL     1      43.815 -14.204   3.527  1.00  0.00    -0.285 NA
HETATM    2  H   UNL     1      44.571 -13.510   3.515  1.00  0.00     0.128 HD
ENDROOT
BRANCH   1   3
HETATM    3  C   UNL     1      42.550 -13.621   3.045  1.00  0.00     0.171 C 
BRANCH   3   4
HETATM    4  C   UNL     1      42.092 -14.147   1.689  1.00  0.00     0.120 A 
HETATM    5  N   UNL     1      41.762 -15.470   1.579  1.00  0.00    -0.310 N 
HETATM    6  C   UNL     1      41.325 -16.036   0.407  1.00  0.00     0.259 A 
HETATM    7  H   UNL     1      41.798 -16.078   2.388  1.00  0.00     0.170 HD
HETATM    8  C   UNL     1      41.223 -15.129  -0.746  1.00  0.00     0.064 A 
HETATM    9  O   UNL     1      41.023 -17.219   0.309  1.00  0.00    -0.267 OA
HETATM   10  C   UNL     1      41.578 -13.799  -0.547  1.00  0.00     0.077 A 
HETATM   11  C   UNL     1      40.765 -15.580  -1.984  1.00  0.00     0.059 A 
HETATM   12  C   UNL     1      41.477 -12.909  -1.619  1.00  0.00     0.072 A 
HETATM   13  N   UNL     1      42.027 -13.318   0.693  1.00  0.00    -0.233 NA
HETATM   14  C   UNL     1      41.032 -13.344  -2.877  1.00  0.00     0.103 A 
HETATM   15  C   UNL     1      40.639 -14.682  -3.045  1.00  0.00     0.102 A 
BRANCH  14  16
HETATM   16  O   UNL     1      40.935 -12.491  -3.945  1.00  0.00    -0.353 OA
HETATM   17  C   UNL     1      39.824 -11.600  -3.906  1.00  0.00     0.210 C 
ENDBRANCH  14  16
BRANCH  15  18
HETATM   18  O   UNL     1      40.187 -15.252  -4.207  1.00  0.00    -0.353 OA
HETATM   19  C   UNL     1      39.070 -16.124  -4.068  1.00  0.00     0.210 C 
ENDBRANCH  15  18
ENDBRANCH   3   4
ENDBRANCH   1   3
BRANCH   1  20
HETATM   20  C   UNL     1      43.799 -14.774   4.836  1.00  0.00     0.024 A 
HETATM   21  C   UNL     1      43.462 -16.138   5.036  1.00  0.00     0.053 A 
HETATM   22  C   UNL     1      43.480 -16.702   6.327  1.00  0.00     0.019 A 
HETATM   23  C   UNL     1      43.803 -15.931   7.438  1.00  0.00     0.001 A 
HETATM   24  C   UNL     1      44.114 -14.591   7.268  1.00  0.00     0.002 A 
HETATM   25  C   UNL     1      44.109 -14.022   5.988  1.00  0.00     0.024 A 
BRANCH  21  26
HETATM   26  C   UNL     1      43.035 -17.063   3.948  1.00  0.00     0.253 C 
HETATM   27  N   UNL     1      44.035 -17.553   3.146  1.00  0.00    -0.351 N 
HETATM   28  H   UNL     1      44.995 -17.328   3.384  1.00  0.00     0.163 HD
HETATM   29  O   UNL     1      41.847 -17.312   3.774  1.00  0.00    -0.268 OA
BRANCH  27  30
HETATM   30  C   UNL     1      43.766 -18.401   2.012  1.00  0.00     0.187 C 
BRANCH  30  31
HETATM   31  C   UNL     1      44.057 -19.804   2.384  1.00  0.00     0.070 A 
HETATM   32  O   UNL     1      43.542 -20.767   1.571  1.00  0.00    -0.325 OA
HETATM   33  C   UNL     1      43.888 -21.967   2.107  1.00  0.00     0.142 A 
HETATM   34  C   UNL     1      44.639 -21.787   3.244  1.00  0.00     0.027 A 
HETATM   35  C   UNL     1      44.752 -20.388   3.424  1.00  0.00     0.036 A 
ENDBRANCH  30  31
ENDBRANCH  27  30
ENDBRANCH  21  26
ENDBRANCH   1  20
TORSDOF 8
ENDMDL
MODEL 9
REMARK VINA RESULT:      -8.1      1.902      4.512
REMARK  8 active torsions:
REMARK  status: ('A' for Active; 'I' for Inactive)
REMARK    1  A    between atoms: O_2  and  C_3 
REMARK    2  A    between atoms: C_4  and  O_5 
REMARK    3  A    between atoms: C_13  and  C_14 
REMARK    4  A    between atoms: C_14  and  N_15 
REMARK    5  A    between atoms: N_15  and  C_16 
REMARK    6  A    between atoms: C_17  and  C_18 
REMARK       I    between atoms: C_18  and  N_19 
REMARK    7  A    between atoms: N_19  and  C_20 
REMARK    8  A    between atoms: C_20  and  C_21 
ROOT
HETATM    1  N   UNL     1      42.904 -16.779   3.506  1.00  0.00    -0.285 NA
HETATM    2  H   UNL     1      43.311 -16.300   2.694  1.00  0.00     0.128 HD
ENDROOT
BRANCH   1   3
HETATM    3  C   UNL     1      41.455 -16.986   3.330  1.00  0.00     0.171 C 
BRANCH   3   4
HETATM    4  C   UNL     1      40.829 -16.137   2.230  1.00  0.00     0.120 A 
HETATM    5  N   UNL     1      39.566 -15.647   2.422  1.00  0.00    -0.310 N 
HETATM    6  C   UNL     1      38.921 -14.860   1.499  1.00  0.00     0.259 A 
HETATM    7  H   UNL     1      39.071 -15.825   3.287  1.00  0.00     0.170 HD
HETATM    8  C   UNL     1      39.673 -14.562   0.272  1.00  0.00     0.064 A 
HETATM    9  O   UNL     1      37.794 -14.416   1.673  1.00  0.00    -0.267 OA
HETATM   10  C   UNL     1      40.952 -15.100   0.158  1.00  0.00     0.077 A 
HETATM   11  C   UNL     1      39.136 -13.752  -0.728  1.00  0.00     0.059 A 
HETATM   12  C   UNL     1      41.698 -14.821  -0.990  1.00  0.00     0.072 A 
HETATM   13  N   UNL     1      41.519 -15.906   1.157  1.00  0.00    -0.233 NA
HETATM   14  C   UNL     1      41.172 -14.020  -2.015  1.00  0.00     0.103 A 
HETATM   15  C   UNL     1      39.896 -13.452  -1.861  1.00  0.00     0.102 A 
BRANCH  14  16
HETATM   16  O   UNL     1      41.882 -13.742  -3.154  1.00  0.00    -0.353 OA
HETATM   17  C   UNL     1      42.769 -12.632  -3.055  1.00  0.00     0.210 C 
ENDBRANCH  14  16
BRANCH  15  18
HETATM   18  O   UNL     1      39.250 -12.654  -2.770  1.00  0.00    -0.353 OA
HETATM   19  C   UNL     1      37.900 -13.010  -3.047  1.00  0.00     0.210 C 
ENDBRANCH  15  18
ENDBRANCH   3   4
ENDBRANCH   1   3
BRANCH   1  20
HETATM   20  C   UNL     1      43.311 -16.047   4.663  1.00  0.00     0.024 A 
HETATM   21  C   UNL     1      43.837 -16.711   5.801  1.00  0.00     0.053 A 
HETATM   22  C   UNL     1      44.266 -15.980   6.927  1.00  0.00     0.019 A 
HETATM   23  C   UNL     1      44.161 -14.594   6.959  1.00  0.00     0.001 A 
HETATM   24  C   UNL     1      43.630 -13.927   5.866  1.00  0.00     0.002 A 
HETATM   25  C   UNL     1      43.210 -14.643   4.737  1.00  0.00     0.024 A 
BRANCH  21  26
HETATM   26  C   UNL     1      43.946 -18.193   5.930  1.00  0.00     0.253 C 
HETATM   27  N   UNL     1      44.751 -18.819   5.012  1.00  0.00    -0.351 N 
HETATM   28  H   UNL     1      45.279 -18.243   4.364  1.00  0.00     0.163 HD
HETATM   29  O   UNL     1      43.304 -18.792   6.784  1.00  0.00    -0.268 OA
BRANCH  27  30
HETATM   30  C   UNL     1      44.899 -20.253   4.970  1.00  0.00     0.187 C 
BRANCH  30  31
HETATM   31  C   UNL     1      44.460 -20.740   3.643  1.00  0.00     0.070 A 
HETATM   32  O   UNL     1      43.829 -19.837   2.843  1.00  0.00    -0.325 OA
HETATM   33  C   UNL     1      43.479 -20.490   1.705  1.00  0.00     0.142 A 
HETATM   34  C   UNL     1      43.896 -21.799   1.754  1.00  0.00     0.027 A 
HETATM   35  C   UNL     1      44.535 -21.962   3.006  1.00  0.00     0.036 A 
ENDBRANCH  30  31
ENDBRANCH  27  30
ENDBRANCH  21  26
ENDBRANCH   1  20
TORSDOF 8
ENDMDL
MODEL 10
REMARK VINA RESULT:      -8.1      4.553      8.203
REMARK  8 active torsions:
REMARK  status: ('A' for Active; 'I' for Inactive)
REMARK    1  A    between atoms: O_2  and  C_3 
REMARK    2  A    between atoms: C_4  and  O_5 
REMARK    3  A    between atoms: C_13  and  C_14 
REMARK    4  A    between atoms: C_14  and  N_15 
REMARK    5  A    between atoms: N_15  and  C_16 
REMARK    6  A    between atoms: C_17  and  C_18 
REMARK       I    between atoms: C_18  and  N_19 
REMARK    7  A    between atoms: N_19  and  C_20 
REMARK    8  A    between atoms: C_20  and  C_21 
ROOT
HETATM    1  N   UNL     1      41.234 -13.624   6.191  1.00  0.00    -0.285 NA
HETATM    2  H   UNL     1      42.232 -13.632   5.955  1.00  0.00     0.128 HD
ENDROOT
BRANCH   1   3
HETATM    3  C   UNL     1      40.636 -14.961   6.019  1.00  0.00     0.171 C 
BRANCH   3   4
HETATM    4  C   UNL     1      41.648 -16.101   5.979  1.00  0.00     0.120 A 
HETATM    5  N   UNL     1      42.218 -16.511   7.153  1.00  0.00    -0.310 N 
HETATM    6  C   UNL     1      43.127 -17.537   7.224  1.00  0.00     0.259 A 
HETATM    7  H   UNL     1      41.953 -16.081   8.031  1.00  0.00     0.170 HD
HETATM    8  C   UNL     1      43.460 -18.189   5.949  1.00  0.00     0.064 A 
HETATM    9  O   UNL     1      43.633 -17.909   8.275  1.00  0.00    -0.267 OA
HETATM   10  C   UNL     1      42.834 -17.711   4.803  1.00  0.00     0.077 A 
HETATM   11  C   UNL     1      44.349 -19.263   5.895  1.00  0.00     0.059 A 
HETATM   12  C   UNL     1      43.118 -18.321   3.578  1.00  0.00     0.072 A 
HETATM   13  N   UNL     1      41.924 -16.643   4.834  1.00  0.00    -0.233 NA
HETATM   14  C   UNL     1      44.020 -19.392   3.499  1.00  0.00     0.103 A 
HETATM   15  C   UNL     1      44.609 -19.888   4.674  1.00  0.00     0.102 A 
BRANCH  14  16
HETATM   16  O   UNL     1      44.321 -19.999   2.307  1.00  0.00    -0.353 OA
HETATM   17  C   UNL     1      43.379 -20.977   1.873  1.00  0.00     0.210 C 
ENDBRANCH  14  16
BRANCH  15  18
HETATM   18  O   UNL     1      45.506 -20.922   4.756  1.00  0.00    -0.353 OA
HETATM   19  C   UNL     1      44.953 -22.186   5.108  1.00  0.00     0.210 C 
ENDBRANCH  15  18
ENDBRANCH   3   4
ENDBRANCH   1   3
BRANCH   1  20
HETATM   20  C   UNL     1      40.643 -12.558   5.447  1.00  0.00     0.024 A 
HETATM   21  C   UNL     1      40.269 -11.344   6.078  1.00  0.00     0.053 A 
HETATM   22  C   UNL     1      39.716 -10.284   5.332  1.00  0.00     0.019 A 
HETATM   23  C   UNL     1      39.500 -10.412   3.965  1.00  0.00     0.001 A 
HETATM   24  C   UNL     1      39.837 -11.598   3.331  1.00  0.00     0.002 A 
HETATM   25  C   UNL     1      40.397 -12.654   4.062  1.00  0.00     0.024 A 
BRANCH  21  26
HETATM   26  C   UNL     1      40.384 -11.093   7.544  1.00  0.00     0.253 C 
HETATM   27  N   UNL     1      41.653 -10.882   8.021  1.00  0.00    -0.351 N 
HETATM   28  H   UNL     1      42.415 -10.829   7.353  1.00  0.00     0.163 HD
HETATM   29  O   UNL     1      39.391 -11.129   8.261  1.00  0.00    -0.268 OA
BRANCH  27  30
HETATM   30  C   UNL     1      41.926 -10.696   9.425  1.00  0.00     0.187 C 
BRANCH  30  31
HETATM   31  C   UNL     1      43.374 -10.896   9.661  1.00  0.00     0.070 A 
HETATM   32  O   UNL     1      44.078 -11.481   8.653  1.00  0.00    -0.325 OA
HETATM   33  C   UNL     1      45.360 -11.606   9.085  1.00  0.00     0.142 A 
HETATM   34  C   UNL     1      45.494 -11.089  10.351  1.00  0.00     0.027 A 
HETATM   35  C   UNL     1      44.210 -10.625  10.725  1.00  0.00     0.036 A 
ENDBRANCH  30  31
ENDBRANCH  27  30
ENDBRANCH  21  26
ENDBRANCH   1  20
TORSDOF 8
ENDMDL
