MODEL 1
REMARK VINA RESULT:      -9.5      0.000      0.000
REMARK  8 active torsions:
REMARK  status: ('A' for Active; 'I' for Inactive)
REMARK    1  A    between atoms: C_3  and  N_4 
REMARK       I    between atoms: N_4  and  C_5 
REMARK    2  A    between atoms: C_5  and  C_6 
REMARK    3  A    between atoms: C_6  and  N_7 
REMARK    4  A    between atoms: N_10  and  C_11 
REMARK    5  A    between atoms: C_11  and  C_12 
REMARK    6  A    between atoms: C_12  and  C_13 
REMARK       I    between atoms: C_13  and  N_14 
REMARK    7  A    between atoms: N_14  and  C_15 
REMARK    8  A    between atoms: C_15  and  C_16 
ROOT
HETATM    1  N   UNL     1      41.382 -15.305   1.701  1.00  0.00    -0.289 N 
HETATM    2  C   UNL     1      41.130 -15.246   3.073  1.00  0.00     0.332 C 
HETATM    3  O   UNL     1      40.849 -16.281   3.689  1.00  0.00    -0.246 OA
HETATM    4  N   UNL     1      41.210 -13.994   3.709  1.00  0.00    -0.265 N 
HETATM    5  C   UNL     1      41.572 -12.809   3.054  1.00  0.00     0.271 C 
HETATM    6  O   UNL     1      41.817 -11.754   3.635  1.00  0.00    -0.266 OA
HETATM    7  C   UNL     1      41.650 -12.940   1.625  1.00  0.00     0.100 A 
HETATM    8  C   UNL     1      41.557 -14.136   0.970  1.00  0.00     0.062 A 
HETATM    9  S   UNL     1      41.901 -11.625   0.580  1.00  0.00    -0.094 SA
HETATM   10  C   UNL     1      41.862 -12.651  -0.792  1.00  0.00     0.053 A 
HETATM   11  C   UNL     1      41.675 -13.973  -0.441  1.00  0.00     0.038 A 
ENDROOT
BRANCH   4  12
HETATM   12  C   UNL     1      41.046 -14.041   5.174  1.00  0.00     0.146 C 
BRANCH  12  13
HETATM   13  C   UNL     1      39.741 -13.542   5.787  1.00  0.00     0.123 C 
BRANCH  13  14
HETATM   14  C   UNL     1      39.890 -12.162   6.387  1.00  0.00     0.219 C 
HETATM   15  N   UNL     1      41.188 -11.881   6.740  1.00  0.00    -0.357 N 
HETATM   16  H   UNL     1      41.896 -12.599   6.649  1.00  0.00     0.162 HD
HETATM   17  O   UNL     1      38.958 -11.381   6.530  1.00  0.00    -0.274 OA
BRANCH  15  18
HETATM   18  C   UNL     1      41.590 -10.607   7.288  1.00  0.00     0.161 C 
BRANCH  18  19
HETATM   19  C   UNL     1      41.842 -10.748   8.767  1.00  0.00    -0.038 A 
HETATM   20  C   UNL     1      40.781 -10.705   9.684  1.00  0.00     0.048 A 
HETATM   21  C   UNL     1      41.073 -10.887  11.021  1.00  0.00     0.105 A 
HETATM   22  C   UNL     1      42.357 -11.108  11.461  1.00  0.00     0.105 A 
HETATM   23  O   UNL     1      40.170 -10.881  12.038  1.00  0.00    -0.323 OA
HETATM   24  O   UNL     1      42.423 -11.269  12.809  1.00  0.00    -0.323 OA
HETATM   25  C   UNL     1      43.423 -11.157  10.593  1.00  0.00     0.040 A 
HETATM   26  C   UNL     1      41.034 -11.122  13.169  1.00  0.00     0.352 A 
HETATM   27  C   UNL     1      43.160 -10.976   9.232  1.00  0.00     0.012 A 
ENDBRANCH  18  19
ENDBRANCH  15  18
ENDBRANCH  13  14
ENDBRANCH  12  13
ENDBRANCH   4  12
BRANCH   1  28
HETATM   28  C   UNL     1      41.493 -16.628   1.095  1.00  0.00     0.237 C 
BRANCH  28  29
HETATM   29  C   UNL     1      42.732 -17.389   1.554  1.00  0.00     0.240 C 
HETATM   30  N   UNL     1      42.449 -18.350   2.511  1.00  0.00    -0.325 N 
HETATM   31  H   UNL     1      41.517 -18.763   2.436  1.00  0.00     0.169 HD
HETATM   32  O   UNL     1      43.834 -17.168   1.056  1.00  0.00    -0.271 OA
BRANCH  30  33
HETATM   33  C   UNL     1      43.399 -19.048   3.288  1.00  0.00     0.042 A 
HETATM   34  C   UNL     1      43.916 -20.319   2.965  1.00  0.00    -0.035 A 
HETATM   35  C   UNL     1      43.578 -21.076   1.709  1.00  0.00     0.050 C 
HETATM   36  C   UNL     1      44.852 -20.915   3.834  1.00  0.00     0.011 A 
HETATM   37  C   UNL     1      45.307 -20.249   4.969  1.00  0.00     0.024 A 
HETATM   38  C   UNL     1      44.836 -18.972   5.245  1.00  0.00     0.036 A 
HETATM   39  C   UNL     1      43.900 -18.366   4.409  1.00  0.00     0.053 A 
HETATM   40 CL   UNL     1      45.411 -18.135   6.636  1.00  0.00    -0.084 Cl
ENDBRANCH  30  33
ENDBRANCH  28  29
ENDBRANCH   1  28
TORSDOF 8
ENDMDL
MODEL 2
REMARK VINA RESULT:      -9.4      3.418      7.873
REMARK  8 active torsions:
REMARK  status: ('A' for Active; 'I' for Inactive)
REMARK    1  A    between atoms: C_3  and  N_4 
REMARK       I    between atoms: N_4  and  C_5 
REMARK    2  A    between atoms: C_5  and  C_6 
REMARK    3  A    between atoms: C_6  and  N_7 
REMARK    4  A    between atoms: N_10  and  C_11 
REMARK    5  A    between atoms: C_11  and  C_12 
REMARK    6  A    between atoms: C_12  and  C_13 
REMARK       I    between atoms: C_13  and  N_14 
REMARK    7  A    between atoms: N_14  and  C_15 
REMARK    8  A    between atoms: C_15  and  C_16 
ROOT
HETATM    1  N   UNL     1      40.989 -12.013   2.725  1.00  0.00    -0.289 N 
HETATM    2  C   UNL     1      41.663 -12.911   1.895  1.00  0.00     0.332 C 
HETATM    3  O   UNL     1      42.868 -13.125   2.076  1.00  0.00    -0.246 OA
HETATM    4  N   UNL     1      40.934 -13.546   0.874  1.00  0.00    -0.265 N 
HETATM    5  C   UNL     1      39.559 -13.364   0.670  1.00  0.00     0.271 C 
HETATM    6  O   UNL     1      38.887 -14.047  -0.100  1.00  0.00    -0.266 OA
HETATM    7  C   UNL     1      38.993 -12.307   1.460  1.00  0.00     0.100 A 
HETATM    8  C   UNL     1      39.676 -11.652   2.448  1.00  0.00     0.062 A 
HETATM    9  S   UNL     1      37.393 -11.764   1.285  1.00  0.00    -0.094 SA
HETATM   10  C   UNL     1      37.602 -10.607   2.532  1.00  0.00     0.053 A 
HETATM   11  C   UNL     1      38.870 -10.656   3.073  1.00  0.00     0.038 A 
ENDROOT
BRANCH   4  12
HETATM   12  C   UNL     1      41.693 -14.563   0.123  1.00  0.00     0.146 C 
BRANCH  12  13
HETATM   13  C   UNL     1      41.343 -16.036   0.313  1.00  0.00     0.123 C 
BRANCH  13  14
HETATM   14  C   UNL     1      41.675 -16.520   1.706  1.00  0.00     0.219 C 
HETATM   15  N   UNL     1      43.023 -16.727   1.882  1.00  0.00    -0.357 N 
HETATM   16  H   UNL     1      43.651 -16.621   1.094  1.00  0.00     0.162 HD
HETATM   17  O   UNL     1      40.837 -16.695   2.581  1.00  0.00    -0.274 OA
BRANCH  15  18
HETATM   18  C   UNL     1      43.591 -17.144   3.142  1.00  0.00     0.161 C 
BRANCH  18  19
HETATM   19  C   UNL     1      43.870 -18.624   3.109  1.00  0.00    -0.038 A 
HETATM   20  C   UNL     1      44.312 -19.299   4.257  1.00  0.00     0.048 A 
HETATM   21  C   UNL     1      44.504 -20.663   4.172  1.00  0.00     0.105 A 
HETATM   22  C   UNL     1      44.272 -21.360   3.009  1.00  0.00     0.105 A 
HETATM   23  O   UNL     1      44.922 -21.470   5.184  1.00  0.00    -0.323 OA
HETATM   24  O   UNL     1      44.514 -22.690   3.144  1.00  0.00    -0.323 OA
HETATM   25  C   UNL     1      43.838 -20.733   1.863  1.00  0.00     0.040 A 
HETATM   26  C   UNL     1      44.928 -22.753   4.524  1.00  0.00     0.352 A 
HETATM   27  C   UNL     1      43.634 -19.352   1.917  1.00  0.00     0.012 A 
ENDBRANCH  18  19
ENDBRANCH  15  18
ENDBRANCH  13  14
ENDBRANCH  12  13
ENDBRANCH   4  12
BRANCH   1  28
HETATM   28  C   UNL     1      41.703 -11.516   3.898  1.00  0.00     0.237 C 
BRANCH  28  29
HETATM   29  C   UNL     1      41.677 -12.495   5.066  1.00  0.00     0.240 C 
HETATM   30  N   UNL     1      42.660 -13.467   4.975  1.00  0.00    -0.325 N 
HETATM   31  H   UNL     1      43.512 -13.168   4.496  1.00  0.00     0.169 HD
HETATM   32  O   UNL     1      40.881 -12.358   5.992  1.00  0.00    -0.271 OA
BRANCH  30  33
HETATM   33  C   UNL     1      42.746 -14.633   5.768  1.00  0.00     0.042 A 
HETATM   34  C   UNL     1      43.820 -14.935   6.629  1.00  0.00    -0.035 A 
HETATM   35  C   UNL     1      44.991 -14.021   6.874  1.00  0.00     0.050 C 
HETATM   36  C   UNL     1      43.793 -16.141   7.356  1.00  0.00     0.011 A 
HETATM   37  C   UNL     1      42.703 -17.005   7.277  1.00  0.00     0.024 A 
HETATM   38  C   UNL     1      41.623 -16.668   6.472  1.00  0.00     0.036 A 
HETATM   39  C   UNL     1      41.633 -15.487   5.731  1.00  0.00     0.053 A 
HETATM   40 CL   UNL     1      40.264 -17.723   6.386  1.00  0.00    -0.084 Cl
ENDBRANCH  30  33
ENDBRANCH  28  29
ENDBRANCH   1  28
TORSDOF 8
ENDMDL
MODEL 3
REMARK VINA RESULT:      -9.3      3.527      5.935
REMARK  8 active torsions:
REMARK  status: ('A' for Active; 'I' for Inactive)
REMARK    1  A    between atoms: C_3  and  N_4 
REMARK       I    between atoms: N_4  and  C_5 
REMARK    2  A    between atoms: C_5  and  C_6 
REMARK    3  A    between atoms: C_6  and  N_7 
REMARK    4  A    between atoms: N_10  and  C_11 
REMARK    5  A    between atoms: C_11  and  C_12 
REMARK    6  A    between atoms: C_12  and  C_13 
REMARK       I    between atoms: C_13  and  N_14 
REMARK    7  A    between atoms: N_14  and  C_15 
REMARK    8  A    between atoms: C_15  and  C_16 
ROOT
HETATM    1  N   UNL     1      43.653 -17.303   2.766  1.00  0.00    -0.289 N 
HETATM    2  C   UNL     1      43.411 -16.348   3.755  1.00  0.00     0.332 C 
HETATM    3  O   UNL     1      43.227 -15.168   3.436  1.00  0.00    -0.246 OA
HETATM    4  N   UNL     1      43.385 -16.774   5.095  1.00  0.00    -0.265 N 
HETATM    5  C   UNL     1      43.542 -18.110   5.492  1.00  0.00     0.271 C 
HETATM    6  O   UNL     1      43.342 -18.511   6.636  1.00  0.00    -0.266 OA
HETATM    7  C   UNL     1      43.945 -18.985   4.426  1.00  0.00     0.100 A 
HETATM    8  C   UNL     1      44.003 -18.602   3.114  1.00  0.00     0.062 A 
HETATM    9  S   UNL     1      44.368 -20.613   4.664  1.00  0.00    -0.094 SA
HETATM   10  C   UNL     1      44.666 -20.826   2.990  1.00  0.00     0.053 A 
HETATM   11  C   UNL     1      44.427 -19.671   2.273  1.00  0.00     0.038 A 
ENDROOT
BRANCH   4  12
HETATM   12  C   UNL     1      43.009 -15.727   6.063  1.00  0.00     0.146 C 
BRANCH  12  13
HETATM   13  C   UNL     1      43.918 -15.467   7.261  1.00  0.00     0.123 C 
BRANCH  13  14
HETATM   14  C   UNL     1      44.560 -14.100   7.196  1.00  0.00     0.219 C 
HETATM   15  N   UNL     1      44.628 -13.493   8.428  1.00  0.00    -0.357 N 
HETATM   16  H   UNL     1      44.201 -13.942   9.229  1.00  0.00     0.162 HD
HETATM   17  O   UNL     1      44.983 -13.597   6.162  1.00  0.00    -0.274 OA
BRANCH  15  18
HETATM   18  C   UNL     1      45.243 -12.202   8.630  1.00  0.00     0.161 C 
BRANCH  18  19
HETATM   19  C   UNL     1      44.364 -11.354   9.511  1.00  0.00    -0.038 A 
HETATM   20  C   UNL     1      43.095 -10.939   9.076  1.00  0.00     0.048 A 
HETATM   21  C   UNL     1      42.321 -10.202   9.950  1.00  0.00     0.105 A 
HETATM   22  C   UNL     1      42.757  -9.877  11.212  1.00  0.00     0.105 A 
HETATM   23  O   UNL     1      41.072  -9.727   9.694  1.00  0.00    -0.323 OA
HETATM   24  O   UNL     1      41.839  -9.157  11.909  1.00  0.00    -0.323 OA
HETATM   25  C   UNL     1      43.993 -10.266  11.675  1.00  0.00     0.040 A 
HETATM   26  C   UNL     1      40.774  -9.063  10.941  1.00  0.00     0.352 A 
HETATM   27  C   UNL     1      44.802 -11.013  10.813  1.00  0.00     0.012 A 
ENDBRANCH  18  19
ENDBRANCH  15  18
ENDBRANCH  13  14
ENDBRANCH  12  13
ENDBRANCH   4  12
BRANCH   1  28
HETATM   28  C   UNL     1      43.479 -16.889   1.376  1.00  0.00     0.237 C 
BRANCH  28  29
HETATM   29  C   UNL     1      42.016 -16.701   0.992  1.00  0.00     0.240 C 
HETATM   30  N   UNL     1      41.712 -15.391   0.658  1.00  0.00    -0.325 N 
HETATM   31  H   UNL     1      42.486 -14.867   0.244  1.00  0.00     0.169 HD
HETATM   32  O   UNL     1      41.243 -17.655   0.949  1.00  0.00    -0.271 OA
BRANCH  30  33
HETATM   33  C   UNL     1      40.414 -14.861   0.484  1.00  0.00     0.042 A 
HETATM   34  C   UNL     1      39.492 -14.653   1.529  1.00  0.00    -0.035 A 
HETATM   35  C   UNL     1      39.789 -14.901   2.984  1.00  0.00     0.050 C 
HETATM   36  C   UNL     1      38.220 -14.130   1.221  1.00  0.00     0.011 A 
HETATM   37  C   UNL     1      37.886 -13.769  -0.082  1.00  0.00     0.024 A 
HETATM   38  C   UNL     1      38.824 -13.922  -1.093  1.00  0.00     0.036 A 
HETATM   39  C   UNL     1      40.084 -14.451  -0.817  1.00  0.00     0.053 A 
HETATM   40 CL   UNL     1      38.424 -13.460  -2.703  1.00  0.00    -0.084 Cl
ENDBRANCH  30  33
ENDBRANCH  28  29
ENDBRANCH   1  28
TORSDOF 8
ENDMDL
MODEL 4
REMARK VINA RESULT:      -9.1      2.066      2.675
REMARK  8 active torsions:
REMARK  status: ('A' for Active; 'I' for Inactive)
REMARK    1  A    between atoms: C_3  and  N_4 
REMARK       I    between atoms: N_4  and  C_5 
REMARK    2  A    between atoms: C_5  and  C_6 
REMARK    3  A    between atoms: C_6  and  N_7 
REMARK    4  A    between atoms: N_10  and  C_11 
REMARK    5  A    between atoms: C_11  and  C_12 
REMARK    6  A    between atoms: C_12  and  C_13 
REMARK       I    between atoms: C_13  and  N_14 
REMARK    7  A    between atoms: N_14  and  C_15 
REMARK    8  A    between atoms: C_15  and  C_16 
ROOT
HETATM    1  N   UNL     1      42.021 -15.257   3.737  1.00  0.00    -0.289 N 
HETATM    2  C   UNL     1      41.303 -14.545   4.701  1.00  0.00     0.332 C 
HETATM    3  O   UNL     1      41.611 -14.649   5.894  1.00  0.00    -0.246 OA
HETATM    4  N   UNL     1      40.245 -13.726   4.269  1.00  0.00    -0.265 N 
HETATM    5  C   UNL     1      39.898 -13.546   2.922  1.00  0.00     0.271 C 
HETATM    6  O   UNL     1      39.098 -12.700   2.530  1.00  0.00    -0.266 OA
HETATM    7  C   UNL     1      40.580 -14.439   2.027  1.00  0.00     0.100 A 
HETATM    8  C   UNL     1      41.600 -15.264   2.413  1.00  0.00     0.062 A 
HETATM    9  S   UNL     1      40.224 -14.550   0.370  1.00  0.00    -0.094 SA
HETATM   10  C   UNL     1      41.431 -15.745   0.146  1.00  0.00     0.053 A 
HETATM   11  C   UNL     1      42.096 -16.032   1.320  1.00  0.00     0.038 A 
ENDROOT
BRANCH   4  12
HETATM   12  C   UNL     1      39.619 -12.923   5.336  1.00  0.00     0.146 C 
BRANCH  12  13
HETATM   13  C   UNL     1      40.251 -11.590   5.725  1.00  0.00     0.123 C 
BRANCH  13  14
HETATM   14  C   UNL     1      39.545 -10.952   6.900  1.00  0.00     0.219 C 
HETATM   15  N   UNL     1      39.767 -11.629   8.076  1.00  0.00    -0.357 N 
HETATM   16  H   UNL     1      40.291 -12.496   8.061  1.00  0.00     0.162 HD
HETATM   17  O   UNL     1      38.863  -9.939   6.813  1.00  0.00    -0.274 OA
BRANCH  15  18
HETATM   18  C   UNL     1      39.238 -11.185   9.344  1.00  0.00     0.161 C 
BRANCH  18  19
HETATM   19  C   UNL     1      40.373 -10.888  10.290  1.00  0.00    -0.038 A 
HETATM   20  C   UNL     1      40.160 -10.837  11.676  1.00  0.00     0.048 A 
HETATM   21  C   UNL     1      41.249 -10.605  12.490  1.00  0.00     0.105 A 
HETATM   22  C   UNL     1      42.514 -10.431  11.981  1.00  0.00     0.105 A 
HETATM   23  O   UNL     1      41.223 -10.531  13.848  1.00  0.00    -0.323 OA
HETATM   24  O   UNL     1      43.442 -10.225  12.953  1.00  0.00    -0.323 OA
HETATM   25  C   UNL     1      42.764 -10.474  10.628  1.00  0.00     0.040 A 
HETATM   26  C   UNL     1      42.616 -10.287  14.134  1.00  0.00     0.352 A 
HETATM   27  C   UNL     1      41.680 -10.706   9.776  1.00  0.00     0.012 A 
ENDBRANCH  18  19
ENDBRANCH  15  18
ENDBRANCH  13  14
ENDBRANCH  12  13
ENDBRANCH   4  12
BRANCH   1  28
HETATM   28  C   UNL     1      43.235 -15.941   4.174  1.00  0.00     0.237 C 
BRANCH  28  29
HETATM   29  C   UNL     1      43.018 -17.427   4.433  1.00  0.00     0.240 C 
HETATM   30  N   UNL     1      44.205 -18.129   4.562  1.00  0.00    -0.325 N 
HETATM   31  H   UNL     1      44.980 -17.587   4.947  1.00  0.00     0.169 HD
HETATM   32  O   UNL     1      41.887 -17.891   4.558  1.00  0.00    -0.271 OA
BRANCH  30  33
HETATM   33  C   UNL     1      44.337 -19.535   4.575  1.00  0.00     0.042 A 
HETATM   34  C   UNL     1      44.297 -20.329   5.739  1.00  0.00    -0.035 A 
HETATM   35  C   UNL     1      44.038 -19.793   7.121  1.00  0.00     0.050 C 
HETATM   36  C   UNL     1      44.456 -21.724   5.618  1.00  0.00     0.011 A 
HETATM   37  C   UNL     1      44.596 -22.328   4.371  1.00  0.00     0.024 A 
HETATM   38  C   UNL     1      44.574 -21.542   3.227  1.00  0.00     0.036 A 
HETATM   39  C   UNL     1      44.432 -20.158   3.321  1.00  0.00     0.053 A 
HETATM   40 CL   UNL     1      44.728 -22.284   1.681  1.00  0.00    -0.084 Cl
ENDBRANCH  30  33
ENDBRANCH  28  29
ENDBRANCH   1  28
TORSDOF 8
ENDMDL
MODEL 5
REMARK VINA RESULT:      -9.0      1.898      2.702
REMARK  8 active torsions:
REMARK  status: ('A' for Active; 'I' for Inactive)
REMARK    1  A    between atoms: C_3  and  N_4 
REMARK       I    between atoms: N_4  and  C_5 
REMARK    2  A    between atoms: C_5  and  C_6 
REMARK    3  A    between atoms: C_6  and  N_7 
REMARK    4  A    between atoms: N_10  and  C_11 
REMARK    5  A    between atoms: C_11  and  C_12 
REMARK    6  A    between atoms: C_12  and  C_13 
REMARK       I    between atoms: C_13  and  N_14 
REMARK    7  A    between atoms: N_14  and  C_15 
REMARK    8  A    between atoms: C_15  and  C_16 
ROOT
HETATM    1  N   UNL     1      41.622 -14.655   3.875  1.00  0.00    -0.289 N 
HETATM    2  C   UNL     1      40.754 -14.090   4.812  1.00  0.00     0.332 C 
HETATM    3  O   UNL     1      40.873 -14.376   6.009  1.00  0.00    -0.246 OA
HETATM    4  N   UNL     1      39.766 -13.202   4.349  1.00  0.00    -0.265 N 
HETATM    5  C   UNL     1      39.631 -12.818   3.007  1.00  0.00     0.271 C 
HETATM    6  O   UNL     1      38.891 -11.913   2.627  1.00  0.00    -0.266 OA
HETATM    7  C   UNL     1      40.455 -13.572   2.105  1.00  0.00     0.100 A 
HETATM    8  C   UNL     1      41.413 -14.458   2.516  1.00  0.00     0.062 A 
HETATM    9  S   UNL     1      40.364 -13.428   0.414  1.00  0.00    -0.094 SA
HETATM   10  C   UNL     1      41.606 -14.589   0.204  1.00  0.00     0.053 A 
HETATM   11  C   UNL     1      42.083 -15.058   1.411  1.00  0.00     0.038 A 
ENDROOT
BRANCH   4  12
HETATM   12  C   UNL     1      38.971 -12.563   5.413  1.00  0.00     0.146 C 
BRANCH  12  13
HETATM   13  C   UNL     1      39.393 -11.189   5.926  1.00  0.00     0.123 C 
BRANCH  13  14
HETATM   14  C   UNL     1      39.469 -11.149   7.436  1.00  0.00     0.219 C 
HETATM   15  N   UNL     1      40.118 -10.029   7.899  1.00  0.00    -0.357 N 
HETATM   16  H   UNL     1      40.540  -9.388   7.238  1.00  0.00     0.162 HD
HETATM   17  O   UNL     1      38.994 -12.013   8.162  1.00  0.00    -0.274 OA
BRANCH  15  18
HETATM   18  C   UNL     1      40.273  -9.742   9.306  1.00  0.00     0.161 C 
BRANCH  18  19
HETATM   19  C   UNL     1      41.523 -10.406   9.823  1.00  0.00    -0.038 A 
HETATM   20  C   UNL     1      42.658 -10.538   9.008  1.00  0.00     0.048 A 
HETATM   21  C   UNL     1      43.786 -11.114   9.557  1.00  0.00     0.105 A 
HETATM   22  C   UNL     1      43.820 -11.548  10.861  1.00  0.00     0.105 A 
HETATM   23  O   UNL     1      44.967 -11.313   8.913  1.00  0.00    -0.323 OA
HETATM   24  O   UNL     1      45.026 -12.074  11.202  1.00  0.00    -0.323 OA
HETATM   25  C   UNL     1      42.728 -11.435  11.692  1.00  0.00     0.040 A 
HETATM   26  C   UNL     1      45.748 -11.924   9.962  1.00  0.00     0.352 A 
HETATM   27  C   UNL     1      41.570 -10.856  11.165  1.00  0.00     0.012 A 
ENDBRANCH  18  19
ENDBRANCH  15  18
ENDBRANCH  13  14
ENDBRANCH  12  13
ENDBRANCH   4  12
BRANCH   1  28
HETATM   28  C   UNL     1      42.762 -15.411   4.387  1.00  0.00     0.237 C 
BRANCH  28  29
HETATM   29  C   UNL     1      42.609 -16.916   4.198  1.00  0.00     0.240 C 
HETATM   30  N   UNL     1      43.813 -17.551   3.944  1.00  0.00    -0.325 N 
HETATM   31  H   UNL     1      44.628 -17.106   4.373  1.00  0.00     0.169 HD
HETATM   32  O   UNL     1      41.516 -17.463   4.322  1.00  0.00    -0.271 OA
BRANCH  30  33
HETATM   33  C   UNL     1      43.969 -18.883   3.502  1.00  0.00     0.042 A 
HETATM   34  C   UNL     1      43.753 -19.315   2.178  1.00  0.00    -0.035 A 
HETATM   35  C   UNL     1      43.393 -18.401   1.037  1.00  0.00     0.050 C 
HETATM   36  C   UNL     1      43.929 -20.679   1.868  1.00  0.00     0.011 A 
HETATM   37  C   UNL     1      44.362 -21.586   2.832  1.00  0.00     0.024 A 
HETATM   38  C   UNL     1      44.631 -21.137   4.119  1.00  0.00     0.036 A 
HETATM   39  C   UNL     1      44.450 -19.796   4.454  1.00  0.00     0.053 A 
HETATM   40 CL   UNL     1      45.186 -22.250   5.310  1.00  0.00    -0.084 Cl
ENDBRANCH  30  33
ENDBRANCH  28  29
ENDBRANCH   1  28
TORSDOF 8
ENDMDL
MODEL 6
REMARK VINA RESULT:      -9.0      2.272      2.757
REMARK  8 active torsions:
REMARK  status: ('A' for Active; 'I' for Inactive)
REMARK    1  A    between atoms: C_3  and  N_4 
REMARK       I    between atoms: N_4  and  C_5 
REMARK    2  A    between atoms: C_5  and  C_6 
REMARK    3  A    between atoms: C_6  and  N_7 
REMARK    4  A    between atoms: N_10  and  C_11 
REMARK    5  A    between atoms: C_11  and  C_12 
REMARK    6  A    between atoms: C_12  and  C_13 
REMARK       I    between atoms: C_13  and  N_14 
REMARK    7  A    between atoms: N_14  and  C_15 
REMARK    8  A    between atoms: C_15  and  C_16 
ROOT
HETATM    1  N   UNL     1      41.007 -16.048   1.079  1.00  0.00    -0.289 N 
HETATM    2  C   UNL     1      40.675 -15.977   2.433  1.00  0.00     0.332 C 
HETATM    3  O   UNL     1      40.713 -17.000   3.128  1.00  0.00    -0.246 OA
HETATM    4  N   UNL     1      40.307 -14.727   2.961  1.00  0.00    -0.265 N 
HETATM    5  C   UNL     1      40.298 -13.539   2.217  1.00  0.00     0.271 C 
HETATM    6  O   UNL     1      40.153 -12.424   2.713  1.00  0.00    -0.266 OA
HETATM    7  C   UNL     1      40.492 -13.739   0.808  1.00  0.00     0.100 A 
HETATM    8  C   UNL     1      40.831 -14.943   0.255  1.00  0.00     0.062 A 
HETATM    9  S   UNL     1      40.358 -12.493  -0.339  1.00  0.00    -0.094 SA
HETATM   10  C   UNL     1      40.730 -13.571  -1.618  1.00  0.00     0.053 A 
HETATM   11  C   UNL     1      40.966 -14.851  -1.161  1.00  0.00     0.038 A 
ENDROOT
BRANCH   4  12
HETATM   12  C   UNL     1      40.087 -14.720   4.420  1.00  0.00     0.146 C 
BRANCH  12  13
HETATM   13  C   UNL     1      40.735 -13.623   5.259  1.00  0.00     0.123 C 
BRANCH  13  14
HETATM   14  C   UNL     1      42.241 -13.755   5.296  1.00  0.00     0.219 C 
HETATM   15  N   UNL     1      42.675 -14.515   6.357  1.00  0.00    -0.357 N 
HETATM   16  H   UNL     1      42.004 -14.848   7.039  1.00  0.00     0.162 HD
HETATM   17  O   UNL     1      42.987 -13.251   4.466  1.00  0.00    -0.274 OA
BRANCH  15  18
HETATM   18  C   UNL     1      44.068 -14.825   6.577  1.00  0.00     0.161 C 
BRANCH  18  19
HETATM   19  C   UNL     1      44.722 -13.702   7.340  1.00  0.00    -0.038 A 
HETATM   20  C   UNL     1      44.060 -13.074   8.406  1.00  0.00     0.048 A 
HETATM   21  C   UNL     1      44.732 -12.084   9.093  1.00  0.00     0.105 A 
HETATM   22  C   UNL     1      46.013 -11.710   8.762  1.00  0.00     0.105 A 
HETATM   23  O   UNL     1      44.244 -11.379  10.149  1.00  0.00    -0.323 OA
HETATM   24  O   UNL     1      46.492 -10.726   9.568  1.00  0.00    -0.323 OA
HETATM   25  C   UNL     1      46.696 -12.303   7.724  1.00  0.00     0.040 A 
HETATM   26  C   UNL     1      45.364 -10.519  10.443  1.00  0.00     0.352 A 
HETATM   27  C   UNL     1      46.042 -13.309   7.008  1.00  0.00     0.012 A 
ENDBRANCH  18  19
ENDBRANCH  15  18
ENDBRANCH  13  14
ENDBRANCH  12  13
ENDBRANCH   4  12
BRANCH   1  28
HETATM   28  C   UNL     1      41.577 -17.301   0.592  1.00  0.00     0.237 C 
BRANCH  28  29
HETATM   29  C   UNL     1      42.815 -17.732   1.370  1.00  0.00     0.240 C 
HETATM   30  N   UNL     1      42.677 -18.983   1.949  1.00  0.00    -0.325 N 
HETATM   31  H   UNL     1      42.070 -19.625   1.436  1.00  0.00     0.169 HD
HETATM   32  O   UNL     1      43.821 -17.027   1.403  1.00  0.00    -0.271 OA
BRANCH  30  33
HETATM   33  C   UNL     1      43.544 -19.550   2.909  1.00  0.00     0.042 A 
HETATM   34  C   UNL     1      44.126 -20.829   2.801  1.00  0.00    -0.035 A 
HETATM   35  C   UNL     1      43.958 -21.738   1.614  1.00  0.00     0.050 C 
HETATM   36  C   UNL     1      44.966 -21.285   3.837  1.00  0.00     0.011 A 
HETATM   37  C   UNL     1      45.267 -20.475   4.929  1.00  0.00     0.024 A 
HETATM   38  C   UNL     1      44.737 -19.194   4.995  1.00  0.00     0.036 A 
HETATM   39  C   UNL     1      43.892 -18.724   3.990  1.00  0.00     0.053 A 
HETATM   40 CL   UNL     1      45.122 -18.181   6.333  1.00  0.00    -0.084 Cl
ENDBRANCH  30  33
ENDBRANCH  28  29
ENDBRANCH   1  28
TORSDOF 8
ENDMDL
MODEL 7
REMARK VINA RESULT:      -9.0      2.169      2.974
REMARK  8 active torsions:
REMARK  status: ('A' for Active; 'I' for Inactive)
REMARK    1  A    between atoms: C_3  and  N_4 
REMARK       I    between atoms: N_4  and  C_5 
REMARK    2  A    between atoms: C_5  and  C_6 
REMARK    3  A    between atoms: C_6  and  N_7 
REMARK    4  A    between atoms: N_10  and  C_11 
REMARK    5  A    between atoms: C_11  and  C_12 
REMARK    6  A    between atoms: C_12  and  C_13 
REMARK       I    between atoms: C_13  and  N_14 
REMARK    7  A    between atoms: N_14  and  C_15 
REMARK    8  A    between atoms: C_15  and  C_16 
ROOT
HETATM    1  N   UNL     1      41.965 -15.145   3.779  1.00  0.00    -0.289 N 
HETATM    2  C   UNL     1      41.155 -14.328   4.572  1.00  0.00     0.332 C 
HETATM    3  O   UNL     1      41.330 -14.296   5.796  1.00  0.00    -0.246 OA
HETATM    4  N   UNL     1      40.161 -13.563   3.937  1.00  0.00    -0.265 N 
HETATM    5  C   UNL     1      39.965 -13.537   2.549  1.00  0.00     0.271 C 
HETATM    6  O   UNL     1      39.224 -12.741   1.978  1.00  0.00    -0.266 OA
HETATM    7  C   UNL     1      40.729 -14.526   1.840  1.00  0.00     0.100 A 
HETATM    8  C   UNL     1      41.690 -15.303   2.426  1.00  0.00     0.062 A 
HETATM    9  S   UNL     1      40.555 -14.825   0.177  1.00  0.00    -0.094 SA
HETATM   10  C   UNL     1      41.763 -16.038   0.223  1.00  0.00     0.053 A 
HETATM   11  C   UNL     1      42.293 -16.190   1.488  1.00  0.00     0.038 A 
ENDROOT
BRANCH   4  12
HETATM   12  C   UNL     1      39.433 -12.644   4.831  1.00  0.00     0.146 C 
BRANCH  12  13
HETATM   13  C   UNL     1      39.749 -11.152   4.774  1.00  0.00     0.123 C 
BRANCH  13  14
HETATM   14  C   UNL     1      39.357 -10.442   6.049  1.00  0.00     0.219 C 
HETATM   15  N   UNL     1      39.743 -11.133   7.174  1.00  0.00    -0.357 N 
HETATM   16  H   UNL     1      40.168 -12.047   7.077  1.00  0.00     0.162 HD
HETATM   17  O   UNL     1      38.772  -9.367   6.075  1.00  0.00    -0.274 OA
BRANCH  15  18
HETATM   18  C   UNL     1      39.524 -10.633   8.511  1.00  0.00     0.161 C 
BRANCH  18  19
HETATM   19  C   UNL     1      40.787 -10.778   9.320  1.00  0.00    -0.038 A 
HETATM   20  C   UNL     1      42.047 -10.687   8.709  1.00  0.00     0.048 A 
HETATM   21  C   UNL     1      43.164 -10.783   9.513  1.00  0.00     0.105 A 
HETATM   22  C   UNL     1      43.069 -10.959  10.873  1.00  0.00     0.105 A 
HETATM   23  O   UNL     1      44.455 -10.710   9.089  1.00  0.00    -0.323 OA
HETATM   24  O   UNL     1      44.286 -11.019  11.476  1.00  0.00    -0.323 OA
HETATM   25  C   UNL     1      41.852 -11.052  11.509  1.00  0.00     0.040 A 
HETATM   26  C   UNL     1      45.160 -10.863  10.339  1.00  0.00     0.352 A 
HETATM   27  C   UNL     1      40.701 -10.960  10.721  1.00  0.00     0.012 A 
ENDBRANCH  18  19
ENDBRANCH  15  18
ENDBRANCH  13  14
ENDBRANCH  12  13
ENDBRANCH   4  12
BRANCH   1  28
HETATM   28  C   UNL     1      43.115 -15.776   4.421  1.00  0.00     0.237 C 
BRANCH  28  29
HETATM   29  C   UNL     1      42.920 -17.270   4.651  1.00  0.00     0.240 C 
HETATM   30  N   UNL     1      44.117 -17.960   4.744  1.00  0.00    -0.325 N 
HETATM   31  H   UNL     1      44.893 -17.417   5.128  1.00  0.00     0.169 HD
HETATM   32  O   UNL     1      41.797 -17.751   4.786  1.00  0.00    -0.271 OA
BRANCH  30  33
HETATM   33  C   UNL     1      44.266 -19.364   4.725  1.00  0.00     0.042 A 
HETATM   34  C   UNL     1      44.215 -20.188   5.868  1.00  0.00    -0.035 A 
HETATM   35  C   UNL     1      43.924 -19.690   7.258  1.00  0.00     0.050 C 
HETATM   36  C   UNL     1      44.393 -21.578   5.715  1.00  0.00     0.011 A 
HETATM   37  C   UNL     1      44.564 -22.148   4.456  1.00  0.00     0.024 A 
HETATM   38  C   UNL     1      44.552 -21.333   3.332  1.00  0.00     0.036 A 
HETATM   39  C   UNL     1      44.392 -19.954   3.457  1.00  0.00     0.053 A 
HETATM   40 CL   UNL     1      44.743 -22.034   1.770  1.00  0.00    -0.084 Cl
ENDBRANCH  30  33
ENDBRANCH  28  29
ENDBRANCH   1  28
TORSDOF 8
ENDMDL
MODEL 8
REMARK VINA RESULT:      -8.9      3.166      9.565
REMARK  8 active torsions:
REMARK  status: ('A' for Active; 'I' for Inactive)
REMARK    1  A    between atoms: C_3  and  N_4 
REMARK       I    between atoms: N_4  and  C_5 
REMARK    2  A    between atoms: C_5  and  C_6 
REMARK    3  A    between atoms: C_6  and  N_7 
REMARK    4  A    between atoms: N_10  and  C_11 
REMARK    5  A    between atoms: C_11  and  C_12 
REMARK    6  A    between atoms: C_12  and  C_13 
REMARK       I    between atoms: C_13  and  N_14 
REMARK    7  A    between atoms: N_14  and  C_15 
REMARK    8  A    between atoms: C_15  and  C_16 
ROOT
HETATM    1  N   UNL     1      41.222 -11.751   5.694  1.00  0.00    -0.289 N 
HETATM    2  C   UNL     1      42.315 -12.602   5.870  1.00  0.00     0.332 C 
HETATM    3  O   UNL     1      42.772 -12.785   7.004  1.00  0.00    -0.246 OA
HETATM    4  N   UNL     1      42.858 -13.226   4.733  1.00  0.00    -0.265 N 
HETATM    5  C   UNL     1      42.338 -13.080   3.439  1.00  0.00     0.271 C 
HETATM    6  O   UNL     1      42.695 -13.758   2.479  1.00  0.00    -0.266 OA
HETATM    7  C   UNL     1      41.327 -12.065   3.336  1.00  0.00     0.100 A 
HETATM    8  C   UNL     1      40.788 -11.422   4.415  1.00  0.00     0.062 A 
HETATM    9  S   UNL     1      40.653 -11.567   1.858  1.00  0.00    -0.094 SA
HETATM   10  C   UNL     1      39.631 -10.444   2.653  1.00  0.00     0.053 A 
HETATM   11  C   UNL     1      39.802 -10.471   4.022  1.00  0.00     0.038 A 
ENDROOT
BRANCH   4  12
HETATM   12  C   UNL     1      43.931 -14.196   5.023  1.00  0.00     0.146 C 
BRANCH  12  13
HETATM   13  C   UNL     1      43.561 -15.552   5.616  1.00  0.00     0.123 C 
BRANCH  13  14
HETATM   14  C   UNL     1      42.780 -16.401   4.639  1.00  0.00     0.219 C 
HETATM   15  N   UNL     1      43.537 -16.789   3.559  1.00  0.00    -0.357 N 
HETATM   16  H   UNL     1      44.482 -16.439   3.461  1.00  0.00     0.162 HD
HETATM   17  O   UNL     1      41.608 -16.716   4.800  1.00  0.00    -0.274 OA
BRANCH  15  18
HETATM   18  C   UNL     1      43.026 -17.645   2.514  1.00  0.00     0.161 C 
BRANCH  18  19
HETATM   19  C   UNL     1      43.523 -19.052   2.724  1.00  0.00    -0.038 A 
HETATM   20  C   UNL     1      44.050 -19.452   3.962  1.00  0.00     0.048 A 
HETATM   21  C   UNL     1      44.445 -20.767   4.103  1.00  0.00     0.105 A 
HETATM   22  C   UNL     1      44.333 -21.674   3.076  1.00  0.00     0.105 A 
HETATM   23  O   UNL     1      44.969 -21.321   5.230  1.00  0.00    -0.323 OA
HETATM   24  O   UNL     1      44.771 -22.912   3.427  1.00  0.00    -0.323 OA
HETATM   25  C   UNL     1      43.822 -21.321   1.849  1.00  0.00     0.040 A 
HETATM   26  C   UNL     1      45.175 -22.681   4.793  1.00  0.00     0.352 A 
HETATM   27  C   UNL     1      43.413 -19.995   1.674  1.00  0.00     0.012 A 
ENDBRANCH  18  19
ENDBRANCH  15  18
ENDBRANCH  13  14
ENDBRANCH  12  13
ENDBRANCH   4  12
BRANCH   1  28
HETATM   28  C   UNL     1      40.545 -11.270   6.895  1.00  0.00     0.237 C 
BRANCH  28  29
HETATM   29  C   UNL     1      41.476 -10.521   7.841  1.00  0.00     0.240 C 
HETATM   30  N   UNL     1      41.587 -11.130   9.080  1.00  0.00    -0.325 N 
HETATM   31  H   UNL     1      41.479 -12.147   9.066  1.00  0.00     0.169 HD
HETATM   32  O   UNL     1      42.082  -9.517   7.473  1.00  0.00    -0.271 OA
BRANCH  30  33
HETATM   33  C   UNL     1      42.181 -10.565  10.230  1.00  0.00     0.042 A 
HETATM   34  C   UNL     1      43.473 -10.879  10.697  1.00  0.00    -0.035 A 
HETATM   35  C   UNL     1      44.425 -11.809   9.993  1.00  0.00     0.050 C 
HETATM   36  C   UNL     1      43.946 -10.254  11.868  1.00  0.00     0.011 A 
HETATM   37  C   UNL     1      43.181  -9.299  12.533  1.00  0.00     0.024 A 
HETATM   38  C   UNL     1      41.934  -8.953  12.030  1.00  0.00     0.036 A 
HETATM   39  C   UNL     1      41.438  -9.568  10.881  1.00  0.00     0.053 A 
HETATM   40 CL   UNL     1      40.991  -7.759  12.837  1.00  0.00    -0.084 Cl
ENDBRANCH  30  33
ENDBRANCH  28  29
ENDBRANCH   1  28
TORSDOF 8
ENDMDL
MODEL 9
REMARK VINA RESULT:      -8.9      4.170      7.685
REMARK  8 active torsions:
REMARK  status: ('A' for Active; 'I' for Inactive)
REMARK    1  A    between atoms: C_3  and  N_4 
REMARK       I    between atoms: N_4  and  C_5 
REMARK    2  A    between atoms: C_5  and  C_6 
REMARK    3  A    between atoms: C_6  and  N_7 
REMARK    4  A    between atoms: N_10  and  C_11 
REMARK    5  A    between atoms: C_11  and  C_12 
REMARK    6  A    between atoms: C_12  and  C_13 
REMARK       I    between atoms: C_13  and  N_14 
REMARK    7  A    between atoms: N_14  and  C_15 
REMARK    8  A    between atoms: C_15  and  C_16 
ROOT
HETATM    1  N   UNL     1      43.378 -16.818   3.158  1.00  0.00    -0.289 N 
HETATM    2  C   UNL     1      42.886 -15.747   3.906  1.00  0.00     0.332 C 
HETATM    3  O   UNL     1      42.701 -14.652   3.361  1.00  0.00    -0.246 OA
HETATM    4  N   UNL     1      42.614 -15.960   5.270  1.00  0.00    -0.265 N 
HETATM    5  C   UNL     1      42.766 -17.198   5.910  1.00  0.00     0.271 C 
HETATM    6  O   UNL     1      42.363 -17.432   7.047  1.00  0.00    -0.266 OA
HETATM    7  C   UNL     1      43.427 -18.187   5.105  1.00  0.00     0.100 A 
HETATM    8  C   UNL     1      43.726 -18.009   3.783  1.00  0.00     0.062 A 
HETATM    9  S   UNL     1      43.888 -19.713   5.693  1.00  0.00    -0.094 SA
HETATM   10  C   UNL     1      44.530 -20.155   4.167  1.00  0.00     0.053 A 
HETATM   11  C   UNL     1      44.374 -19.153   3.232  1.00  0.00     0.038 A 
ENDROOT
BRANCH   4  12
HETATM   12  C   UNL     1      41.989 -14.813   5.955  1.00  0.00     0.146 C 
BRANCH  12  13
HETATM   13  C   UNL     1      40.468 -14.700   5.967  1.00  0.00     0.123 C 
BRANCH  13  14
HETATM   14  C   UNL     1      40.007 -13.268   5.811  1.00  0.00     0.219 C 
HETATM   15  N   UNL     1      40.273 -12.764   4.559  1.00  0.00    -0.357 N 
HETATM   16  H   UNL     1      40.793 -13.326   3.896  1.00  0.00     0.162 HD
HETATM   17  O   UNL     1      39.450 -12.634   6.699  1.00  0.00    -0.274 OA
BRANCH  15  18
HETATM   18  C   UNL     1      39.883 -11.434   4.154  1.00  0.00     0.161 C 
BRANCH  18  19
HETATM   19  C   UNL     1      40.181 -11.243   2.689  1.00  0.00    -0.038 A 
HETATM   20  C   UNL     1      41.442 -11.564   2.164  1.00  0.00     0.048 A 
HETATM   21  C   UNL     1      41.635 -11.409   0.806  1.00  0.00     0.105 A 
HETATM   22  C   UNL     1      40.636 -10.960  -0.025  1.00  0.00     0.105 A 
HETATM   23  O   UNL     1      42.787 -11.677   0.134  1.00  0.00    -0.323 OA
HETATM   24  O   UNL     1      41.033 -10.890  -1.323  1.00  0.00    -0.323 OA
HETATM   25  C   UNL     1      39.387 -10.637   0.453  1.00  0.00     0.040 A 
HETATM   26  C   UNL     1      42.398 -11.342  -1.215  1.00  0.00     0.352 A 
HETATM   27  C   UNL     1      39.159 -10.782   1.824  1.00  0.00     0.012 A 
ENDBRANCH  18  19
ENDBRANCH  15  18
ENDBRANCH  13  14
ENDBRANCH  12  13
ENDBRANCH   4  12
BRANCH   1  28
HETATM   28  C   UNL     1      43.465 -16.642   1.711  1.00  0.00     0.237 C 
BRANCH  28  29
HETATM   29  C   UNL     1      42.098 -16.543   1.042  1.00  0.00     0.240 C 
HETATM   30  N   UNL     1      41.828 -15.275   0.555  1.00  0.00    -0.325 N 
HETATM   31  H   UNL     1      42.652 -14.750   0.256  1.00  0.00     0.169 HD
HETATM   32  O   UNL     1      41.375 -17.530   0.928  1.00  0.00    -0.271 OA
BRANCH  30  33
HETATM   33  C   UNL     1      40.574 -14.814   0.098  1.00  0.00     0.042 A 
HETATM   34  C   UNL     1      39.438 -14.649   0.917  1.00  0.00    -0.035 A 
HETATM   35  C   UNL     1      39.426 -14.875   2.404  1.00  0.00     0.050 C 
HETATM   36  C   UNL     1      38.238 -14.194   0.334  1.00  0.00     0.011 A 
HETATM   37  C   UNL     1      38.176 -13.857  -1.016  1.00  0.00     0.024 A 
HETATM   38  C   UNL     1      39.317 -13.966  -1.800  1.00  0.00     0.036 A 
HETATM   39  C   UNL     1      40.513 -14.428  -1.250  1.00  0.00     0.053 A 
HETATM   40 CL   UNL     1      39.251 -13.533  -3.465  1.00  0.00    -0.084 Cl
ENDBRANCH  30  33
ENDBRANCH  28  29
ENDBRANCH   1  28
TORSDOF 8
ENDMDL
MODEL 10
REMARK VINA RESULT:      -8.9      2.943      5.326
REMARK  8 active torsions:
REMARK  status: ('A' for Active; 'I' for Inactive)
REMARK    1  A    between atoms: C_3  and  N_4 
REMARK       I    between atoms: N_4  and  C_5 
REMARK    2  A    between atoms: C_5  and  C_6 
REMARK    3  A    between atoms: C_6  and  N_7 
REMARK    4  A    between atoms: N_10  and  C_11 
REMARK    5  A    between atoms: C_11  and  C_12 
REMARK    6  A    between atoms: C_12  and  C_13 
REMARK       I    between atoms: C_13  and  N_14 
REMARK    7  A    between atoms: N_14  and  C_15 
REMARK    8  A    between atoms: C_15  and  C_16 
ROOT
HETATM    1  N   UNL     1      43.110 -16.517   2.942  1.00  0.00    -0.289 N 
HETATM    2  C   UNL     1      42.602 -15.357   3.531  1.00  0.00     0.332 C 
HETATM    3  O   UNL     1      42.450 -14.339   2.846  1.00  0.00    -0.246 OA
HETATM    4  N   UNL     1      42.278 -15.395   4.899  1.00  0.00    -0.265 N 
HETATM    5  C   UNL     1      42.392 -16.543   5.695  1.00  0.00     0.271 C 
HETATM    6  O   UNL     1      41.945 -16.630   6.837  1.00  0.00    -0.266 OA
HETATM    7  C   UNL     1      43.072 -17.630   5.047  1.00  0.00     0.100 A 
HETATM    8  C   UNL     1      43.422 -17.622   3.725  1.00  0.00     0.062 A 
HETATM    9  S   UNL     1      43.495 -19.072   5.839  1.00  0.00    -0.094 SA
HETATM   10  C   UNL     1      44.188 -19.708   4.407  1.00  0.00     0.053 A 
HETATM   11  C   UNL     1      44.077 -18.830   3.348  1.00  0.00     0.038 A 
ENDROOT
BRANCH   4  12
HETATM   12  C   UNL     1      41.641 -14.167   5.410  1.00  0.00     0.146 C 
BRANCH  12  13
HETATM   13  C   UNL     1      40.117 -14.095   5.468  1.00  0.00     0.123 C 
BRANCH  13  14
HETATM   14  C   UNL     1      39.633 -12.737   5.922  1.00  0.00     0.219 C 
HETATM   15  N   UNL     1      40.426 -12.200   6.909  1.00  0.00    -0.357 N 
HETATM   16  H   UNL     1      41.185 -12.750   7.293  1.00  0.00     0.162 HD
HETATM   17  O   UNL     1      38.652 -12.175   5.453  1.00  0.00    -0.274 OA
BRANCH  15  18
HETATM   18  C   UNL     1      40.194 -10.890   7.471  1.00  0.00     0.161 C 
BRANCH  18  19
HETATM   19  C   UNL     1      40.821 -10.807   8.838  1.00  0.00    -0.038 A 
HETATM   20  C   UNL     1      40.051 -10.999   9.996  1.00  0.00     0.048 A 
HETATM   21  C   UNL     1      40.695 -10.955  11.216  1.00  0.00     0.105 A 
HETATM   22  C   UNL     1      42.048 -10.735  11.317  1.00  0.00     0.105 A 
HETATM   23  O   UNL     1      40.105 -11.126  12.430  1.00  0.00    -0.323 OA
HETATM   24  O   UNL     1      42.480 -10.740  12.606  1.00  0.00    -0.323 OA
HETATM   25  C   UNL     1      42.837 -10.543  10.206  1.00  0.00     0.040 A 
HETATM   26  C   UNL     1      41.243 -10.985  13.306  1.00  0.00     0.352 A 
HETATM   27  C   UNL     1      42.214 -10.581   8.955  1.00  0.00     0.012 A 
ENDBRANCH  18  19
ENDBRANCH  15  18
ENDBRANCH  13  14
ENDBRANCH  12  13
ENDBRANCH   4  12
BRANCH   1  28
HETATM   28  C   UNL     1      43.252 -16.525   1.489  1.00  0.00     0.237 C 
BRANCH  28  29
HETATM   29  C   UNL     1      41.915 -16.436   0.762  1.00  0.00     0.240 C 
HETATM   30  N   UNL     1      41.808 -15.301  -0.026  1.00  0.00    -0.325 N 
HETATM   31  H   UNL     1      42.693 -14.963  -0.409  1.00  0.00     0.169 HD
HETATM   32  O   UNL     1      41.079 -17.330   0.859  1.00  0.00    -0.271 OA
BRANCH  30  33
HETATM   33  C   UNL     1      40.624 -14.824  -0.631  1.00  0.00     0.042 A 
HETATM   34  C   UNL     1      40.351 -14.890  -2.012  1.00  0.00    -0.035 A 
HETATM   35  C   UNL     1      41.255 -15.541  -3.024  1.00  0.00     0.050 C 
HETATM   36  C   UNL     1      39.135 -14.363  -2.493  1.00  0.00     0.011 A 
HETATM   37  C   UNL     1      38.186 -13.833  -1.622  1.00  0.00     0.024 A 
HETATM   38  C   UNL     1      38.440 -13.829  -0.257  1.00  0.00     0.036 A 
HETATM   39  C   UNL     1      39.641 -14.331   0.242  1.00  0.00     0.053 A 
HETATM   40 CL   UNL     1      37.262 -13.193   0.826  1.00  0.00    -0.084 Cl
ENDBRANCH  30  33
ENDBRANCH  28  29
ENDBRANCH   1  28
TORSDOF 8
ENDMDL
