MODEL 1
REMARK VINA RESULT:      -8.8      0.000      0.000
REMARK  5 active torsions:
REMARK  status: ('A' for Active; 'I' for Inactive)
REMARK    1  A    between atoms: O_2  and  C_3 
REMARK    2  A    between atoms: C_6  and  C_7 
REMARK    3  A    between atoms: C_11  and  N_12 
REMARK       I    between atoms: N_15  and  C_16 
REMARK    4  A    between atoms: C_16  and  C_17 
REMARK    5  A    between atoms: C_17  and  C_18 
ROOT
HETATM    1  N   UNL     1      40.526 -14.955   0.095  1.00  0.00    -0.363 N 
HETATM    2  C   UNL     1      39.848 -15.005   1.407  1.00  0.00     0.144 C 
HETATM    3  C   UNL     1      40.224 -16.288   2.162  1.00  0.00     0.145 C 
HETATM    4  N   UNL     1      41.674 -16.506   2.247  1.00  0.00    -0.349 N 
HETATM    5  C   UNL     1      42.121 -17.318   3.285  1.00  0.00     0.224 C 
HETATM    6  O   UNL     1      41.359 -17.718   4.171  1.00  0.00    -0.273 OA
HETATM    7  C   UNL     1      42.388 -16.350   0.971  1.00  0.00     0.145 C 
HETATM    8  C   UNL     1      41.991 -15.075   0.195  1.00  0.00     0.144 C 
ENDROOT
BRANCH   1   9
HETATM    9  C   UNL     1      39.898 -14.359  -0.961  1.00  0.00     0.122 A 
HETATM   10  N   UNL     1      40.545 -13.692  -1.970  1.00  0.00    -0.262 N 
HETATM   11  N   UNL     1      39.744 -13.245  -2.950  1.00  0.00    -0.173 NA
HETATM   12  H   UNL     1      41.536 -13.513  -2.057  1.00  0.00     0.191 HD
HETATM   13  C   UNL     1      38.512 -13.628  -2.576  1.00  0.00     0.090 A 
HETATM   14  C   UNL     1      38.569 -14.301  -1.324  1.00  0.00     0.084 A 
BRANCH  13  15
HETATM   15  C   UNL     1      37.334 -13.394  -3.416  1.00  0.00    -0.005 A 
HETATM   16  C   UNL     1      36.773 -14.441  -4.164  1.00  0.00     0.016 A 
HETATM   17  C   UNL     1      35.608 -14.249  -4.917  1.00  0.00     0.037 A 
HETATM   18  C   UNL     1      34.984 -13.002  -4.935  1.00  0.00     0.068 A 
HETATM   19  C   UNL     1      35.554 -11.946  -4.223  1.00  0.00     0.037 A 
HETATM   20  C   UNL     1      36.716 -12.138  -3.467  1.00  0.00     0.016 A 
BRANCH  18  21
HETATM   21  O   UNL     1      33.836 -12.688  -5.609  1.00  0.00    -0.356 OA
HETATM   22  C   UNL     1      33.957 -11.731  -6.654  1.00  0.00     0.210 C 
ENDBRANCH  18  21
ENDBRANCH  13  15
ENDBRANCH   1   9
BRANCH   5  23
HETATM   23  C   UNL     1      43.593 -17.696   3.338  1.00  0.00     0.141 C 
BRANCH  23  24
HETATM   24  C   UNL     1      43.886 -19.160   3.094  1.00  0.00    -0.048 A 
HETATM   25  C   UNL     1      44.427 -19.941   4.129  1.00  0.00     0.031 A 
HETATM   26  C   UNL     1      44.646 -21.307   3.943  1.00  0.00     0.034 A 
HETATM   27 CL   UNL     1      45.306 -22.245   5.227  1.00  0.00    -0.084 Cl
HETATM   28  C   UNL     1      44.325 -21.918   2.735  1.00  0.00     0.024 A 
HETATM   29  C   UNL     1      43.774 -21.157   1.704  1.00  0.00     0.002 A 
HETATM   30  C   UNL     1      43.549 -19.790   1.886  1.00  0.00     0.007 A 
ENDBRANCH  23  24
ENDBRANCH   5  23
TORSDOF 5
ENDMDL
MODEL 2
REMARK VINA RESULT:      -8.6      7.217     10.937
REMARK  5 active torsions:
REMARK  status: ('A' for Active; 'I' for Inactive)
REMARK    1  A    between atoms: O_2  and  C_3 
REMARK    2  A    between atoms: C_6  and  C_7 
REMARK    3  A    between atoms: C_11  and  N_12 
REMARK       I    between atoms: N_15  and  C_16 
REMARK    4  A    between atoms: C_16  and  C_17 
REMARK    5  A    between atoms: C_17  and  C_18 
ROOT
HETATM    1  N   UNL     1      40.798 -13.593   5.440  1.00  0.00    -0.363 N 
HETATM    2  C   UNL     1      39.405 -13.163   5.678  1.00  0.00     0.144 C 
HETATM    3  C   UNL     1      39.292 -12.396   7.002  1.00  0.00     0.145 C 
HETATM    4  N   UNL     1      40.267 -11.304   7.124  1.00  0.00    -0.349 N 
HETATM    5  C   UNL     1      39.944 -10.278   8.007  1.00  0.00     0.224 C 
HETATM    6  O   UNL     1      38.837 -10.213   8.551  1.00  0.00    -0.273 OA
HETATM    7  C   UNL     1      41.646 -11.681   6.784  1.00  0.00     0.145 C 
HETATM    8  C   UNL     1      41.760 -12.478   5.466  1.00  0.00     0.144 C 
ENDROOT
BRANCH   1   9
HETATM    9  C   UNL     1      41.035 -14.766   4.782  1.00  0.00     0.122 A 
HETATM   10  N   UNL     1      40.235 -15.271   3.789  1.00  0.00    -0.262 N 
HETATM   11  N   UNL     1      40.690 -16.400   3.223  1.00  0.00    -0.173 NA
HETATM   12  H   UNL     1      39.368 -14.889   3.439  1.00  0.00     0.191 HD
HETATM   13  C   UNL     1      41.838 -16.659   3.871  1.00  0.00     0.090 A 
HETATM   14  C   UNL     1      42.069 -15.674   4.870  1.00  0.00     0.084 A 
BRANCH  13  15
HETATM   15  C   UNL     1      42.701 -17.787   3.506  1.00  0.00    -0.005 A 
HETATM   16  C   UNL     1      43.497 -18.417   4.475  1.00  0.00     0.016 A 
HETATM   17  C   UNL     1      44.273 -19.539   4.156  1.00  0.00     0.037 A 
HETATM   18  C   UNL     1      44.267 -20.049   2.858  1.00  0.00     0.068 A 
HETATM   19  C   UNL     1      43.505 -19.407   1.880  1.00  0.00     0.037 A 
HETATM   20  C   UNL     1      42.726 -18.290   2.199  1.00  0.00     0.016 A 
BRANCH  18  21
HETATM   21  O   UNL     1      44.958 -21.144   2.422  1.00  0.00    -0.356 OA
HETATM   22  C   UNL     1      44.246 -22.054   1.593  1.00  0.00     0.210 C 
ENDBRANCH  18  21
ENDBRANCH  13  15
ENDBRANCH   1   9
BRANCH   5  23
HETATM   23  C   UNL     1      40.977  -9.197   8.283  1.00  0.00     0.141 C 
BRANCH  23  24
HETATM   24  C   UNL     1      41.684  -9.312   9.615  1.00  0.00    -0.048 A 
HETATM   25  C   UNL     1      42.830 -10.117   9.724  1.00  0.00     0.031 A 
HETATM   26  C   UNL     1      43.533 -10.187  10.928  1.00  0.00     0.034 A 
HETATM   27 CL   UNL     1      44.938 -11.176  11.038  1.00  0.00    -0.084 Cl
HETATM   28  C   UNL     1      43.114  -9.456  12.036  1.00  0.00     0.024 A 
HETATM   29  C   UNL     1      41.986  -8.642  11.937  1.00  0.00     0.002 A 
HETATM   30  C   UNL     1      41.281  -8.565  10.732  1.00  0.00     0.007 A 
ENDBRANCH  23  24
ENDBRANCH   5  23
TORSDOF 5
ENDMDL
MODEL 3
REMARK VINA RESULT:      -8.3      3.063      3.648
REMARK  5 active torsions:
REMARK  status: ('A' for Active; 'I' for Inactive)
REMARK    1  A    between atoms: O_2  and  C_3 
REMARK    2  A    between atoms: C_6  and  C_7 
REMARK    3  A    between atoms: C_11  and  N_12 
REMARK       I    between atoms: N_15  and  C_16 
REMARK    4  A    between atoms: C_16  and  C_17 
REMARK    5  A    between atoms: C_17  and  C_18 
ROOT
HETATM    1  N   UNL     1      41.640 -15.296   1.261  1.00  0.00    -0.363 N 
HETATM    2  C   UNL     1      40.843 -15.237   2.503  1.00  0.00     0.144 C 
HETATM    3  C   UNL     1      41.007 -16.531   3.313  1.00  0.00     0.145 C 
HETATM    4  N   UNL     1      42.410 -16.900   3.538  1.00  0.00    -0.349 N 
HETATM    5  C   UNL     1      42.669 -17.725   4.629  1.00  0.00     0.224 C 
HETATM    6  O   UNL     1      41.790 -18.016   5.447  1.00  0.00    -0.273 OA
HETATM    7  C   UNL     1      43.250 -16.857   2.333  1.00  0.00     0.145 C 
HETATM    8  C   UNL     1      43.067 -15.569   1.500  1.00  0.00     0.144 C 
ENDROOT
BRANCH   1   9
HETATM    9  C   UNL     1      41.180 -14.667   0.139  1.00  0.00     0.122 A 
HETATM   10  N   UNL     1      39.887 -14.740  -0.313  1.00  0.00    -0.262 N 
HETATM   11  N   UNL     1      39.628 -13.985  -1.393  1.00  0.00    -0.173 NA
HETATM   12  H   UNL     1      39.126 -15.279   0.073  1.00  0.00     0.191 HD
HETATM   13  C   UNL     1      40.799 -13.387  -1.671  1.00  0.00     0.090 A 
HETATM   14  C   UNL     1      41.796 -13.813  -0.751  1.00  0.00     0.084 A 
BRANCH  13  15
HETATM   15  C   UNL     1      40.936 -12.409  -2.755  1.00  0.00    -0.005 A 
HETATM   16  C   UNL     1      42.186 -12.171  -3.345  1.00  0.00     0.016 A 
HETATM   17  C   UNL     1      42.320 -11.290  -4.426  1.00  0.00     0.037 A 
HETATM   18  C   UNL     1      41.202 -10.630  -4.935  1.00  0.00     0.068 A 
HETATM   19  C   UNL     1      39.960 -10.835  -4.331  1.00  0.00     0.037 A 
HETATM   20  C   UNL     1      39.824 -11.718  -3.254  1.00  0.00     0.016 A 
BRANCH  18  21
HETATM   21  O   UNL     1      41.191  -9.766  -5.993  1.00  0.00    -0.356 OA
HETATM   22  C   UNL     1      40.244 -10.034  -7.021  1.00  0.00     0.210 C 
ENDBRANCH  18  21
ENDBRANCH  13  15
ENDBRANCH   1   9
BRANCH   5  23
HETATM   23  C   UNL     1      44.080 -18.257   4.827  1.00  0.00     0.141 C 
BRANCH  23  24
HETATM   24  C   UNL     1      44.253 -19.733   4.544  1.00  0.00    -0.048 A 
HETATM   25  C   UNL     1      44.177 -20.199   3.222  1.00  0.00     0.031 A 
HETATM   26  C   UNL     1      44.397 -21.547   2.934  1.00  0.00     0.034 A 
HETATM   27 CL   UNL     1      44.303 -22.096   1.305  1.00  0.00    -0.084 Cl
HETATM   28  C   UNL     1      44.701 -22.448   3.950  1.00  0.00     0.024 A 
HETATM   29  C   UNL     1      44.793 -21.995   5.266  1.00  0.00     0.002 A 
HETATM   30  C   UNL     1      44.579 -20.646   5.559  1.00  0.00     0.007 A 
ENDBRANCH  23  24
ENDBRANCH   5  23
TORSDOF 5
ENDMDL
MODEL 4
REMARK VINA RESULT:      -8.3      7.736     11.417
REMARK  5 active torsions:
REMARK  status: ('A' for Active; 'I' for Inactive)
REMARK    1  A    between atoms: O_2  and  C_3 
REMARK    2  A    between atoms: C_6  and  C_7 
REMARK    3  A    between atoms: C_11  and  N_12 
REMARK       I    between atoms: N_15  and  C_16 
REMARK    4  A    between atoms: C_16  and  C_17 
REMARK    5  A    between atoms: C_17  and  C_18 
ROOT
HETATM    1  N   UNL     1      43.736 -13.485   6.733  1.00  0.00    -0.363 N 
HETATM    2  C   UNL     1      44.679 -13.916   7.786  1.00  0.00     0.144 C 
HETATM    3  C   UNL     1      45.310 -12.700   8.479  1.00  0.00     0.145 C 
HETATM    4  N   UNL     1      44.320 -11.723   8.949  1.00  0.00    -0.349 N 
HETATM    5  C   UNL     1      44.720 -10.879   9.981  1.00  0.00     0.224 C 
HETATM    6  O   UNL     1      45.795 -11.035  10.568  1.00  0.00    -0.273 OA
HETATM    7  C   UNL     1      43.302 -11.362   7.951  1.00  0.00     0.145 C 
HETATM    8  C   UNL     1      42.685 -12.582   7.232  1.00  0.00     0.144 C 
ENDROOT
BRANCH   1   9
HETATM    9  C   UNL     1      43.591 -14.249   5.610  1.00  0.00     0.122 A 
HETATM   10  N   UNL     1      43.569 -13.750   4.333  1.00  0.00    -0.262 N 
HETATM   11  N   UNL     1      43.492 -14.680   3.369  1.00  0.00    -0.173 NA
HETATM   12  H   UNL     1      43.611 -12.782   4.046  1.00  0.00     0.191 HD
HETATM   13  C   UNL     1      43.460 -15.848   4.033  1.00  0.00     0.090 A 
HETATM   14  C   UNL     1      43.492 -15.613   5.436  1.00  0.00     0.084 A 
BRANCH  13  15
HETATM   15  C   UNL     1      43.446 -17.139   3.339  1.00  0.00    -0.005 A 
HETATM   16  C   UNL     1      43.464 -17.195   1.938  1.00  0.00     0.016 A 
HETATM   17  C   UNL     1      43.520 -18.421   1.263  1.00  0.00     0.037 A 
HETATM   18  C   UNL     1      43.558 -19.615   1.982  1.00  0.00     0.068 A 
HETATM   19  C   UNL     1      43.505 -19.570   3.376  1.00  0.00     0.037 A 
HETATM   20  C   UNL     1      43.453 -18.346   4.051  1.00  0.00     0.016 A 
BRANCH  18  21
HETATM   21  O   UNL     1      43.635 -20.872   1.449  1.00  0.00    -0.356 OA
HETATM   22  C   UNL     1      44.446 -21.808   2.148  1.00  0.00     0.210 C 
ENDBRANCH  18  21
ENDBRANCH  13  15
ENDBRANCH   1   9
BRANCH   5  23
HETATM   23  C   UNL     1      43.790  -9.754  10.409  1.00  0.00     0.141 C 
BRANCH  23  24
HETATM   24  C   UNL     1      43.039 -10.001  11.699  1.00  0.00    -0.048 A 
HETATM   25  C   UNL     1      41.931 -10.863  11.702  1.00  0.00     0.031 A 
HETATM   26  C   UNL     1      41.264 -11.152  12.894  1.00  0.00     0.034 A 
HETATM   27 CL   UNL     1      39.910 -12.216  12.875  1.00  0.00    -0.084 Cl
HETATM   28  C   UNL     1      41.690 -10.598  14.097  1.00  0.00     0.024 A 
HETATM   29  C   UNL     1      42.798  -9.752  14.109  1.00  0.00     0.002 A 
HETATM   30  C   UNL     1      43.473  -9.463  12.920  1.00  0.00     0.007 A 
ENDBRANCH  23  24
ENDBRANCH   5  23
TORSDOF 5
ENDMDL
MODEL 5
REMARK VINA RESULT:      -8.2      7.009     10.632
REMARK  5 active torsions:
REMARK  status: ('A' for Active; 'I' for Inactive)
REMARK    1  A    between atoms: O_2  and  C_3 
REMARK    2  A    between atoms: C_6  and  C_7 
REMARK    3  A    between atoms: C_11  and  N_12 
REMARK       I    between atoms: N_15  and  C_16 
REMARK    4  A    between atoms: C_16  and  C_17 
REMARK    5  A    between atoms: C_17  and  C_18 
ROOT
HETATM    1  N   UNL     1      42.011 -13.222   5.545  1.00  0.00    -0.363 N 
HETATM    2  C   UNL     1      40.820 -14.094   5.464  1.00  0.00     0.144 C 
HETATM    3  C   UNL     1      40.684 -14.695   4.059  1.00  0.00     0.145 C 
HETATM    4  N   UNL     1      41.913 -15.344   3.585  1.00  0.00    -0.349 N 
HETATM    5  C   UNL     1      41.764 -16.312   2.595  1.00  0.00     0.224 C 
HETATM    6  O   UNL     1      40.651 -16.707   2.236  1.00  0.00    -0.273 OA
HETATM    7  C   UNL     1      43.131 -14.538   3.758  1.00  0.00     0.145 C 
HETATM    8  C   UNL     1      43.257 -13.907   5.162  1.00  0.00     0.144 C 
ENDROOT
BRANCH   1   9
HETATM    9  C   UNL     1      41.983 -12.124   6.357  1.00  0.00     0.122 A 
HETATM   10  N   UNL     1      41.383 -10.935   6.029  1.00  0.00    -0.262 N 
HETATM   11  N   UNL     1      41.407 -10.009   7.001  1.00  0.00    -0.173 NA
HETATM   12  H   UNL     1      40.928 -10.690   5.161  1.00  0.00     0.191 HD
HETATM   13  C   UNL     1      42.053 -10.606   8.016  1.00  0.00     0.090 A 
HETATM   14  C   UNL     1      42.452 -11.918   7.637  1.00  0.00     0.084 A 
BRANCH  13  15
HETATM   15  C   UNL     1      42.237  -9.953   9.315  1.00  0.00    -0.005 A 
HETATM   16  C   UNL     1      41.355  -8.947   9.737  1.00  0.00     0.016 A 
HETATM   17  C   UNL     1      41.477  -8.362  11.005  1.00  0.00     0.037 A 
HETATM   18  C   UNL     1      42.488  -8.775  11.872  1.00  0.00     0.068 A 
HETATM   19  C   UNL     1      43.391  -9.750  11.446  1.00  0.00     0.037 A 
HETATM   20  C   UNL     1      43.267 -10.338  10.183  1.00  0.00     0.016 A 
BRANCH  18  21
HETATM   21  O   UNL     1      42.704  -8.303  13.136  1.00  0.00    -0.356 OA
HETATM   22  C   UNL     1      43.175  -9.245  14.092  1.00  0.00     0.210 C 
ENDBRANCH  18  21
ENDBRANCH  13  15
ENDBRANCH   1   9
BRANCH   5  23
HETATM   23  C   UNL     1      43.011 -16.912   1.964  1.00  0.00     0.141 C 
BRANCH  23  24
HETATM   24  C   UNL     1      43.505 -18.187   2.611  1.00  0.00    -0.048 A 
HETATM   25  C   UNL     1      43.553 -19.372   1.860  1.00  0.00     0.031 A 
HETATM   26  C   UNL     1      44.064 -20.544   2.420  1.00  0.00     0.034 A 
HETATM   27 CL   UNL     1      44.118 -21.985   1.478  1.00  0.00    -0.084 Cl
HETATM   28  C   UNL     1      44.541 -20.555   3.727  1.00  0.00     0.024 A 
HETATM   29  C   UNL     1      44.511 -19.381   4.480  1.00  0.00     0.002 A 
HETATM   30  C   UNL     1      44.005 -18.204   3.922  1.00  0.00     0.007 A 
ENDBRANCH  23  24
ENDBRANCH   5  23
TORSDOF 5
ENDMDL
MODEL 6
REMARK VINA RESULT:      -8.1      5.818      8.617
REMARK  5 active torsions:
REMARK  status: ('A' for Active; 'I' for Inactive)
REMARK    1  A    between atoms: O_2  and  C_3 
REMARK    2  A    between atoms: C_6  and  C_7 
REMARK    3  A    between atoms: C_11  and  N_12 
REMARK       I    between atoms: N_15  and  C_16 
REMARK    4  A    between atoms: C_16  and  C_17 
REMARK    5  A    between atoms: C_17  and  C_18 
ROOT
HETATM    1  N   UNL     1      41.548 -13.890   4.219  1.00  0.00    -0.363 N 
HETATM    2  C   UNL     1      40.429 -14.838   4.038  1.00  0.00     0.144 C 
HETATM    3  C   UNL     1      40.556 -15.574   2.697  1.00  0.00     0.145 C 
HETATM    4  N   UNL     1      41.875 -16.185   2.494  1.00  0.00    -0.349 N 
HETATM    5  C   UNL     1      41.938 -17.247   1.596  1.00  0.00     0.224 C 
HETATM    6  O   UNL     1      40.919 -17.744   1.105  1.00  0.00    -0.273 OA
HETATM    7  C   UNL     1      43.008 -15.292   2.777  1.00  0.00     0.145 C 
HETATM    8  C   UNL     1      42.871 -14.528   4.112  1.00  0.00     0.144 C 
ENDROOT
BRANCH   1   9
HETATM    9  C   UNL     1      41.335 -12.725   4.901  1.00  0.00     0.122 A 
HETATM   10  N   UNL     1      41.728 -11.488   4.459  1.00  0.00    -0.262 N 
HETATM   11  N   UNL     1      41.355 -10.467   5.246  1.00  0.00    -0.173 NA
HETATM   12  H   UNL     1      42.248 -11.266   3.621  1.00  0.00     0.191 HD
HETATM   13  C   UNL     1      40.687 -11.051   6.256  1.00  0.00     0.090 A 
HETATM   14  C   UNL     1      40.681 -12.463   6.086  1.00  0.00     0.084 A 
BRANCH  13  15
HETATM   15  C   UNL     1      40.042 -10.272   7.317  1.00  0.00    -0.005 A 
HETATM   16  C   UNL     1      39.453  -9.031   7.031  1.00  0.00     0.016 A 
HETATM   17  C   UNL     1      38.773  -8.308   8.020  1.00  0.00     0.037 A 
HETATM   18  C   UNL     1      38.673  -8.816   9.315  1.00  0.00     0.068 A 
HETATM   19  C   UNL     1      39.286 -10.033   9.616  1.00  0.00     0.037 A 
HETATM   20  C   UNL     1      39.961 -10.758   8.628  1.00  0.00     0.016 A 
BRANCH  18  21
HETATM   21  O   UNL     1      38.023  -8.224  10.362  1.00  0.00    -0.356 OA
HETATM   22  C   UNL     1      37.794  -9.038  11.506  1.00  0.00     0.210 C 
ENDBRANCH  18  21
ENDBRANCH  13  15
ENDBRANCH   1   9
BRANCH   5  23
HETATM   23  C   UNL     1      43.298 -17.824   1.237  1.00  0.00     0.141 C 
BRANCH  23  24
HETATM   24  C   UNL     1      43.772 -18.949   2.129  1.00  0.00    -0.048 A 
HETATM   25  C   UNL     1      44.021 -18.699   3.488  1.00  0.00     0.031 A 
HETATM   26  C   UNL     1      44.398 -19.738   4.341  1.00  0.00     0.034 A 
HETATM   27 CL   UNL     1      44.693 -19.409   6.005  1.00  0.00    -0.084 Cl
HETATM   28  C   UNL     1      44.526 -21.038   3.861  1.00  0.00     0.024 A 
HETATM   29  C   UNL     1      44.268 -21.302   2.516  1.00  0.00     0.002 A 
HETATM   30  C   UNL     1      43.886 -20.267   1.659  1.00  0.00     0.007 A 
ENDBRANCH  23  24
ENDBRANCH   5  23
TORSDOF 5
ENDMDL
MODEL 7
REMARK VINA RESULT:      -8.0      6.634      9.703
REMARK  5 active torsions:
REMARK  status: ('A' for Active; 'I' for Inactive)
REMARK    1  A    between atoms: O_2  and  C_3 
REMARK    2  A    between atoms: C_6  and  C_7 
REMARK    3  A    between atoms: C_11  and  N_12 
REMARK       I    between atoms: N_15  and  C_16 
REMARK    4  A    between atoms: C_16  and  C_17 
REMARK    5  A    between atoms: C_17  and  C_18 
ROOT
HETATM    1  N   UNL     1      40.893 -13.119   4.784  1.00  0.00    -0.363 N 
HETATM    2  C   UNL     1      41.879 -12.794   3.732  1.00  0.00     0.144 C 
HETATM    3  C   UNL     1      42.846 -13.966   3.515  1.00  0.00     0.145 C 
HETATM    4  N   UNL     1      42.163 -15.247   3.296  1.00  0.00    -0.349 N 
HETATM    5  C   UNL     1      42.883 -16.229   2.621  1.00  0.00     0.224 C 
HETATM    6  O   UNL     1      43.981 -15.991   2.108  1.00  0.00    -0.273 OA
HETATM    7  C   UNL     1      41.099 -15.542   4.266  1.00  0.00     0.145 C 
HETATM    8  C   UNL     1      40.140 -14.355   4.509  1.00  0.00     0.144 C 
ENDROOT
BRANCH   1   9
HETATM    9  C   UNL     1      40.422 -12.124   5.592  1.00  0.00     0.122 A 
HETATM   10  N   UNL     1      39.363 -11.310   5.279  1.00  0.00    -0.262 N 
HETATM   11  N   UNL     1      39.016 -10.446   6.246  1.00  0.00    -0.173 NA
HETATM   12  H   UNL     1      38.823 -11.298   4.425  1.00  0.00     0.191 HD
HETATM   13  C   UNL     1      39.883 -10.693   7.242  1.00  0.00     0.090 A 
HETATM   14  C   UNL     1      40.793 -11.716   6.855  1.00  0.00     0.084 A 
BRANCH  13  15
HETATM   15  C   UNL     1      39.806 -10.001   8.532  1.00  0.00    -0.005 A 
HETATM   16  C   UNL     1      38.585  -9.905   9.216  1.00  0.00     0.016 A 
HETATM   17  C   UNL     1      38.509  -9.308  10.482  1.00  0.00     0.037 A 
HETATM   18  C   UNL     1      39.658  -8.795  11.083  1.00  0.00     0.068 A 
HETATM   19  C   UNL     1      40.871  -8.855  10.394  1.00  0.00     0.037 A 
HETATM   20  C   UNL     1      40.948  -9.456   9.133  1.00  0.00     0.016 A 
BRANCH  18  21
HETATM   21  O   UNL     1      39.725  -8.209  12.316  1.00  0.00    -0.356 OA
HETATM   22  C   UNL     1      40.602  -8.814  13.259  1.00  0.00     0.210 C 
ENDBRANCH  18  21
ENDBRANCH  13  15
ENDBRANCH   1   9
BRANCH   5  23
HETATM   23  C   UNL     1      42.282 -17.620   2.492  1.00  0.00     0.141 C 
BRANCH  23  24
HETATM   24  C   UNL     1      43.140 -18.740   3.039  1.00  0.00    -0.048 A 
HETATM   25  C   UNL     1      43.443 -19.842   2.223  1.00  0.00     0.031 A 
HETATM   26  C   UNL     1      44.285 -20.855   2.687  1.00  0.00     0.034 A 
HETATM   27 CL   UNL     1      44.645 -22.195   1.669  1.00  0.00    -0.084 Cl
HETATM   28  C   UNL     1      44.843 -20.785   3.961  1.00  0.00     0.024 A 
HETATM   29  C   UNL     1      44.561 -19.688   4.774  1.00  0.00     0.002 A 
HETATM   30  C   UNL     1      43.724 -18.669   4.313  1.00  0.00     0.007 A 
ENDBRANCH  23  24
ENDBRANCH   5  23
TORSDOF 5
ENDMDL
MODEL 8
REMARK VINA RESULT:      -7.8      7.359     11.461
REMARK  5 active torsions:
REMARK  status: ('A' for Active; 'I' for Inactive)
REMARK    1  A    between atoms: O_2  and  C_3 
REMARK    2  A    between atoms: C_6  and  C_7 
REMARK    3  A    between atoms: C_11  and  N_12 
REMARK       I    between atoms: N_15  and  C_16 
REMARK    4  A    between atoms: C_16  and  C_17 
REMARK    5  A    between atoms: C_17  and  C_18 
ROOT
HETATM    1  N   UNL     1      40.872 -13.564   5.572  1.00  0.00    -0.363 N 
HETATM    2  C   UNL     1      39.775 -12.988   4.767  1.00  0.00     0.144 C 
HETATM    3  C   UNL     1      39.040 -11.897   5.556  1.00  0.00     0.145 C 
HETATM    4  N   UNL     1      39.940 -10.884   6.121  1.00  0.00    -0.349 N 
HETATM    5  C   UNL     1      39.380  -9.643   6.407  1.00  0.00     0.224 C 
HETATM    6  O   UNL     1      38.225  -9.359   6.072  1.00  0.00    -0.273 OA
HETATM    7  C   UNL     1      41.103 -11.434   6.833  1.00  0.00     0.145 C 
HETATM    8  C   UNL     1      41.829 -12.554   6.054  1.00  0.00     0.144 C 
ENDROOT
BRANCH   1   9
HETATM    9  C   UNL     1      41.196 -14.883   5.418  1.00  0.00     0.122 A 
HETATM   10  N   UNL     1      40.427 -15.925   5.869  1.00  0.00    -0.262 N 
HETATM   11  N   UNL     1      40.890 -17.143   5.548  1.00  0.00    -0.173 NA
HETATM   12  H   UNL     1      39.566 -15.876   6.396  1.00  0.00     0.191 HD
HETATM   13  C   UNL     1      42.017 -16.900   4.857  1.00  0.00     0.090 A 
HETATM   14  C   UNL     1      42.252 -15.500   4.782  1.00  0.00     0.084 A 
BRANCH  13  15
HETATM   15  C   UNL     1      42.809 -17.977   4.255  1.00  0.00    -0.005 A 
HETATM   16  C   UNL     1      43.697 -18.731   5.036  1.00  0.00     0.016 A 
HETATM   17  C   UNL     1      44.409 -19.807   4.489  1.00  0.00     0.037 A 
HETATM   18  C   UNL     1      44.243 -20.145   3.147  1.00  0.00     0.068 A 
HETATM   19  C   UNL     1      43.388 -19.378   2.353  1.00  0.00     0.037 A 
HETATM   20  C   UNL     1      42.674 -18.307   2.900  1.00  0.00     0.016 A 
BRANCH  18  21
HETATM   21  O   UNL     1      44.858 -21.179   2.497  1.00  0.00    -0.356 OA
HETATM   22  C   UNL     1      44.051 -21.934   1.601  1.00  0.00     0.210 C 
ENDBRANCH  18  21
ENDBRANCH  13  15
ENDBRANCH   1   9
BRANCH   5  23
HETATM   23  C   UNL     1      40.227  -8.604   7.126  1.00  0.00     0.141 C 
BRANCH  23  24
HETATM   24  C   UNL     1      40.215  -8.703   8.635  1.00  0.00    -0.048 A 
HETATM   25  C   UNL     1      38.990  -8.821   9.313  1.00  0.00     0.031 A 
HETATM   26  C   UNL     1      38.962  -8.976  10.700  1.00  0.00     0.034 A 
HETATM   27 CL   UNL     1      37.449  -9.123  11.509  1.00  0.00    -0.084 Cl
HETATM   28  C   UNL     1      40.145  -9.025  11.431  1.00  0.00     0.024 A 
HETATM   29  C   UNL     1      41.368  -8.924  10.769  1.00  0.00     0.002 A 
HETATM   30  C   UNL     1      41.402  -8.773   9.380  1.00  0.00     0.007 A 
ENDBRANCH  23  24
ENDBRANCH   5  23
TORSDOF 5
ENDMDL
MODEL 9
REMARK VINA RESULT:      -7.8      2.989      3.782
REMARK  5 active torsions:
REMARK  status: ('A' for Active; 'I' for Inactive)
REMARK    1  A    between atoms: O_2  and  C_3 
REMARK    2  A    between atoms: C_6  and  C_7 
REMARK    3  A    between atoms: C_11  and  N_12 
REMARK       I    between atoms: N_15  and  C_16 
REMARK    4  A    between atoms: C_16  and  C_17 
REMARK    5  A    between atoms: C_17  and  C_18 
ROOT
HETATM    1  N   UNL     1      40.945 -14.934   3.826  1.00  0.00    -0.363 N 
HETATM    2  C   UNL     1      40.871 -15.184   5.280  1.00  0.00     0.144 C 
HETATM    3  C   UNL     1      41.300 -16.622   5.605  1.00  0.00     0.145 C 
HETATM    4  N   UNL     1      42.596 -16.986   5.018  1.00  0.00    -0.349 N 
HETATM    5  C   UNL     1      43.286 -18.027   5.631  1.00  0.00     0.224 C 
HETATM    6  O   UNL     1      42.902 -18.525   6.694  1.00  0.00    -0.273 OA
HETATM    7  C   UNL     1      42.735 -16.644   3.595  1.00  0.00     0.145 C 
HETATM    8  C   UNL     1      42.277 -15.207   3.259  1.00  0.00     0.144 C 
ENDROOT
BRANCH   1   9
HETATM    9  C   UNL     1      40.048 -14.082   3.246  1.00  0.00     0.122 A 
HETATM   10  N   UNL     1      39.552 -12.954   3.848  1.00  0.00    -0.262 N 
HETATM   11  N   UNL     1      38.740 -12.217   3.074  1.00  0.00    -0.173 NA
HETATM   12  H   UNL     1      39.735 -12.621   4.784  1.00  0.00     0.191 HD
HETATM   13  C   UNL     1      38.692 -12.886   1.909  1.00  0.00     0.090 A 
HETATM   14  C   UNL     1      39.475 -14.070   1.992  1.00  0.00     0.084 A 
BRANCH  13  15
HETATM   15  C   UNL     1      37.956 -12.376   0.748  1.00  0.00    -0.005 A 
HETATM   16  C   UNL     1      38.388 -12.669  -0.554  1.00  0.00     0.016 A 
HETATM   17  C   UNL     1      37.657 -12.247  -1.672  1.00  0.00     0.037 A 
HETATM   18  C   UNL     1      36.478 -11.521  -1.504  1.00  0.00     0.068 A 
HETATM   19  C   UNL     1      36.060 -11.194  -0.213  1.00  0.00     0.037 A 
HETATM   20  C   UNL     1      36.787 -11.620   0.904  1.00  0.00     0.016 A 
BRANCH  18  21
HETATM   21  O   UNL     1      35.664 -11.069  -2.505  1.00  0.00    -0.356 OA
HETATM   22  C   UNL     1      34.329 -10.743  -2.136  1.00  0.00     0.210 C 
ENDBRANCH  18  21
ENDBRANCH  13  15
ENDBRANCH   1   9
BRANCH   5  23
HETATM   23  C   UNL     1      44.561 -18.543   4.981  1.00  0.00     0.141 C 
BRANCH  23  24
HETATM   24  C   UNL     1      44.518 -19.993   4.551  1.00  0.00    -0.048 A 
HETATM   25  C   UNL     1      44.318 -20.309   3.197  1.00  0.00     0.031 A 
HETATM   26  C   UNL     1      44.338 -21.638   2.771  1.00  0.00     0.034 A 
HETATM   27 CL   UNL     1      44.095 -22.001   1.106  1.00  0.00    -0.084 Cl
HETATM   28  C   UNL     1      44.564 -22.669   3.678  1.00  0.00     0.024 A 
HETATM   29  C   UNL     1      44.778 -22.368   5.022  1.00  0.00     0.002 A 
HETATM   30  C   UNL     1      44.764 -21.039   5.454  1.00  0.00     0.007 A 
ENDBRANCH  23  24
ENDBRANCH   5  23
TORSDOF 5
ENDMDL
MODEL 10
REMARK VINA RESULT:      -7.8      8.567     11.820
REMARK  5 active torsions:
REMARK  status: ('A' for Active; 'I' for Inactive)
REMARK    1  A    between atoms: O_2  and  C_3 
REMARK    2  A    between atoms: C_6  and  C_7 
REMARK    3  A    between atoms: C_11  and  N_12 
REMARK       I    between atoms: N_15  and  C_16 
REMARK    4  A    between atoms: C_16  and  C_17 
REMARK    5  A    between atoms: C_17  and  C_18 
ROOT
HETATM    1  N   UNL     1      41.254 -11.703   6.557  1.00  0.00    -0.363 N 
HETATM    2  C   UNL     1      39.828 -11.695   6.947  1.00  0.00     0.144 C 
HETATM    3  C   UNL     1      39.679 -11.399   8.446  1.00  0.00     0.145 C 
HETATM    4  N   UNL     1      40.406 -10.197   8.874  1.00  0.00    -0.349 N 
HETATM    5  C   UNL     1      39.955  -9.578  10.037  1.00  0.00     0.224 C 
HETATM    6  O   UNL     1      38.916  -9.934  10.600  1.00  0.00    -0.273 OA
HETATM    7  C   UNL     1      41.797 -10.128   8.403  1.00  0.00     0.145 C 
HETATM    8  C   UNL     1      41.955 -10.454   6.901  1.00  0.00     0.144 C 
ENDROOT
BRANCH   1   9
HETATM    9  C   UNL     1      41.672 -12.544   5.565  1.00  0.00     0.122 A 
HETATM   10  N   UNL     1      42.077 -12.132   4.322  1.00  0.00    -0.262 N 
HETATM   11  N   UNL     1      42.521 -13.115   3.522  1.00  0.00    -0.173 NA
HETATM   12  H   UNL     1      42.086 -11.191   3.954  1.00  0.00     0.191 HD
HETATM   13  C   UNL     1      42.402 -14.228   4.265  1.00  0.00     0.090 A 
HETATM   14  C   UNL     1      41.849 -13.911   5.536  1.00  0.00     0.084 A 
BRANCH  13  15
HETATM   15  C   UNL     1      42.849 -15.539   3.782  1.00  0.00    -0.005 A 
HETATM   16  C   UNL     1      43.290 -15.697   2.460  1.00  0.00     0.016 A 
HETATM   17  C   UNL     1      43.785 -16.927   2.005  1.00  0.00     0.037 A 
HETATM   18  C   UNL     1      43.845 -18.020   2.868  1.00  0.00     0.068 A 
HETATM   19  C   UNL     1      43.375 -17.880   4.175  1.00  0.00     0.037 A 
HETATM   20  C   UNL     1      42.886 -16.652   4.632  1.00  0.00     0.016 A 
BRANCH  18  21
HETATM   21  O   UNL     1      44.322 -19.263   2.559  1.00  0.00    -0.356 OA
HETATM   22  C   UNL     1      44.558 -20.141   3.652  1.00  0.00     0.210 C 
ENDBRANCH  18  21
ENDBRANCH  13  15
ENDBRANCH   1   9
BRANCH   5  23
HETATM   23  C   UNL     1      40.756  -8.418  10.607  1.00  0.00     0.141 C 
BRANCH  23  24
HETATM   24  C   UNL     1      41.546  -8.739  11.856  1.00  0.00    -0.048 A 
HETATM   25  C   UNL     1      40.964  -8.528  13.117  1.00  0.00     0.031 A 
HETATM   26  C   UNL     1      41.652  -8.877  14.280  1.00  0.00     0.034 A 
HETATM   27 CL   UNL     1      40.918  -8.614  15.815  1.00  0.00    -0.084 Cl
HETATM   28  C   UNL     1      42.921  -9.445  14.210  1.00  0.00     0.024 A 
HETATM   29  C   UNL     1      43.504  -9.672  12.963  1.00  0.00     0.002 A 
HETATM   30  C   UNL     1      42.817  -9.330  11.796  1.00  0.00     0.007 A 
ENDBRANCH  23  24
ENDBRANCH   5  23
TORSDOF 5
ENDMDL
