MODEL 1
REMARK VINA RESULT:      -9.0      0.000      0.000
REMARK  7 active torsions:
REMARK  status: ('A' for Active; 'I' for Inactive)
REMARK    1  A    between atoms: N_3  and  N_4 
REMARK       I    between atoms: N_4  and  C_5 
REMARK    2  A    between atoms: C_5  and  C_6 
REMARK    3  A    between atoms: C_9  and  O_10 
REMARK    4  A    between atoms: O_10  and  C_11 
REMARK    5  A    between atoms: C_11  and  C_12 
REMARK       I    between atoms: C_12  and  N_13 
REMARK    6  A    between atoms: N_13  and  C_14 
REMARK    7  A    between atoms: C_17  and  O_18 
ROOT
HETATM    1  C   UNL     1      43.423 -16.561   5.377  1.00  0.00     0.033 A 
HETATM    2  C   UNL     1      43.233 -15.349   4.702  1.00  0.00     0.020 A 
HETATM    3  C   UNL     1      43.515 -14.143   5.349  1.00  0.00     0.038 A 
HETATM    4  C   UNL     1      43.969 -14.136   6.670  1.00  0.00     0.069 A 
HETATM    5  C   UNL     1      44.183 -15.343   7.336  1.00  0.00     0.038 A 
HETATM    6  C   UNL     1      43.914 -16.553   6.688  1.00  0.00     0.020 A 
ENDROOT
BRANCH   4   7
HETATM    7  O   UNL     1      44.247 -12.904   7.195  1.00  0.00    -0.342 OA
BRANCH   7   8
HETATM    8  C   UNL     1      44.575 -12.885   8.582  1.00  0.00     0.278 C 
BRANCH   8   9
HETATM    9  C   UNL     1      43.906 -11.766   9.389  1.00  0.00     0.246 C 
HETATM   10  N   UNL     1      43.668 -12.116  10.705  1.00  0.00    -0.325 N 
HETATM   11  H   UNL     1      43.934 -13.064  10.954  1.00  0.00     0.169 HD
HETATM   12  O   UNL     1      43.642 -10.692   8.855  1.00  0.00    -0.271 OA
BRANCH  10  13
HETATM   13  C   UNL     1      43.048 -11.345  11.706  1.00  0.00     0.035 A 
HETATM   14  C   UNL     1      41.712 -11.476  12.076  1.00  0.00     0.032 A 
HETATM   15  C   UNL     1      41.179 -10.681  13.097  1.00  0.00     0.039 A 
HETATM   16  C   UNL     1      41.974  -9.751  13.768  1.00  0.00     0.068 A 
HETATM   17  C   UNL     1      43.306  -9.602  13.390  1.00  0.00     0.039 A 
HETATM   18  C   UNL     1      43.838 -10.394  12.364  1.00  0.00     0.032 A 
BRANCH  16  19
HETATM   19  O   UNL     1      41.333  -9.052  14.752  1.00  0.00    -0.356 OA
HETATM   20  C   UNL     1      41.730  -9.325  16.090  1.00  0.00     0.210 C 
ENDBRANCH  16  19
ENDBRANCH  10  13
ENDBRANCH   8   9
ENDBRANCH   7   8
ENDBRANCH   4   7
BRANCH   1  21
HETATM   21  C   UNL     1      43.158 -17.871   4.722  1.00  0.00     0.270 C 
HETATM   22  N   UNL     1      44.236 -18.437   4.086  1.00  0.00    -0.259 N 
HETATM   23  H   UNL     1      45.099 -17.949   3.906  1.00  0.00     0.191 HD
HETATM   24  O   UNL     1      42.028 -18.343   4.762  1.00  0.00    -0.266 OA
BRANCH  22  25
HETATM   25  N   UNL     1      44.078 -19.586   3.402  1.00  0.00    -0.263 N 
HETATM   26  C   UNL     1      44.446 -20.806   3.894  1.00  0.00     0.030 A 
HETATM   27  C   UNL     1      44.868 -21.031   5.300  1.00  0.00     0.070 C 
HETATM   28  C   UNL     1      44.317 -21.704   2.849  1.00  0.00     0.028 A 
HETATM   29  C   UNL     1      43.894 -20.979   1.706  1.00  0.00     0.028 A 
HETATM   30  C   UNL     1      43.773 -19.650   2.071  1.00  0.00     0.030 A 
HETATM   31  C   UNL     1      43.358 -18.474   1.264  1.00  0.00     0.070 C 
ENDBRANCH  22  25
ENDBRANCH   1  21
TORSDOF 7
ENDMDL
MODEL 2
REMARK VINA RESULT:      -8.3      1.973      2.281
REMARK  7 active torsions:
REMARK  status: ('A' for Active; 'I' for Inactive)
REMARK    1  A    between atoms: N_3  and  N_4 
REMARK       I    between atoms: N_4  and  C_5 
REMARK    2  A    between atoms: C_5  and  C_6 
REMARK    3  A    between atoms: C_9  and  O_10 
REMARK    4  A    between atoms: O_10  and  C_11 
REMARK    5  A    between atoms: C_11  and  C_12 
REMARK       I    between atoms: C_12  and  N_13 
REMARK    6  A    between atoms: N_13  and  C_14 
REMARK    7  A    between atoms: C_17  and  O_18 
ROOT
HETATM    1  C   UNL     1      42.101 -15.583   4.760  1.00  0.00     0.033 A 
HETATM    2  C   UNL     1      43.061 -14.619   4.429  1.00  0.00     0.020 A 
HETATM    3  C   UNL     1      42.814 -13.271   4.702  1.00  0.00     0.038 A 
HETATM    4  C   UNL     1      41.609 -12.877   5.288  1.00  0.00     0.069 A 
HETATM    5  C   UNL     1      40.662 -13.838   5.644  1.00  0.00     0.038 A 
HETATM    6  C   UNL     1      40.911 -15.189   5.383  1.00  0.00     0.020 A 
ENDROOT
BRANCH   4   7
HETATM    7  O   UNL     1      41.485 -11.539   5.544  1.00  0.00    -0.342 OA
BRANCH   7   8
HETATM    8  C   UNL     1      40.713 -11.200   6.694  1.00  0.00     0.278 C 
BRANCH   8   9
HETATM    9  C   UNL     1      41.475 -10.434   7.781  1.00  0.00     0.246 C 
HETATM   10  N   UNL     1      41.368 -11.017   9.031  1.00  0.00    -0.325 N 
HETATM   11  H   UNL     1      40.782 -11.847   9.070  1.00  0.00     0.169 HD
HETATM   12  O   UNL     1      42.100  -9.416   7.498  1.00  0.00    -0.271 OA
BRANCH  10  13
HETATM   13  C   UNL     1      41.913 -10.564  10.246  1.00  0.00     0.035 A 
HETATM   14  C   UNL     1      41.395  -9.504  10.986  1.00  0.00     0.032 A 
HETATM   15  C   UNL     1      41.989  -9.130  12.197  1.00  0.00     0.039 A 
HETATM   16  C   UNL     1      43.101  -9.813  12.690  1.00  0.00     0.068 A 
HETATM   17  C   UNL     1      43.634 -10.863  11.946  1.00  0.00     0.039 A 
HETATM   18  C   UNL     1      43.044 -11.234  10.730  1.00  0.00     0.032 A 
BRANCH  16  19
HETATM   19  O   UNL     1      43.571  -9.355  13.889  1.00  0.00    -0.356 OA
HETATM   20  C   UNL     1      42.626  -9.242  14.944  1.00  0.00     0.210 C 
ENDBRANCH  16  19
ENDBRANCH  10  13
ENDBRANCH   8   9
ENDBRANCH   7   8
ENDBRANCH   4   7
BRANCH   1  21
HETATM   21  C   UNL     1      42.328 -17.033   4.510  1.00  0.00     0.270 C 
HETATM   22  N   UNL     1      43.617 -17.376   4.178  1.00  0.00    -0.259 N 
HETATM   23  H   UNL     1      44.331 -16.706   3.941  1.00  0.00     0.191 HD
HETATM   24  O   UNL     1      41.383 -17.808   4.583  1.00  0.00    -0.266 OA
BRANCH  22  25
HETATM   25  N   UNL     1      43.906 -18.652   3.861  1.00  0.00    -0.263 N 
HETATM   26  C   UNL     1      44.383 -19.558   4.765  1.00  0.00     0.030 A 
HETATM   27  C   UNL     1      44.445 -19.305   6.227  1.00  0.00     0.070 C 
HETATM   28  C   UNL     1      44.743 -20.681   4.041  1.00  0.00     0.028 A 
HETATM   29  C   UNL     1      44.499 -20.408   2.670  1.00  0.00     0.028 A 
HETATM   30  C   UNL     1      43.996 -19.122   2.580  1.00  0.00     0.030 A 
HETATM   31  C   UNL     1      43.570 -18.347   1.387  1.00  0.00     0.070 C 
ENDBRANCH  22  25
ENDBRANCH   1  21
TORSDOF 7
ENDMDL
MODEL 3
REMARK VINA RESULT:      -8.3      1.854      2.573
REMARK  7 active torsions:
REMARK  status: ('A' for Active; 'I' for Inactive)
REMARK    1  A    between atoms: N_3  and  N_4 
REMARK       I    between atoms: N_4  and  C_5 
REMARK    2  A    between atoms: C_5  and  C_6 
REMARK    3  A    between atoms: C_9  and  O_10 
REMARK    4  A    between atoms: O_10  and  C_11 
REMARK    5  A    between atoms: C_11  and  C_12 
REMARK       I    between atoms: C_12  and  N_13 
REMARK    6  A    between atoms: N_13  and  C_14 
REMARK    7  A    between atoms: C_17  and  O_18 
ROOT
HETATM    1  C   UNL     1      41.875 -15.550   5.095  1.00  0.00     0.033 A 
HETATM    2  C   UNL     1      42.828 -14.563   5.373  1.00  0.00     0.020 A 
HETATM    3  C   UNL     1      42.414 -13.305   5.821  1.00  0.00     0.038 A 
HETATM    4  C   UNL     1      41.055 -13.020   5.976  1.00  0.00     0.069 A 
HETATM    5  C   UNL     1      40.105 -14.010   5.724  1.00  0.00     0.038 A 
HETATM    6  C   UNL     1      40.515 -15.274   5.287  1.00  0.00     0.020 A 
ENDROOT
BRANCH   4   7
HETATM    7  O   UNL     1      40.763 -11.772   6.452  1.00  0.00    -0.342 OA
BRANCH   7   8
HETATM    8  C   UNL     1      41.837 -11.091   7.097  1.00  0.00     0.278 C 
BRANCH   8   9
HETATM    9  C   UNL     1      41.525 -10.582   8.508  1.00  0.00     0.246 C 
HETATM   10  N   UNL     1      42.383 -11.087   9.468  1.00  0.00    -0.325 N 
HETATM   11  H   UNL     1      43.078 -11.743   9.122  1.00  0.00     0.169 HD
HETATM   12  O   UNL     1      40.594  -9.803   8.693  1.00  0.00    -0.271 OA
BRANCH  10  13
HETATM   13  C   UNL     1      42.363 -10.852  10.855  1.00  0.00     0.035 A 
HETATM   14  C   UNL     1      41.310 -11.214  11.692  1.00  0.00     0.032 A 
HETATM   15  C   UNL     1      41.379 -10.960  13.067  1.00  0.00     0.039 A 
HETATM   16  C   UNL     1      42.503 -10.351  13.626  1.00  0.00     0.068 A 
HETATM   17  C   UNL     1      43.552  -9.971  12.792  1.00  0.00     0.039 A 
HETATM   18  C   UNL     1      43.480 -10.219  11.414  1.00  0.00     0.032 A 
BRANCH  16  19
HETATM   19  O   UNL     1      42.447 -10.176  14.980  1.00  0.00    -0.356 OA
HETATM   20  C   UNL     1      41.357  -9.413  15.481  1.00  0.00     0.210 C 
ENDBRANCH  16  19
ENDBRANCH  10  13
ENDBRANCH   8   9
ENDBRANCH   7   8
ENDBRANCH   4   7
BRANCH   1  21
HETATM   21  C   UNL     1      42.268 -16.911   4.638  1.00  0.00     0.270 C 
HETATM   22  N   UNL     1      43.578 -17.043   4.246  1.00  0.00    -0.259 N 
HETATM   23  H   UNL     1      44.199 -16.263   4.099  1.00  0.00     0.191 HD
HETATM   24  O   UNL     1      41.425 -17.800   4.611  1.00  0.00    -0.266 OA
BRANCH  22  25
HETATM   25  N   UNL     1      44.009 -18.216   3.748  1.00  0.00    -0.263 N 
HETATM   26  C   UNL     1      43.911 -18.550   2.426  1.00  0.00     0.030 A 
HETATM   27  C   UNL     1      43.511 -17.591   1.366  1.00  0.00     0.070 C 
HETATM   28  C   UNL     1      44.268 -19.883   2.332  1.00  0.00     0.028 A 
HETATM   29  C   UNL     1      44.551 -20.349   3.641  1.00  0.00     0.028 A 
HETATM   30  C   UNL     1      44.359 -19.293   4.515  1.00  0.00     0.030 A 
HETATM   31  C   UNL     1      44.522 -19.234   5.989  1.00  0.00     0.070 C 
ENDBRANCH  22  25
ENDBRANCH   1  21
TORSDOF 7
ENDMDL
MODEL 4
REMARK VINA RESULT:      -7.9      2.424     10.845
REMARK  7 active torsions:
REMARK  status: ('A' for Active; 'I' for Inactive)
REMARK    1  A    between atoms: N_3  and  N_4 
REMARK       I    between atoms: N_4  and  C_5 
REMARK    2  A    between atoms: C_5  and  C_6 
REMARK    3  A    between atoms: C_9  and  O_10 
REMARK    4  A    between atoms: O_10  and  C_11 
REMARK    5  A    between atoms: C_11  and  C_12 
REMARK       I    between atoms: C_12  and  N_13 
REMARK    6  A    between atoms: N_13  and  C_14 
REMARK    7  A    between atoms: C_17  and  O_18 
ROOT
HETATM    1  C   UNL     1      41.855 -11.447   6.843  1.00  0.00     0.033 A 
HETATM    2  C   UNL     1      40.827 -11.050   5.978  1.00  0.00     0.020 A 
HETATM    3  C   UNL     1      40.549 -11.807   4.837  1.00  0.00     0.038 A 
HETATM    4  C   UNL     1      41.300 -12.948   4.543  1.00  0.00     0.069 A 
HETATM    5  C   UNL     1      42.307 -13.360   5.416  1.00  0.00     0.038 A 
HETATM    6  C   UNL     1      42.581 -12.612   6.565  1.00  0.00     0.020 A 
ENDROOT
BRANCH   4   7
HETATM    7  O   UNL     1      40.921 -13.633   3.421  1.00  0.00    -0.342 OA
BRANCH   7   8
HETATM    8  C   UNL     1      41.962 -14.339   2.750  1.00  0.00     0.278 C 
BRANCH   8   9
HETATM    9  C   UNL     1      41.971 -15.854   2.985  1.00  0.00     0.246 C 
HETATM   10  N   UNL     1      43.245 -16.393   2.985  1.00  0.00    -0.325 N 
HETATM   11  H   UNL     1      43.994 -15.731   2.803  1.00  0.00     0.169 HD
HETATM   12  O   UNL     1      40.918 -16.460   3.151  1.00  0.00    -0.271 OA
BRANCH  10  13
HETATM   13  C   UNL     1      43.612 -17.743   3.142  1.00  0.00     0.035 A 
HETATM   14  C   UNL     1      43.610 -18.676   2.108  1.00  0.00     0.032 A 
HETATM   15  C   UNL     1      44.008 -19.996   2.346  1.00  0.00     0.039 A 
HETATM   16  C   UNL     1      44.423 -20.401   3.615  1.00  0.00     0.068 A 
HETATM   17  C   UNL     1      44.412 -19.476   4.657  1.00  0.00     0.039 A 
HETATM   18  C   UNL     1      44.006 -18.156   4.420  1.00  0.00     0.032 A 
BRANCH  16  19
HETATM   19  O   UNL     1      44.801 -21.711   3.706  1.00  0.00    -0.356 OA
HETATM   20  C   UNL     1      44.929 -22.248   5.016  1.00  0.00     0.210 C 
ENDBRANCH  16  19
ENDBRANCH  10  13
ENDBRANCH   8   9
ENDBRANCH   7   8
ENDBRANCH   4   7
BRANCH   1  21
HETATM   21  C   UNL     1      42.174 -10.687   8.082  1.00  0.00     0.270 C 
HETATM   22  N   UNL     1      42.548 -11.452   9.160  1.00  0.00    -0.259 N 
HETATM   23  H   UNL     1      42.452 -12.454   9.194  1.00  0.00     0.191 HD
HETATM   24  O   UNL     1      42.063  -9.467   8.080  1.00  0.00    -0.266 OA
BRANCH  22  25
HETATM   25  N   UNL     1      42.785 -10.862  10.345  1.00  0.00    -0.263 N 
HETATM   26  C   UNL     1      44.040 -10.571  10.800  1.00  0.00     0.030 A 
HETATM   27  C   UNL     1      45.262 -10.684   9.964  1.00  0.00     0.070 C 
HETATM   28  C   UNL     1      43.895 -10.161  12.114  1.00  0.00     0.028 A 
HETATM   29  C   UNL     1      42.519 -10.247  12.444  1.00  0.00     0.028 A 
HETATM   30  C   UNL     1      41.845 -10.711  11.328  1.00  0.00     0.030 A 
HETATM   31  C   UNL     1      40.397 -10.973  11.129  1.00  0.00     0.070 C 
ENDBRANCH  22  25
ENDBRANCH   1  21
TORSDOF 7
ENDMDL
MODEL 5
REMARK VINA RESULT:      -7.8      2.743     11.103
REMARK  7 active torsions:
REMARK  status: ('A' for Active; 'I' for Inactive)
REMARK    1  A    between atoms: N_3  and  N_4 
REMARK       I    between atoms: N_4  and  C_5 
REMARK    2  A    between atoms: C_5  and  C_6 
REMARK    3  A    between atoms: C_9  and  O_10 
REMARK    4  A    between atoms: O_10  and  C_11 
REMARK    5  A    between atoms: C_11  and  C_12 
REMARK       I    between atoms: C_12  and  N_13 
REMARK    6  A    between atoms: N_13  and  C_14 
REMARK    7  A    between atoms: C_17  and  O_18 
ROOT
HETATM    1  C   UNL     1      41.139 -11.205   7.971  1.00  0.00     0.033 A 
HETATM    2  C   UNL     1      42.065 -11.519   6.968  1.00  0.00     0.020 A 
HETATM    3  C   UNL     1      41.622 -12.076   5.765  1.00  0.00     0.038 A 
HETATM    4  C   UNL     1      40.265 -12.337   5.562  1.00  0.00     0.069 A 
HETATM    5  C   UNL     1      39.338 -12.002   6.549  1.00  0.00     0.038 A 
HETATM    6  C   UNL     1      39.775 -11.433   7.750  1.00  0.00     0.020 A 
ENDROOT
BRANCH   4   7
HETATM    7  O   UNL     1      39.938 -12.850   4.337  1.00  0.00    -0.342 OA
BRANCH   7   8
HETATM    8  C   UNL     1      39.760 -14.264   4.288  1.00  0.00     0.278 C 
BRANCH   8   9
HETATM    9  C   UNL     1      40.946 -15.044   3.710  1.00  0.00     0.246 C 
HETATM   10  N   UNL     1      40.858 -16.406   3.933  1.00  0.00    -0.325 N 
HETATM   11  H   UNL     1      40.047 -16.704   4.469  1.00  0.00     0.169 HD
HETATM   12  O   UNL     1      41.845 -14.455   3.117  1.00  0.00    -0.271 OA
BRANCH  10  13
HETATM   13  C   UNL     1      41.780 -17.404   3.566  1.00  0.00     0.035 A 
HETATM   14  C   UNL     1      41.949 -17.870   2.264  1.00  0.00     0.032 A 
HETATM   15  C   UNL     1      42.904 -18.853   1.983  1.00  0.00     0.039 A 
HETATM   16  C   UNL     1      43.709 -19.378   2.994  1.00  0.00     0.068 A 
HETATM   17  C   UNL     1      43.534 -18.928   4.301  1.00  0.00     0.039 A 
HETATM   18  C   UNL     1      42.573 -17.949   4.584  1.00  0.00     0.032 A 
BRANCH  16  19
HETATM   19  O   UNL     1      44.611 -20.318   2.580  1.00  0.00    -0.356 OA
HETATM   20  C   UNL     1      44.080 -21.473   1.943  1.00  0.00     0.210 C 
ENDBRANCH  16  19
ENDBRANCH  10  13
ENDBRANCH   8   9
ENDBRANCH   7   8
ENDBRANCH   4   7
BRANCH   1  21
HETATM   21  C   UNL     1      41.559 -10.590   9.260  1.00  0.00     0.270 C 
HETATM   22  N   UNL     1      42.081 -11.463  10.184  1.00  0.00    -0.259 N 
HETATM   23  H   UNL     1      42.031 -12.466  10.096  1.00  0.00     0.191 HD
HETATM   24  O   UNL     1      41.398  -9.388   9.430  1.00  0.00    -0.266 OA
BRANCH  22  25
HETATM   25  N   UNL     1      42.420 -11.014  11.406  1.00  0.00    -0.263 N 
HETATM   26  C   UNL     1      41.530 -10.900  12.436  1.00  0.00     0.030 A 
HETATM   27  C   UNL     1      40.148 -11.442  12.390  1.00  0.00     0.070 C 
HETATM   28  C   UNL     1      42.190 -10.230  13.451  1.00  0.00     0.028 A 
HETATM   29  C   UNL     1      43.492  -9.915  12.986  1.00  0.00     0.028 A 
HETATM   30  C   UNL     1      43.606 -10.396  11.694  1.00  0.00     0.030 A 
HETATM   31  C   UNL     1      44.755 -10.342  10.754  1.00  0.00     0.070 C 
ENDBRANCH  22  25
ENDBRANCH   1  21
TORSDOF 7
ENDMDL
MODEL 6
REMARK VINA RESULT:      -7.4      7.266     11.092
REMARK  7 active torsions:
REMARK  status: ('A' for Active; 'I' for Inactive)
REMARK    1  A    between atoms: N_3  and  N_4 
REMARK       I    between atoms: N_4  and  C_5 
REMARK    2  A    between atoms: C_5  and  C_6 
REMARK    3  A    between atoms: C_9  and  O_10 
REMARK    4  A    between atoms: O_10  and  C_11 
REMARK    5  A    between atoms: C_11  and  C_12 
REMARK       I    between atoms: C_12  and  N_13 
REMARK    6  A    between atoms: N_13  and  C_14 
REMARK    7  A    between atoms: C_17  and  O_18 
ROOT
HETATM    1  C   UNL     1      42.524 -16.852   2.553  1.00  0.00     0.033 A 
HETATM    2  C   UNL     1      41.869 -16.924   1.317  1.00  0.00     0.020 A 
HETATM    3  C   UNL     1      41.574 -15.751   0.618  1.00  0.00     0.038 A 
HETATM    4  C   UNL     1      41.912 -14.505   1.150  1.00  0.00     0.069 A 
HETATM    5  C   UNL     1      42.588 -14.431   2.369  1.00  0.00     0.038 A 
HETATM    6  C   UNL     1      42.895 -15.603   3.066  1.00  0.00     0.020 A 
ENDROOT
BRANCH   4   7
HETATM    7  O   UNL     1      41.609 -13.424   0.368  1.00  0.00    -0.342 OA
BRANCH   7   8
HETATM    8  C   UNL     1      40.402 -12.742   0.700  1.00  0.00     0.278 C 
BRANCH   8   9
HETATM    9  C   UNL     1      39.169 -13.186  -0.095  1.00  0.00     0.246 C 
HETATM   10  N   UNL     1      39.397 -13.243  -1.458  1.00  0.00    -0.325 N 
HETATM   11  H   UNL     1      40.327 -12.959  -1.752  1.00  0.00     0.169 HD
HETATM   12  O   UNL     1      38.121 -13.452   0.486  1.00  0.00    -0.271 OA
BRANCH  10  13
HETATM   13  C   UNL     1      38.483 -13.581  -2.473  1.00  0.00     0.035 A 
HETATM   14  C   UNL     1      38.394 -14.845  -3.054  1.00  0.00     0.032 A 
HETATM   15  C   UNL     1      37.442 -15.101  -4.046  1.00  0.00     0.039 A 
HETATM   16  C   UNL     1      36.560 -14.105  -4.467  1.00  0.00     0.068 A 
HETATM   17  C   UNL     1      36.656 -12.835  -3.903  1.00  0.00     0.039 A 
HETATM   18  C   UNL     1      37.614 -12.576  -2.913  1.00  0.00     0.032 A 
BRANCH  16  19
HETATM   19  O   UNL     1      35.671 -14.493  -5.430  1.00  0.00    -0.356 OA
HETATM   20  C   UNL     1      35.147 -13.468  -6.265  1.00  0.00     0.210 C 
ENDBRANCH  16  19
ENDBRANCH  10  13
ENDBRANCH   8   9
ENDBRANCH   7   8
ENDBRANCH   4   7
BRANCH   1  21
HETATM   21  C   UNL     1      42.879 -18.074   3.324  1.00  0.00     0.270 C 
HETATM   22  N   UNL     1      44.089 -18.640   3.001  1.00  0.00    -0.259 N 
HETATM   23  H   UNL     1      44.631 -18.378   2.193  1.00  0.00     0.191 HD
HETATM   24  O   UNL     1      42.090 -18.508   4.154  1.00  0.00    -0.266 OA
BRANCH  22  25
HETATM   25  N   UNL     1      44.465 -19.789   3.591  1.00  0.00    -0.263 N 
HETATM   26  C   UNL     1      44.256 -21.020   3.036  1.00  0.00     0.030 A 
HETATM   27  C   UNL     1      43.781 -21.221   1.644  1.00  0.00     0.070 C 
HETATM   28  C   UNL     1      44.590 -21.949   4.005  1.00  0.00     0.028 A 
HETATM   29  C   UNL     1      44.973 -21.238   5.171  1.00  0.00     0.028 A 
HETATM   30  C   UNL     1      44.865 -19.886   4.896  1.00  0.00     0.030 A 
HETATM   31  C   UNL     1      45.149 -18.712   5.759  1.00  0.00     0.070 C 
ENDBRANCH  22  25
ENDBRANCH   1  21
TORSDOF 7
ENDMDL
MODEL 7
REMARK VINA RESULT:      -7.4      3.085      4.213
REMARK  7 active torsions:
REMARK  status: ('A' for Active; 'I' for Inactive)
REMARK    1  A    between atoms: N_3  and  N_4 
REMARK       I    between atoms: N_4  and  C_5 
REMARK    2  A    between atoms: C_5  and  C_6 
REMARK    3  A    between atoms: C_9  and  O_10 
REMARK    4  A    between atoms: O_10  and  C_11 
REMARK    5  A    between atoms: C_11  and  C_12 
REMARK       I    between atoms: C_12  and  N_13 
REMARK    6  A    between atoms: N_13  and  C_14 
REMARK    7  A    between atoms: C_17  and  O_18 
ROOT
HETATM    1  C   UNL     1      42.314 -14.140   4.175  1.00  0.00     0.033 A 
HETATM    2  C   UNL     1      43.256 -15.107   4.546  1.00  0.00     0.020 A 
HETATM    3  C   UNL     1      43.923 -14.994   5.769  1.00  0.00     0.038 A 
HETATM    4  C   UNL     1      43.670 -13.914   6.617  1.00  0.00     0.069 A 
HETATM    5  C   UNL     1      42.713 -12.962   6.262  1.00  0.00     0.038 A 
HETATM    6  C   UNL     1      42.034 -13.078   5.044  1.00  0.00     0.020 A 
ENDROOT
BRANCH   4   7
HETATM    7  O   UNL     1      44.351 -13.919   7.803  1.00  0.00    -0.342 OA
BRANCH   7   8
HETATM    8  C   UNL     1      45.405 -12.965   7.912  1.00  0.00     0.278 C 
BRANCH   8   9
HETATM    9  C   UNL     1      45.149 -11.832   8.912  1.00  0.00     0.246 C 
HETATM   10  N   UNL     1      43.987 -12.006   9.641  1.00  0.00    -0.325 N 
HETATM   11  H   UNL     1      43.447 -12.833   9.401  1.00  0.00     0.169 HD
HETATM   12  O   UNL     1      45.941 -10.898   9.005  1.00  0.00    -0.271 OA
BRANCH  10  13
HETATM   13  C   UNL     1      43.441 -11.149  10.615  1.00  0.00     0.035 A 
HETATM   14  C   UNL     1      44.153 -10.652  11.704  1.00  0.00     0.032 A 
HETATM   15  C   UNL     1      43.537  -9.788  12.617  1.00  0.00     0.039 A 
HETATM   16  C   UNL     1      42.207  -9.402  12.451  1.00  0.00     0.068 A 
HETATM   17  C   UNL     1      41.485  -9.909  11.373  1.00  0.00     0.039 A 
HETATM   18  C   UNL     1      42.099 -10.780  10.463  1.00  0.00     0.032 A 
BRANCH  16  19
HETATM   19  O   UNL     1      41.735  -8.543  13.404  1.00  0.00    -0.356 OA
HETATM   20  C   UNL     1      41.069  -9.128  14.516  1.00  0.00     0.210 C 
ENDBRANCH  16  19
ENDBRANCH  10  13
ENDBRANCH   8   9
ENDBRANCH   7   8
ENDBRANCH   4   7
BRANCH   1  21
HETATM   21  C   UNL     1      41.562 -14.229   2.894  1.00  0.00     0.270 C 
HETATM   22  N   UNL     1      42.314 -14.568   1.795  1.00  0.00    -0.259 N 
HETATM   23  H   UNL     1      43.322 -14.586   1.791  1.00  0.00     0.191 HD
HETATM   24  O   UNL     1      40.363 -13.978   2.885  1.00  0.00    -0.266 OA
BRANCH  22  25
HETATM   25  N   UNL     1      41.739 -14.602   0.579  1.00  0.00    -0.263 N 
HETATM   26  C   UNL     1      41.337 -15.759  -0.027  1.00  0.00     0.030 A 
HETATM   27  C   UNL     1      41.300 -17.075   0.660  1.00  0.00     0.070 C 
HETATM   28  C   UNL     1      40.983 -15.421  -1.321  1.00  0.00     0.028 A 
HETATM   29  C   UNL     1      41.218 -14.031  -1.484  1.00  0.00     0.028 A 
HETATM   30  C   UNL     1      41.714 -13.544  -0.287  1.00  0.00     0.030 A 
HETATM   31  C   UNL     1      42.115 -12.165   0.087  1.00  0.00     0.070 C 
ENDBRANCH  22  25
ENDBRANCH   1  21
TORSDOF 7
ENDMDL
MODEL 8
REMARK VINA RESULT:      -7.3      5.814     10.347
REMARK  7 active torsions:
REMARK  status: ('A' for Active; 'I' for Inactive)
REMARK    1  A    between atoms: N_3  and  N_4 
REMARK       I    between atoms: N_4  and  C_5 
REMARK    2  A    between atoms: C_5  and  C_6 
REMARK    3  A    between atoms: C_9  and  O_10 
REMARK    4  A    between atoms: O_10  and  C_11 
REMARK    5  A    between atoms: C_11  and  C_12 
REMARK       I    between atoms: C_12  and  N_13 
REMARK    6  A    between atoms: N_13  and  C_14 
REMARK    7  A    between atoms: C_17  and  O_18 
ROOT
HETATM    1  C   UNL     1      40.112 -13.147   0.957  1.00  0.00     0.033 A 
HETATM    2  C   UNL     1      40.274 -12.376   2.115  1.00  0.00     0.020 A 
HETATM    3  C   UNL     1      40.168 -12.979   3.370  1.00  0.00     0.038 A 
HETATM    4  C   UNL     1      39.885 -14.343   3.480  1.00  0.00     0.069 A 
HETATM    5  C   UNL     1      39.749 -15.118   2.329  1.00  0.00     0.038 A 
HETATM    6  C   UNL     1      39.866 -14.521   1.069  1.00  0.00     0.020 A 
ENDROOT
BRANCH   4   7
HETATM    7  O   UNL     1      39.839 -14.837   4.755  1.00  0.00    -0.342 OA
BRANCH   7   8
HETATM    8  C   UNL     1      41.073 -14.817   5.469  1.00  0.00     0.278 C 
BRANCH   8   9
HETATM    9  C   UNL     1      42.191 -15.664   4.850  1.00  0.00     0.246 C 
HETATM   10  N   UNL     1      41.798 -16.962   4.577  1.00  0.00    -0.325 N 
HETATM   11  H   UNL     1      40.845 -17.189   4.847  1.00  0.00     0.169 HD
HETATM   12  O   UNL     1      43.296 -15.173   4.642  1.00  0.00    -0.271 OA
BRANCH  10  13
HETATM   13  C   UNL     1      42.574 -18.005   4.040  1.00  0.00     0.035 A 
HETATM   14  C   UNL     1      42.553 -18.382   2.699  1.00  0.00     0.032 A 
HETATM   15  C   UNL     1      43.373 -19.420   2.243  1.00  0.00     0.039 A 
HETATM   16  C   UNL     1      44.231 -20.090   3.116  1.00  0.00     0.068 A 
HETATM   17  C   UNL     1      44.245 -19.729   4.461  1.00  0.00     0.039 A 
HETATM   18  C   UNL     1      43.419 -18.694   4.919  1.00  0.00     0.032 A 
BRANCH  16  19
HETATM   19  O   UNL     1      44.987 -21.071   2.538  1.00  0.00    -0.356 OA
HETATM   20  C   UNL     1      44.313 -21.960   1.656  1.00  0.00     0.210 C 
ENDBRANCH  16  19
ENDBRANCH  10  13
ENDBRANCH   8   9
ENDBRANCH   7   8
ENDBRANCH   4   7
BRANCH   1  21
HETATM   21  C   UNL     1      40.238 -12.554  -0.403  1.00  0.00     0.270 C 
HETATM   22  N   UNL     1      41.516 -12.504  -0.905  1.00  0.00    -0.259 N 
HETATM   23  H   UNL     1      42.340 -12.681  -0.353  1.00  0.00     0.191 HD
HETATM   24  O   UNL     1      39.235 -12.134  -0.968  1.00  0.00    -0.266 OA
BRANCH  22  25
HETATM   25  N   UNL     1      41.741 -11.919  -2.095  1.00  0.00    -0.263 N 
HETATM   26  C   UNL     1      41.713 -12.598  -3.281  1.00  0.00     0.030 A 
HETATM   27  C   UNL     1      41.236 -13.998  -3.413  1.00  0.00     0.070 C 
HETATM   28  C   UNL     1      42.180 -11.722  -4.244  1.00  0.00     0.028 A 
HETATM   29  C   UNL     1      42.522 -10.508  -3.596  1.00  0.00     0.028 A 
HETATM   30  C   UNL     1      42.260 -10.663  -2.246  1.00  0.00     0.030 A 
HETATM   31  C   UNL     1      42.430  -9.703  -1.126  1.00  0.00     0.070 C 
ENDBRANCH  22  25
ENDBRANCH   1  21
TORSDOF 7
ENDMDL
MODEL 9
REMARK VINA RESULT:      -7.3      5.122      8.653
REMARK  7 active torsions:
REMARK  status: ('A' for Active; 'I' for Inactive)
REMARK    1  A    between atoms: N_3  and  N_4 
REMARK       I    between atoms: N_4  and  C_5 
REMARK    2  A    between atoms: C_5  and  C_6 
REMARK    3  A    between atoms: C_9  and  O_10 
REMARK    4  A    between atoms: O_10  and  C_11 
REMARK    5  A    between atoms: C_11  and  C_12 
REMARK       I    between atoms: C_12  and  N_13 
REMARK    6  A    between atoms: N_13  and  C_14 
REMARK    7  A    between atoms: C_17  and  O_18 
ROOT
HETATM    1  C   UNL     1      41.890 -15.664   4.817  1.00  0.00     0.033 A 
HETATM    2  C   UNL     1      42.751 -14.702   5.358  1.00  0.00     0.020 A 
HETATM    3  C   UNL     1      42.289 -13.401   5.578  1.00  0.00     0.038 A 
HETATM    4  C   UNL     1      40.978 -13.050   5.245  1.00  0.00     0.069 A 
HETATM    5  C   UNL     1      40.111 -14.014   4.730  1.00  0.00     0.038 A 
HETATM    6  C   UNL     1      40.566 -15.319   4.521  1.00  0.00     0.020 A 
ENDROOT
BRANCH   4   7
HETATM    7  O   UNL     1      40.619 -11.762   5.534  1.00  0.00    -0.342 OA
BRANCH   7   8
HETATM    8  C   UNL     1      41.009 -10.784   4.572  1.00  0.00     0.278 C 
BRANCH   8   9
HETATM    9  C   UNL     1      40.715 -11.158   3.115  1.00  0.00     0.246 C 
HETATM   10  N   UNL     1      41.812 -11.691   2.462  1.00  0.00    -0.325 N 
HETATM   11  H   UNL     1      42.663 -11.736   3.015  1.00  0.00     0.169 HD
HETATM   12  O   UNL     1      39.597 -10.978   2.643  1.00  0.00    -0.271 OA
BRANCH  10  13
HETATM   13  C   UNL     1      41.900 -12.110   1.121  1.00  0.00     0.035 A 
HETATM   14  C   UNL     1      42.239 -11.271   0.062  1.00  0.00     0.032 A 
HETATM   15  C   UNL     1      42.323 -11.775  -1.240  1.00  0.00     0.039 A 
HETATM   16  C   UNL     1      42.079 -13.123  -1.504  1.00  0.00     0.068 A 
HETATM   17  C   UNL     1      41.723 -13.964  -0.452  1.00  0.00     0.039 A 
HETATM   18  C   UNL     1      41.632 -13.458   0.852  1.00  0.00     0.032 A 
BRANCH  16  19
HETATM   19  O   UNL     1      42.210 -13.486  -2.815  1.00  0.00    -0.356 OA
HETATM   20  C   UNL     1      41.011 -13.793  -3.515  1.00  0.00     0.210 C 
ENDBRANCH  16  19
ENDBRANCH  10  13
ENDBRANCH   8   9
ENDBRANCH   7   8
ENDBRANCH   4   7
BRANCH   1  21
HETATM   21  C   UNL     1      42.330 -17.068   4.587  1.00  0.00     0.270 C 
HETATM   22  N   UNL     1      43.622 -17.212   4.143  1.00  0.00    -0.259 N 
HETATM   23  H   UNL     1      44.192 -16.445   3.820  1.00  0.00     0.191 HD
HETATM   24  O   UNL     1      41.536 -17.982   4.773  1.00  0.00    -0.266 OA
BRANCH  22  25
HETATM   25  N   UNL     1      44.088 -18.436   3.836  1.00  0.00    -0.263 N 
HETATM   26  C   UNL     1      43.987 -18.984   2.588  1.00  0.00     0.030 A 
HETATM   27  C   UNL     1      43.542 -18.226   1.392  1.00  0.00     0.070 C 
HETATM   28  C   UNL     1      44.389 -20.303   2.707  1.00  0.00     0.028 A 
HETATM   29  C   UNL     1      44.702 -20.539   4.070  1.00  0.00     0.028 A 
HETATM   30  C   UNL     1      44.484 -19.361   4.763  1.00  0.00     0.030 A 
HETATM   31  C   UNL     1      44.662 -19.056   6.205  1.00  0.00     0.070 C 
ENDBRANCH  22  25
ENDBRANCH   1  21
TORSDOF 7
ENDMDL
MODEL 10
REMARK VINA RESULT:      -7.2      5.256      9.881
REMARK  7 active torsions:
REMARK  status: ('A' for Active; 'I' for Inactive)
REMARK    1  A    between atoms: N_3  and  N_4 
REMARK       I    between atoms: N_4  and  C_5 
REMARK    2  A    between atoms: C_5  and  C_6 
REMARK    3  A    between atoms: C_9  and  O_10 
REMARK    4  A    between atoms: O_10  and  C_11 
REMARK    5  A    between atoms: C_11  and  C_12 
REMARK       I    between atoms: C_12  and  N_13 
REMARK    6  A    between atoms: N_13  and  C_14 
REMARK    7  A    between atoms: C_17  and  O_18 
ROOT
HETATM    1  C   UNL     1      41.298 -13.265   1.717  1.00  0.00     0.033 A 
HETATM    2  C   UNL     1      42.557 -13.874   1.798  1.00  0.00     0.020 A 
HETATM    3  C   UNL     1      43.135 -14.109   3.048  1.00  0.00     0.038 A 
HETATM    4  C   UNL     1      42.474 -13.727   4.217  1.00  0.00     0.069 A 
HETATM    5  C   UNL     1      41.209 -13.144   4.141  1.00  0.00     0.038 A 
HETATM    6  C   UNL     1      40.621 -12.917   2.893  1.00  0.00     0.020 A 
ENDROOT
BRANCH   4   7
HETATM    7  O   UNL     1      43.113 -14.036   5.387  1.00  0.00    -0.342 OA
BRANCH   7   8
HETATM    8  C   UNL     1      42.488 -15.040   6.183  1.00  0.00     0.278 C 
BRANCH   8   9
HETATM    9  C   UNL     1      42.382 -16.417   5.519  1.00  0.00     0.246 C 
HETATM   10  N   UNL     1      43.612 -16.948   5.174  1.00  0.00    -0.325 N 
HETATM   11  H   UNL     1      44.410 -16.351   5.375  1.00  0.00     0.169 HD
HETATM   12  O   UNL     1      41.284 -16.938   5.347  1.00  0.00    -0.271 OA
BRANCH  10  13
HETATM   13  C   UNL     1      43.876 -18.169   4.528  1.00  0.00     0.035 A 
HETATM   14  C   UNL     1      43.554 -18.434   3.199  1.00  0.00     0.032 A 
HETATM   15  C   UNL     1      43.870 -19.672   2.628  1.00  0.00     0.039 A 
HETATM   16  C   UNL     1      44.519 -20.658   3.370  1.00  0.00     0.068 A 
HETATM   17  C   UNL     1      44.829 -20.406   4.705  1.00  0.00     0.039 A 
HETATM   18  C   UNL     1      44.507 -19.169   5.279  1.00  0.00     0.032 A 
BRANCH  16  19
HETATM   19  O   UNL     1      44.783 -21.812   2.687  1.00  0.00    -0.356 OA
HETATM   20  C   UNL     1      44.098 -21.994   1.455  1.00  0.00     0.210 C 
ENDBRANCH  16  19
ENDBRANCH  10  13
ENDBRANCH   8   9
ENDBRANCH   7   8
ENDBRANCH   4   7
BRANCH   1  21
HETATM   21  C   UNL     1      40.631 -13.015   0.410  1.00  0.00     0.270 C 
HETATM   22  N   UNL     1      39.842 -14.040  -0.052  1.00  0.00    -0.259 N 
HETATM   23  H   UNL     1      39.836 -14.965   0.348  1.00  0.00     0.191 HD
HETATM   24  O   UNL     1      40.838 -11.958  -0.174  1.00  0.00    -0.266 OA
BRANCH  22  25
HETATM   25  N   UNL     1      39.257 -13.937  -1.259  1.00  0.00    -0.263 N 
HETATM   26  C   UNL     1      38.041 -13.344  -1.454  1.00  0.00     0.030 A 
HETATM   27  C   UNL     1      37.327 -12.573  -0.406  1.00  0.00     0.070 C 
HETATM   28  C   UNL     1      37.685 -13.604  -2.766  1.00  0.00     0.028 A 
HETATM   29  C   UNL     1      38.708 -14.399  -3.342  1.00  0.00     0.028 A 
HETATM   30  C   UNL     1      39.671 -14.615  -2.373  1.00  0.00     0.030 A 
HETATM   31  C   UNL     1      40.947 -15.372  -2.448  1.00  0.00     0.070 C 
ENDBRANCH  22  25
ENDBRANCH   1  21
TORSDOF 7
ENDMDL
