MODEL 1
REMARK VINA RESULT:      -8.4      0.000      0.000
REMARK  3 active torsions:
REMARK  status: ('A' for Active; 'I' for Inactive)
REMARK    1  A    between atoms: C_11  and  N_12 
REMARK       I    between atoms: N_12  and  C_13 
REMARK       I    between atoms: C_13  and  N_14 
REMARK    2  A    between atoms: N_14  and  C_15 
REMARK    3  A    between atoms: C_16  and  O_17 
ROOT
HETATM    1  N   UNL     1      42.703 -16.449   4.052  1.00  0.00    -0.338 N 
HETATM    2  C   UNL     1      42.826 -17.806   4.222  1.00  0.00     0.321 C 
HETATM    3  N   UNL     1      43.989 -18.344   3.741  1.00  0.00    -0.306 N 
HETATM    4  O   UNL     1      41.919 -18.386   4.806  1.00  0.00    -0.247 OA
HETATM    5  H   UNL     1      41.850 -16.157   4.510  1.00  0.00     0.164 HD
HETATM    6  H   UNL     1      44.800 -17.797   3.997  1.00  0.00     0.171 HD
ENDROOT
BRANCH   1   7
HETATM    7  C   UNL     1      43.262 -15.681   2.952  1.00  0.00     0.091 C 
HETATM    8  C   UNL     1      42.979 -14.181   3.069  1.00  0.00     0.063 C 
HETATM    9  C   UNL     1      41.587 -13.708   2.621  1.00  0.00     0.121 C 
HETATM   10  N   UNL     1      41.187 -14.382   1.328  1.00  0.00    -0.059 N 
HETATM   11  C   UNL     1      40.492 -13.899   3.676  1.00  0.00     0.046 C 
HETATM   12  C   UNL     1      41.654 -12.196   2.309  1.00  0.00     0.046 C 
HETATM   13  C   UNL     1      41.441 -15.862   1.112  1.00  0.00     0.121 C 
HETATM   14  H   UNL     1      41.668 -13.884   0.565  1.00  0.00     0.279 HD
HETATM   15  H   UNL     1      40.188 -14.195   1.152  1.00  0.00     0.279 HD
HETATM   16  C   UNL     1      40.344 -16.697   1.779  1.00  0.00     0.046 C 
HETATM   17  C   UNL     1      41.327 -16.090  -0.411  1.00  0.00     0.046 C 
HETATM   18  C   UNL     1      42.863 -16.212   1.569  1.00  0.00     0.063 C 
ENDBRANCH   1   7
BRANCH   3  19
HETATM   19  C   UNL     1      44.199 -19.742   3.650  1.00  0.00     0.072 A 
HETATM   20  C   UNL     1      44.610 -20.528   4.748  1.00  0.00     0.095 A 
HETATM   21  C   UNL     1      44.832 -21.900   4.562  1.00  0.00     0.042 A 
HETATM   22  C   UNL     1      44.630 -22.485   3.309  1.00  0.00     0.045 A 
HETATM   23  C   UNL     1      44.179 -21.707   2.254  1.00  0.00     0.118 A 
HETATM   24  F   UNL     1      43.966 -22.272   1.059  1.00  0.00    -0.206 F 
HETATM   25  C   UNL     1      43.948 -20.346   2.413  1.00  0.00     0.074 A 
BRANCH  20  26
HETATM   26  O   UNL     1      44.661 -19.912   5.975  1.00  0.00    -0.354 OA
HETATM   27  C   UNL     1      43.743 -20.380   6.958  1.00  0.00     0.210 C 
ENDBRANCH  20  26
ENDBRANCH   3  19
TORSDOF 3
ENDMDL
MODEL 2
REMARK VINA RESULT:      -7.7      1.844      2.846
REMARK  3 active torsions:
REMARK  status: ('A' for Active; 'I' for Inactive)
REMARK    1  A    between atoms: C_11  and  N_12 
REMARK       I    between atoms: N_12  and  C_13 
REMARK       I    between atoms: C_13  and  N_14 
REMARK    2  A    between atoms: N_14  and  C_15 
REMARK    3  A    between atoms: C_16  and  O_17 
ROOT
HETATM    1  N   UNL     1      41.862 -16.015   1.980  1.00  0.00    -0.338 N 
HETATM    2  C   UNL     1      42.736 -17.071   1.900  1.00  0.00     0.321 C 
HETATM    3  N   UNL     1      42.356 -18.187   2.597  1.00  0.00    -0.306 N 
HETATM    4  O   UNL     1      43.730 -16.929   1.198  1.00  0.00    -0.247 OA
HETATM    5  H   UNL     1      42.205 -15.284   1.371  1.00  0.00     0.164 HD
HETATM    6  H   UNL     1      41.382 -18.415   2.456  1.00  0.00     0.171 HD
ENDROOT
BRANCH   1   7
HETATM    7  C   UNL     1      41.018 -15.702   3.122  1.00  0.00     0.091 C 
HETATM    8  C   UNL     1      39.994 -14.605   2.820  1.00  0.00     0.063 C 
HETATM    9  C   UNL     1      40.504 -13.156   2.870  1.00  0.00     0.121 C 
HETATM   10  N   UNL     1      41.399 -12.949   4.072  1.00  0.00    -0.059 N 
HETATM   11  C   UNL     1      41.222 -12.702   1.595  1.00  0.00     0.046 C 
HETATM   12  C   UNL     1      39.298 -12.212   3.070  1.00  0.00     0.046 C 
HETATM   13  C   UNL     1      42.433 -13.987   4.460  1.00  0.00     0.121 C 
HETATM   14  H   UNL     1      40.784 -12.824   4.890  1.00  0.00     0.279 HD
HETATM   15  H   UNL     1      41.872 -12.037   3.979  1.00  0.00     0.279 HD
HETATM   16  C   UNL     1      43.697 -13.829   3.609  1.00  0.00     0.046 C 
HETATM   17  C   UNL     1      42.822 -13.669   5.920  1.00  0.00     0.046 C 
HETATM   18  C   UNL     1      41.806 -15.386   4.399  1.00  0.00     0.063 C 
ENDBRANCH   1   7
BRANCH   3  19
HETATM   19  C   UNL     1      43.221 -19.293   2.789  1.00  0.00     0.072 A 
HETATM   20  C   UNL     1      44.101 -19.395   3.889  1.00  0.00     0.095 A 
HETATM   21  C   UNL     1      44.952 -20.506   3.982  1.00  0.00     0.042 A 
HETATM   22  C   UNL     1      44.915 -21.509   3.010  1.00  0.00     0.045 A 
HETATM   23  C   UNL     1      44.009 -21.416   1.964  1.00  0.00     0.118 A 
HETATM   24  F   UNL     1      43.960 -22.388   1.043  1.00  0.00    -0.206 F 
HETATM   25  C   UNL     1      43.153 -20.328   1.850  1.00  0.00     0.074 A 
BRANCH  20  26
HETATM   26  O   UNL     1      43.989 -18.441   4.870  1.00  0.00    -0.354 OA
HETATM   27  C   UNL     1      44.917 -18.527   5.947  1.00  0.00     0.210 C 
ENDBRANCH  20  26
ENDBRANCH   3  19
TORSDOF 3
ENDMDL
MODEL 3
REMARK VINA RESULT:      -7.7      1.858      2.960
REMARK  3 active torsions:
REMARK  status: ('A' for Active; 'I' for Inactive)
REMARK    1  A    between atoms: C_11  and  N_12 
REMARK       I    between atoms: N_12  and  C_13 
REMARK       I    between atoms: C_13  and  N_14 
REMARK    2  A    between atoms: N_14  and  C_15 
REMARK    3  A    between atoms: C_16  and  O_17 
ROOT
HETATM    1  N   UNL     1      42.101 -15.801   1.788  1.00  0.00    -0.338 N 
HETATM    2  C   UNL     1      42.964 -16.862   1.903  1.00  0.00     0.321 C 
HETATM    3  N   UNL     1      42.415 -17.996   2.439  1.00  0.00    -0.306 N 
HETATM    4  O   UNL     1      44.106 -16.708   1.490  1.00  0.00    -0.247 OA
HETATM    5  H   UNL     1      42.591 -15.054   1.314  1.00  0.00     0.164 HD
HETATM    6  H   UNL     1      41.511 -18.210   2.042  1.00  0.00     0.171 HD
ENDROOT
BRANCH   1   7
HETATM    7  C   UNL     1      40.988 -15.516   2.680  1.00  0.00     0.091 C 
HETATM    8  C   UNL     1      39.634 -15.539   1.967  1.00  0.00     0.063 C 
HETATM    9  C   UNL     1      39.253 -14.276   1.178  1.00  0.00     0.121 C 
HETATM   10  N   UNL     1      39.592 -13.032   1.968  1.00  0.00    -0.059 N 
HETATM   11  C   UNL     1      39.878 -14.199  -0.219  1.00  0.00     0.046 C 
HETATM   12  C   UNL     1      37.719 -14.254   0.987  1.00  0.00     0.046 C 
HETATM   13  C   UNL     1      40.904 -12.923   2.721  1.00  0.00     0.121 C 
HETATM   14  H   UNL     1      38.841 -12.899   2.661  1.00  0.00     0.279 HD
HETATM   15  H   UNL     1      39.504 -12.211   1.349  1.00  0.00     0.279 HD
HETATM   16  C   UNL     1      42.035 -12.516   1.772  1.00  0.00     0.046 C 
HETATM   17  C   UNL     1      40.715 -11.770   3.730  1.00  0.00     0.046 C 
HETATM   18  C   UNL     1      41.166 -14.225   3.489  1.00  0.00     0.063 C 
ENDBRANCH   1   7
BRANCH   3  19
HETATM   19  C   UNL     1      43.198 -19.116   2.813  1.00  0.00     0.072 A 
HETATM   20  C   UNL     1      43.831 -19.223   4.071  1.00  0.00     0.095 A 
HETATM   21  C   UNL     1      44.621 -20.348   4.345  1.00  0.00     0.042 A 
HETATM   22  C   UNL     1      44.763 -21.361   3.393  1.00  0.00     0.045 A 
HETATM   23  C   UNL     1      44.094 -21.263   2.183  1.00  0.00     0.118 A 
HETATM   24  F   UNL     1      44.215 -22.244   1.279  1.00  0.00    -0.206 F 
HETATM   25  C   UNL     1      43.303 -20.160   1.887  1.00  0.00     0.074 A 
BRANCH  20  26
HETATM   26  O   UNL     1      43.540 -18.255   5.001  1.00  0.00    -0.354 OA
HETATM   27  C   UNL     1      43.983 -18.502   6.332  1.00  0.00     0.210 C 
ENDBRANCH  20  26
ENDBRANCH   3  19
TORSDOF 3
ENDMDL
MODEL 4
REMARK VINA RESULT:      -7.6      1.903      2.839
REMARK  3 active torsions:
REMARK  status: ('A' for Active; 'I' for Inactive)
REMARK    1  A    between atoms: C_11  and  N_12 
REMARK       I    between atoms: N_12  and  C_13 
REMARK       I    between atoms: C_13  and  N_14 
REMARK    2  A    between atoms: N_14  and  C_15 
REMARK    3  A    between atoms: C_16  and  O_17 
ROOT
HETATM    1  N   UNL     1      42.171 -16.121   5.462  1.00  0.00    -0.338 N 
HETATM    2  C   UNL     1      42.305 -17.421   5.045  1.00  0.00     0.321 C 
HETATM    3  N   UNL     1      43.572 -17.778   4.667  1.00  0.00    -0.306 N 
HETATM    4  O   UNL     1      41.309 -18.133   5.084  1.00  0.00    -0.247 OA
HETATM    5  H   UNL     1      41.220 -15.997   5.785  1.00  0.00     0.164 HD
HETATM    6  H   UNL     1      44.273 -17.455   5.320  1.00  0.00     0.171 HD
ENDROOT
BRANCH   1   7
HETATM    7  C   UNL     1      42.947 -14.992   4.975  1.00  0.00     0.091 C 
HETATM    8  C   UNL     1      42.628 -13.689   5.710  1.00  0.00     0.063 C 
HETATM    9  C   UNL     1      41.362 -12.940   5.262  1.00  0.00     0.121 C 
HETATM   10  N   UNL     1      41.262 -12.920   3.754  1.00  0.00    -0.059 N 
HETATM   11  C   UNL     1      40.065 -13.488   5.868  1.00  0.00     0.046 C 
HETATM   12  C   UNL     1      41.477 -11.463   5.701  1.00  0.00     0.046 C 
HETATM   13  C   UNL     1      41.576 -14.158   2.936  1.00  0.00     0.121 C 
HETATM   14  H   UNL     1      41.893 -12.177   3.418  1.00  0.00     0.279 HD
HETATM   15  H   UNL     1      40.324 -12.584   3.487  1.00  0.00     0.279 HD
HETATM   16  C   UNL     1      40.370 -15.102   2.910  1.00  0.00     0.046 C 
HETATM   17  C   UNL     1      41.801 -13.663   1.491  1.00  0.00     0.046 C 
HETATM   18  C   UNL     1      42.867 -14.804   3.455  1.00  0.00     0.063 C 
ENDBRANCH   1   7
BRANCH   3  19
HETATM   19  C   UNL     1      43.856 -19.009   4.026  1.00  0.00     0.072 A 
HETATM   20  C   UNL     1      43.508 -19.273   2.684  1.00  0.00     0.095 A 
HETATM   21  C   UNL     1      43.791 -20.533   2.139  1.00  0.00     0.042 A 
HETATM   22  C   UNL     1      44.428 -21.509   2.909  1.00  0.00     0.045 A 
HETATM   23  C   UNL     1      44.808 -21.216   4.210  1.00  0.00     0.118 A 
HETATM   24  F   UNL     1      45.437 -22.145   4.941  1.00  0.00    -0.206 F 
HETATM   25  C   UNL     1      44.542 -19.974   4.772  1.00  0.00     0.074 A 
BRANCH  20  26
HETATM   26  O   UNL     1      43.005 -18.225   1.951  1.00  0.00    -0.354 OA
HETATM   27  C   UNL     1      43.918 -17.563   1.083  1.00  0.00     0.210 C 
ENDBRANCH  20  26
ENDBRANCH   3  19
TORSDOF 3
ENDMDL
MODEL 5
REMARK VINA RESULT:      -7.4      1.561      1.767
REMARK  3 active torsions:
REMARK  status: ('A' for Active; 'I' for Inactive)
REMARK    1  A    between atoms: C_11  and  N_12 
REMARK       I    between atoms: N_12  and  C_13 
REMARK       I    between atoms: C_13  and  N_14 
REMARK    2  A    between atoms: N_14  and  C_15 
REMARK    3  A    between atoms: C_16  and  O_17 
ROOT
HETATM    1  N   UNL     1      41.489 -15.460   3.586  1.00  0.00    -0.338 N 
HETATM    2  C   UNL     1      41.862 -16.752   3.856  1.00  0.00     0.321 C 
HETATM    3  N   UNL     1      43.166 -17.049   3.562  1.00  0.00    -0.306 N 
HETATM    4  O   UNL     1      41.022 -17.490   4.356  1.00  0.00    -0.247 OA
HETATM    5  H   UNL     1      40.538 -15.339   3.912  1.00  0.00     0.164 HD
HETATM    6  H   UNL     1      43.804 -16.334   3.883  1.00  0.00     0.171 HD
ENDROOT
BRANCH   1   7
HETATM    7  C   UNL     1      42.023 -14.630   2.518  1.00  0.00     0.091 C 
HETATM    8  C   UNL     1      42.023 -13.140   2.865  1.00  0.00     0.063 C 
HETATM    9  C   UNL     1      40.687 -12.397   2.699  1.00  0.00     0.121 C 
HETATM   10  N   UNL     1      40.011 -12.801   1.408  1.00  0.00    -0.059 N 
HETATM   11  C   UNL     1      39.723 -12.573   3.876  1.00  0.00     0.046 C 
HETATM   12  C   UNL     1      40.974 -10.884   2.573  1.00  0.00     0.046 C 
HETATM   13  C   UNL     1      39.974 -14.253   0.971  1.00  0.00     0.121 C 
HETATM   14  H   UNL     1      40.467 -12.275   0.649  1.00  0.00     0.279 HD
HETATM   15  H   UNL     1      39.045 -12.438   1.412  1.00  0.00     0.279 HD
HETATM   16  C   UNL     1      38.846 -15.000   1.688  1.00  0.00     0.046 C 
HETATM   17  C   UNL     1      39.626 -14.231  -0.533  1.00  0.00     0.046 C 
HETATM   18  C   UNL     1      41.361 -14.881   1.157  1.00  0.00     0.063 C 
ENDBRANCH   1   7
BRANCH   3  19
HETATM   19  C   UNL     1      43.669 -18.373   3.587  1.00  0.00     0.072 A 
HETATM   20  C   UNL     1      44.262 -18.946   4.734  1.00  0.00     0.095 A 
HETATM   21  C   UNL     1      44.769 -20.251   4.661  1.00  0.00     0.042 A 
HETATM   22  C   UNL     1      44.670 -20.983   3.476  1.00  0.00     0.045 A 
HETATM   23  C   UNL     1      44.040 -20.423   2.374  1.00  0.00     0.118 A 
HETATM   24  F   UNL     1      43.928 -21.133   1.244  1.00  0.00    -0.206 F 
HETATM   25  C   UNL     1      43.527 -19.133   2.421  1.00  0.00     0.074 A 
BRANCH  20  26
HETATM   26  O   UNL     1      44.205 -18.218   5.897  1.00  0.00    -0.354 OA
HETATM   27  C   UNL     1      45.445 -17.972   6.552  1.00  0.00     0.210 C 
ENDBRANCH  20  26
ENDBRANCH   3  19
TORSDOF 3
ENDMDL
MODEL 6
REMARK VINA RESULT:      -7.4      2.525      3.838
REMARK  3 active torsions:
REMARK  status: ('A' for Active; 'I' for Inactive)
REMARK    1  A    between atoms: C_11  and  N_12 
REMARK       I    between atoms: N_12  and  C_13 
REMARK       I    between atoms: C_13  and  N_14 
REMARK    2  A    between atoms: N_14  and  C_15 
REMARK    3  A    between atoms: C_16  and  O_17 
ROOT
HETATM    1  N   UNL     1      41.405 -16.115   1.595  1.00  0.00    -0.338 N 
HETATM    2  C   UNL     1      42.469 -16.894   1.973  1.00  0.00     0.321 C 
HETATM    3  N   UNL     1      42.216 -17.752   3.010  1.00  0.00    -0.306 N 
HETATM    4  O   UNL     1      43.509 -16.777   1.337  1.00  0.00    -0.247 OA
HETATM    5  H   UNL     1      41.685 -15.584   0.781  1.00  0.00     0.164 HD
HETATM    6  H   UNL     1      41.337 -18.237   2.901  1.00  0.00     0.171 HD
ENDROOT
BRANCH   1   7
HETATM    7  C   UNL     1      40.356 -15.630   2.478  1.00  0.00     0.091 C 
HETATM    8  C   UNL     1      39.041 -15.355   1.746  1.00  0.00     0.063 C 
HETATM    9  C   UNL     1      38.944 -14.020   0.988  1.00  0.00     0.121 C 
HETATM   10  N   UNL     1      39.515 -12.894   1.820  1.00  0.00    -0.059 N 
HETATM   11  C   UNL     1      39.600 -14.038  -0.396  1.00  0.00     0.046 C 
HETATM   12  C   UNL     1      37.452 -13.678   0.776  1.00  0.00     0.046 C 
HETATM   13  C   UNL     1      40.805 -13.077   2.595  1.00  0.00     0.121 C 
HETATM   14  H   UNL     1      38.793 -12.627   2.505  1.00  0.00     0.279 HD
HETATM   15  H   UNL     1      39.610 -12.057   1.224  1.00  0.00     0.279 HD
HETATM   16  C   UNL     1      42.015 -12.887   1.675  1.00  0.00     0.046 C 
HETATM   17  C   UNL     1      40.837 -11.936   3.635  1.00  0.00     0.046 C 
HETATM   18  C   UNL     1      40.779 -14.425   3.328  1.00  0.00     0.063 C 
ENDBRANCH   1   7
BRANCH   3  19
HETATM   19  C   UNL     1      43.242 -18.484   3.658  1.00  0.00     0.072 A 
HETATM   20  C   UNL     1      43.686 -19.745   3.207  1.00  0.00     0.095 A 
HETATM   21  C   UNL     1      44.679 -20.419   3.931  1.00  0.00     0.042 A 
HETATM   22  C   UNL     1      45.238 -19.840   5.073  1.00  0.00     0.045 A 
HETATM   23  C   UNL     1      44.825 -18.579   5.474  1.00  0.00     0.118 A 
HETATM   24  F   UNL     1      45.375 -18.015   6.557  1.00  0.00    -0.206 F 
HETATM   25  C   UNL     1      43.844 -17.888   4.772  1.00  0.00     0.074 A 
BRANCH  20  26
HETATM   26  O   UNL     1      43.187 -20.191   2.007  1.00  0.00    -0.354 OA
HETATM   27  C   UNL     1      43.528 -21.522   1.634  1.00  0.00     0.210 C 
ENDBRANCH  20  26
ENDBRANCH   3  19
TORSDOF 3
ENDMDL
MODEL 7
REMARK VINA RESULT:      -7.2      3.877      7.252
REMARK  3 active torsions:
REMARK  status: ('A' for Active; 'I' for Inactive)
REMARK    1  A    between atoms: C_11  and  N_12 
REMARK       I    between atoms: N_12  and  C_13 
REMARK       I    between atoms: C_13  and  N_14 
REMARK    2  A    between atoms: N_14  and  C_15 
REMARK    3  A    between atoms: C_16  and  O_17 
ROOT
HETATM    1  N   UNL     1      40.709 -15.980   4.266  1.00  0.00    -0.338 N 
HETATM    2  C   UNL     1      40.255 -14.981   3.442  1.00  0.00     0.321 C 
HETATM    3  N   UNL     1      39.528 -15.408   2.363  1.00  0.00    -0.306 N 
HETATM    4  O   UNL     1      40.507 -13.826   3.763  1.00  0.00    -0.247 OA
HETATM    5  H   UNL     1      41.161 -15.545   5.059  1.00  0.00     0.164 HD
HETATM    6  H   UNL     1      38.846 -16.111   2.613  1.00  0.00     0.171 HD
ENDROOT
BRANCH   1   7
HETATM    7  C   UNL     1      41.072 -17.323   3.844  1.00  0.00     0.091 C 
HETATM    8  C   UNL     1      41.786 -18.118   4.939  1.00  0.00     0.063 C 
HETATM    9  C   UNL     1      43.285 -17.832   5.128  1.00  0.00     0.121 C 
HETATM   10  N   UNL     1      43.980 -17.731   3.789  1.00  0.00    -0.059 N 
HETATM   11  C   UNL     1      43.583 -16.587   5.971  1.00  0.00     0.046 C 
HETATM   12  C   UNL     1      43.932 -19.033   5.854  1.00  0.00     0.046 C 
HETATM   13  C   UNL     1      43.343 -16.979   2.637  1.00  0.00     0.121 C 
HETATM   14  H   UNL     1      44.144 -18.694   3.459  1.00  0.00     0.279 HD
HETATM   15  H   UNL     1      44.930 -17.357   3.936  1.00  0.00     0.279 HD
HETATM   16  C   UNL     1      43.594 -15.474   2.775  1.00  0.00     0.046 C 
HETATM   17  C   UNL     1      44.082 -17.451   1.366  1.00  0.00     0.046 C 
HETATM   18  C   UNL     1      41.861 -17.361   2.530  1.00  0.00     0.063 C 
ENDBRANCH   1   7
BRANCH   3  19
HETATM   19  C   UNL     1      39.152 -14.541   1.308  1.00  0.00     0.072 A 
HETATM   20  C   UNL     1      40.003 -14.241   0.222  1.00  0.00     0.095 A 
HETATM   21  C   UNL     1      39.567 -13.341  -0.760  1.00  0.00     0.042 A 
HETATM   22  C   UNL     1      38.298 -12.763  -0.676  1.00  0.00     0.045 A 
HETATM   23  C   UNL     1      37.456 -13.107   0.371  1.00  0.00     0.118 A 
HETATM   24  F   UNL     1      36.231 -12.569   0.440  1.00  0.00    -0.206 F 
HETATM   25  C   UNL     1      37.863 -13.999   1.355  1.00  0.00     0.074 A 
BRANCH  20  26
HETATM   26  O   UNL     1      41.180 -14.945   0.137  1.00  0.00    -0.354 OA
HETATM   27  C   UNL     1      41.267 -15.911  -0.905  1.00  0.00     0.210 C 
ENDBRANCH  20  26
ENDBRANCH   3  19
TORSDOF 3
ENDMDL
MODEL 8
REMARK VINA RESULT:      -7.1      1.770      2.424
REMARK  3 active torsions:
REMARK  status: ('A' for Active; 'I' for Inactive)
REMARK    1  A    between atoms: C_11  and  N_12 
REMARK       I    between atoms: N_12  and  C_13 
REMARK       I    between atoms: C_13  and  N_14 
REMARK    2  A    between atoms: N_14  and  C_15 
REMARK    3  A    between atoms: C_16  and  O_17 
ROOT
HETATM    1  N   UNL     1      42.287 -16.029   4.449  1.00  0.00    -0.338 N 
HETATM    2  C   UNL     1      42.421 -17.309   4.926  1.00  0.00     0.321 C 
HETATM    3  N   UNL     1      43.674 -17.845   4.790  1.00  0.00    -0.306 N 
HETATM    4  O   UNL     1      41.440 -17.823   5.448  1.00  0.00    -0.247 OA
HETATM    5  H   UNL     1      41.351 -15.714   4.670  1.00  0.00     0.164 HD
HETATM    6  H   UNL     1      44.400 -17.199   5.065  1.00  0.00     0.171 HD
ENDROOT
BRANCH   1   7
HETATM    7  C   UNL     1      43.020 -15.463   3.328  1.00  0.00     0.091 C 
HETATM    8  C   UNL     1      42.798 -13.957   3.171  1.00  0.00     0.063 C 
HETATM    9  C   UNL     1      41.500 -13.523   2.470  1.00  0.00     0.121 C 
HETATM   10  N   UNL     1      41.238 -14.386   1.256  1.00  0.00    -0.059 N 
HETATM   11  C   UNL     1      40.270 -13.512   3.384  1.00  0.00     0.046 C 
HETATM   12  C   UNL     1      41.680 -12.084   1.939  1.00  0.00     0.046 C 
HETATM   13  C   UNL     1      41.445 -15.887   1.309  1.00  0.00     0.121 C 
HETATM   14  H   UNL     1      41.837 -14.030   0.497  1.00  0.00     0.279 HD
HETATM   15  H   UNL     1      40.280 -14.201   0.919  1.00  0.00     0.279 HD
HETATM   16  C   UNL     1      40.232 -16.574   1.943  1.00  0.00     0.046 C 
HETATM   17  C   UNL     1      41.518 -16.353  -0.161  1.00  0.00     0.046 C 
HETATM   18  C   UNL     1      42.777 -16.198   2.003  1.00  0.00     0.063 C 
ENDBRANCH   1   7
BRANCH   3  19
HETATM   19  C   UNL     1      43.946 -19.213   5.043  1.00  0.00     0.072 A 
HETATM   20  C   UNL     1      44.406 -20.100   4.045  1.00  0.00     0.095 A 
HETATM   21  C   UNL     1      44.613 -21.448   4.371  1.00  0.00     0.042 A 
HETATM   22  C   UNL     1      44.386 -21.903   5.672  1.00  0.00     0.045 A 
HETATM   23  C   UNL     1      43.982 -21.008   6.651  1.00  0.00     0.118 A 
HETATM   24  F   UNL     1      43.784 -21.441   7.903  1.00  0.00    -0.206 F 
HETATM   25  C   UNL     1      43.773 -19.667   6.355  1.00  0.00     0.074 A 
BRANCH  20  26
HETATM   26  O   UNL     1      44.732 -19.555   2.826  1.00  0.00    -0.354 OA
HETATM   27  C   UNL     1      43.769 -19.702   1.788  1.00  0.00     0.210 C 
ENDBRANCH  20  26
ENDBRANCH   3  19
TORSDOF 3
ENDMDL
MODEL 9
REMARK VINA RESULT:      -7.1      2.671      4.056
REMARK  3 active torsions:
REMARK  status: ('A' for Active; 'I' for Inactive)
REMARK    1  A    between atoms: C_11  and  N_12 
REMARK       I    between atoms: N_12  and  C_13 
REMARK       I    between atoms: C_13  and  N_14 
REMARK    2  A    between atoms: N_14  and  C_15 
REMARK    3  A    between atoms: C_16  and  O_17 
ROOT
HETATM    1  N   UNL     1      41.871 -15.404   2.241  1.00  0.00    -0.338 N 
HETATM    2  C   UNL     1      42.495 -15.857   3.377  1.00  0.00     0.321 C 
HETATM    3  N   UNL     1      42.670 -17.214   3.434  1.00  0.00    -0.306 N 
HETATM    4  O   UNL     1      42.859 -15.021   4.194  1.00  0.00    -0.247 OA
HETATM    5  H   UNL     1      41.866 -14.392   2.275  1.00  0.00     0.164 HD
HETATM    6  H   UNL     1      43.017 -17.594   2.565  1.00  0.00     0.171 HD
ENDROOT
BRANCH   1   7
HETATM    7  C   UNL     1      40.868 -16.130   1.480  1.00  0.00     0.091 C 
HETATM    8  C   UNL     1      41.197 -16.209  -0.013  1.00  0.00     0.063 C 
HETATM    9  C   UNL     1      40.859 -14.969  -0.857  1.00  0.00     0.121 C 
HETATM   10  N   UNL     1      39.500 -14.424  -0.481  1.00  0.00    -0.059 N 
HETATM   11  C   UNL     1      41.911 -13.857  -0.782  1.00  0.00     0.046 C 
HETATM   12  C   UNL     1      40.754 -15.392  -2.339  1.00  0.00     0.046 C 
HETATM   13  C   UNL     1      39.077 -14.323   0.972  1.00  0.00     0.121 C 
HETATM   14  H   UNL     1      38.797 -15.011  -0.954  1.00  0.00     0.279 HD
HETATM   15  H   UNL     1      39.381 -13.498  -0.920  1.00  0.00     0.279 HD
HETATM   16  C   UNL     1      39.658 -13.058   1.612  1.00  0.00     0.046 C 
HETATM   17  C   UNL     1      37.542 -14.162   0.953  1.00  0.00     0.046 C 
HETATM   18  C   UNL     1      39.439 -15.620   1.705  1.00  0.00     0.063 C 
ENDBRANCH   1   7
BRANCH   3  19
HETATM   19  C   UNL     1      43.112 -17.874   4.608  1.00  0.00     0.072 A 
HETATM   20  C   UNL     1      43.941 -19.016   4.580  1.00  0.00     0.095 A 
HETATM   21  C   UNL     1      44.299 -19.631   5.788  1.00  0.00     0.042 A 
HETATM   22  C   UNL     1      43.858 -19.107   7.006  1.00  0.00     0.045 A 
HETATM   23  C   UNL     1      43.086 -17.955   7.017  1.00  0.00     0.118 A 
HETATM   24  F   UNL     1      42.680 -17.442   8.186  1.00  0.00    -0.206 F 
HETATM   25  C   UNL     1      42.719 -17.325   5.835  1.00  0.00     0.074 A 
BRANCH  20  26
HETATM   26  O   UNL     1      44.442 -19.395   3.358  1.00  0.00    -0.354 OA
HETATM   27  C   UNL     1      44.757 -20.775   3.203  1.00  0.00     0.210 C 
ENDBRANCH  20  26
ENDBRANCH   3  19
TORSDOF 3
ENDMDL
MODEL 10
REMARK VINA RESULT:      -7.1      3.558      7.257
REMARK  3 active torsions:
REMARK  status: ('A' for Active; 'I' for Inactive)
REMARK    1  A    between atoms: C_11  and  N_12 
REMARK       I    between atoms: N_12  and  C_13 
REMARK       I    between atoms: C_13  and  N_14 
REMARK    2  A    between atoms: N_14  and  C_15 
REMARK    3  A    between atoms: C_16  and  O_17 
ROOT
HETATM    1  N   UNL     1      41.598 -16.024   2.171  1.00  0.00    -0.338 N 
HETATM    2  C   UNL     1      40.975 -15.494   1.068  1.00  0.00     0.321 C 
HETATM    3  N   UNL     1      41.738 -15.470  -0.069  1.00  0.00    -0.306 N 
HETATM    4  O   UNL     1      39.811 -15.136   1.195  1.00  0.00    -0.247 OA
HETATM    5  H   UNL     1      40.920 -16.060   2.921  1.00  0.00     0.164 HD
HETATM    6  H   UNL     1      42.228 -16.340  -0.221  1.00  0.00     0.171 HD
ENDROOT
BRANCH   1   7
HETATM    7  C   UNL     1      43.022 -15.950   2.454  1.00  0.00     0.091 C 
HETATM    8  C   UNL     1      43.596 -17.272   2.968  1.00  0.00     0.063 C 
HETATM    9  C   UNL     1      43.372 -17.585   4.456  1.00  0.00     0.121 C 
HETATM   10  N   UNL     1      43.618 -16.356   5.301  1.00  0.00    -0.059 N 
HETATM   11  C   UNL     1      41.992 -18.173   4.771  1.00  0.00     0.046 C 
HETATM   12  C   UNL     1      44.420 -18.628   4.907  1.00  0.00     0.046 C 
HETATM   13  C   UNL     1      43.102 -14.998   4.867  1.00  0.00     0.121 C 
HETATM   14  H   UNL     1      44.638 -16.264   5.413  1.00  0.00     0.279 HD
HETATM   15  H   UNL     1      43.282 -16.540   6.260  1.00  0.00     0.279 HD
HETATM   16  C   UNL     1      41.624 -14.842   5.237  1.00  0.00     0.046 C 
HETATM   17  C   UNL     1      43.893 -13.963   5.696  1.00  0.00     0.046 C 
HETATM   18  C   UNL     1      43.403 -14.786   3.378  1.00  0.00     0.063 C 
ENDBRANCH   1   7
BRANCH   3  19
HETATM   19  C   UNL     1      41.333 -14.784  -1.240  1.00  0.00     0.072 A 
HETATM   20  C   UNL     1      41.562 -13.405  -1.439  1.00  0.00     0.095 A 
HETATM   21  C   UNL     1      41.094 -12.796  -2.612  1.00  0.00     0.042 A 
HETATM   22  C   UNL     1      40.427 -13.549  -3.582  1.00  0.00     0.045 A 
HETATM   23  C   UNL     1      40.255 -14.912  -3.393  1.00  0.00     0.118 A 
HETATM   24  F   UNL     1      39.634 -15.637  -4.332  1.00  0.00    -0.206 F 
HETATM   25  C   UNL     1      40.712 -15.540  -2.241  1.00  0.00     0.074 A 
BRANCH  20  26
HETATM   26  O   UNL     1      42.337 -12.759  -0.506  1.00  0.00    -0.354 OA
HETATM   27  C   UNL     1      41.663 -11.849   0.357  1.00  0.00     0.210 C 
ENDBRANCH  20  26
ENDBRANCH   3  19
TORSDOF 3
ENDMDL
