MODEL 1
REMARK VINA RESULT:      -8.2      0.000      0.000
REMARK  6 active torsions:
REMARK  status: ('A' for Active; 'I' for Inactive)
REMARK    1  A    between atoms: C_4  and  C_5 
REMARK       I    between atoms: C_5  and  N_6 
REMARK    2  A    between atoms: N_6  and  C_7 
REMARK    3  A    between atoms: C_15  and  C_16 
REMARK       I    between atoms: C_16  and  N_17 
REMARK    4  A    between atoms: N_17  and  C_18 
REMARK    5  A    between atoms: C_18  and  C_19 
REMARK    6  A    between atoms: C_19  and  N_20 
ROOT
HETATM    1  C   UNL     1      42.098 -16.385   3.903  1.00  0.00     0.093 A 
HETATM    2  S   UNL     1      41.093 -15.928   2.614  1.00  0.00    -0.075 SA
HETATM    3  C   UNL     1      40.570 -14.538   3.419  1.00  0.00    -0.008 A 
HETATM    4  C   UNL     1      41.174 -14.371   4.653  1.00  0.00    -0.026 A 
HETATM    5  C   UNL     1      40.785 -13.202   5.522  1.00  0.00     0.041 C 
HETATM    6  C   UNL     1      39.446 -12.576   5.105  1.00  0.00     0.005 C 
HETATM    7  C   UNL     1      39.388 -12.346   3.590  1.00  0.00     0.005 C 
HETATM    8  C   UNL     1      39.503 -13.668   2.823  1.00  0.00     0.047 C 
HETATM    9  C   UNL     1      42.134 -15.435   4.924  1.00  0.00     0.073 A 
ENDROOT
BRANCH   1  10
HETATM   10  N   UNL     1      42.720 -17.631   3.898  1.00  0.00    -0.316 N 
HETATM   11  C   UNL     1      43.621 -18.091   2.950  1.00  0.00     0.256 C 
HETATM   12  O   UNL     1      44.230 -17.393   2.146  1.00  0.00    -0.267 OA
HETATM   13  H   UNL     1      42.422 -18.248   4.641  1.00  0.00     0.169 HD
BRANCH  11  14
HETATM   14  C   UNL     1      43.885 -19.568   2.930  1.00  0.00     0.032 A 
HETATM   15  C   UNL     1      43.578 -20.407   1.850  1.00  0.00     0.017 A 
HETATM   16  C   UNL     1      43.891 -21.770   1.905  1.00  0.00     0.001 A 
HETATM   17  C   UNL     1      44.508 -22.305   3.035  1.00  0.00     0.000 A 
HETATM   18  C   UNL     1      44.810 -21.485   4.116  1.00  0.00     0.001 A 
HETATM   19  C   UNL     1      44.499 -20.125   4.065  1.00  0.00     0.017 A 
ENDBRANCH  11  14
ENDBRANCH   1  10
BRANCH   9  20
HETATM   20  C   UNL     1      43.031 -15.602   6.073  1.00  0.00     0.255 C 
HETATM   21  N   UNL     1      42.566 -16.346   7.136  1.00  0.00    -0.355 N 
HETATM   22  H   UNL     1      41.651 -16.766   7.034  1.00  0.00     0.162 HD
HETATM   23  O   UNL     1      44.109 -15.011   6.178  1.00  0.00    -0.268 OA
BRANCH  21  24
HETATM   24  C   UNL     1      43.422 -16.917   8.171  1.00  0.00     0.150 C 
BRANCH  24  25
HETATM   25  C   UNL     1      43.880 -18.376   7.988  1.00  0.00     0.249 C 
BRANCH  25  26
HETATM   26  N   UNL     1      44.306 -18.973   9.278  1.00  0.00    -0.078 N 
HETATM   27  H   UNL     1      45.009 -18.336   9.694  1.00  0.00     0.274 HD
HETATM   28  H   UNL     1      43.539 -19.065   9.953  1.00  0.00     0.274 HD
HETATM   29  H   UNL     1      44.762 -19.885   9.158  1.00  0.00     0.274 HD
ENDBRANCH  25  26
ENDBRANCH  24  25
ENDBRANCH  21  24
ENDBRANCH   9  20
TORSDOF 6
ENDMDL
MODEL 2
REMARK VINA RESULT:      -8.0      2.341      7.477
REMARK  6 active torsions:
REMARK  status: ('A' for Active; 'I' for Inactive)
REMARK    1  A    between atoms: C_4  and  C_5 
REMARK       I    between atoms: C_5  and  N_6 
REMARK    2  A    between atoms: N_6  and  C_7 
REMARK    3  A    between atoms: C_15  and  C_16 
REMARK       I    between atoms: C_16  and  N_17 
REMARK    4  A    between atoms: N_17  and  C_18 
REMARK    5  A    between atoms: C_18  and  C_19 
REMARK    6  A    between atoms: C_19  and  N_20 
ROOT
HETATM    1  C   UNL     1      43.725 -17.967   4.616  1.00  0.00     0.093 A 
HETATM    2  S   UNL     1      44.242 -19.013   5.848  1.00  0.00    -0.075 SA
HETATM    3  C   UNL     1      44.479 -20.288   4.768  1.00  0.00    -0.008 A 
HETATM    4  C   UNL     1      44.214 -19.938   3.455  1.00  0.00    -0.026 A 
HETATM    5  C   UNL     1      44.333 -20.975   2.367  1.00  0.00     0.041 C 
HETATM    6  C   UNL     1      44.321 -22.410   2.915  1.00  0.00     0.005 C 
HETATM    7  C   UNL     1      45.277 -22.559   4.104  1.00  0.00     0.005 C 
HETATM    8  C   UNL     1      44.863 -21.650   5.266  1.00  0.00     0.047 C 
HETATM    9  C   UNL     1      43.824 -18.537   3.347  1.00  0.00     0.073 A 
ENDROOT
BRANCH   1  10
HETATM   10  N   UNL     1      43.197 -16.718   4.933  1.00  0.00    -0.316 N 
HETATM   11  C   UNL     1      41.869 -16.337   4.810  1.00  0.00     0.256 C 
HETATM   12  O   UNL     1      40.916 -17.100   4.689  1.00  0.00    -0.267 OA
HETATM   13  H   UNL     1      43.883 -16.038   5.226  1.00  0.00     0.169 HD
BRANCH  11  14
HETATM   14  C   UNL     1      41.582 -14.865   4.856  1.00  0.00     0.032 A 
HETATM   15  C   UNL     1      42.476 -13.877   4.420  1.00  0.00     0.017 A 
HETATM   16  C   UNL     1      42.111 -12.526   4.469  1.00  0.00     0.001 A 
HETATM   17  C   UNL     1      40.858 -12.152   4.953  1.00  0.00     0.000 A 
HETATM   18  C   UNL     1      39.966 -13.124   5.395  1.00  0.00     0.001 A 
HETATM   19  C   UNL     1      40.327 -14.471   5.349  1.00  0.00     0.017 A 
ENDBRANCH  11  14
ENDBRANCH   1  10
BRANCH   9  20
HETATM   20  C   UNL     1      43.527 -17.749   2.145  1.00  0.00     0.255 C 
HETATM   21  N   UNL     1      42.234 -17.787   1.667  1.00  0.00    -0.355 N 
HETATM   22  H   UNL     1      41.564 -18.322   2.205  1.00  0.00     0.162 HD
HETATM   23  O   UNL     1      44.394 -17.170   1.486  1.00  0.00    -0.268 OA
BRANCH  21  24
HETATM   24  C   UNL     1      41.676 -16.809   0.738  1.00  0.00     0.150 C 
BRANCH  24  25
HETATM   25  C   UNL     1      40.716 -15.752   1.313  1.00  0.00     0.249 C 
BRANCH  25  26
HETATM   26  N   UNL     1      39.557 -16.386   1.987  1.00  0.00    -0.078 N 
HETATM   27  H   UNL     1      39.526 -17.375   1.679  1.00  0.00     0.274 HD
HETATM   28  H   UNL     1      39.634 -16.386   3.010  1.00  0.00     0.274 HD
HETATM   29  H   UNL     1      38.662 -15.961   1.716  1.00  0.00     0.274 HD
ENDBRANCH  25  26
ENDBRANCH  24  25
ENDBRANCH  21  24
ENDBRANCH   9  20
TORSDOF 6
ENDMDL
MODEL 3
REMARK VINA RESULT:      -7.9      2.524      4.744
REMARK  6 active torsions:
REMARK  status: ('A' for Active; 'I' for Inactive)
REMARK    1  A    between atoms: C_4  and  C_5 
REMARK       I    between atoms: C_5  and  N_6 
REMARK    2  A    between atoms: N_6  and  C_7 
REMARK    3  A    between atoms: C_15  and  C_16 
REMARK       I    between atoms: C_16  and  N_17 
REMARK    4  A    between atoms: N_17  and  C_18 
REMARK    5  A    between atoms: C_18  and  C_19 
REMARK    6  A    between atoms: C_19  and  N_20 
ROOT
HETATM    1  C   UNL     1      41.214 -16.504   4.324  1.00  0.00     0.093 A 
HETATM    2  S   UNL     1      40.998 -15.746   5.827  1.00  0.00    -0.075 SA
HETATM    3  C   UNL     1      40.270 -14.394   5.124  1.00  0.00    -0.008 A 
HETATM    4  C   UNL     1      40.138 -14.507   3.750  1.00  0.00    -0.026 A 
HETATM    5  C   UNL     1      39.548 -13.367   2.961  1.00  0.00     0.041 C 
HETATM    6  C   UNL     1      39.560 -12.042   3.738  1.00  0.00     0.005 C 
HETATM    7  C   UNL     1      39.029 -12.228   5.163  1.00  0.00     0.005 C 
HETATM    8  C   UNL     1      39.904 -13.203   5.959  1.00  0.00     0.047 C 
HETATM    9  C   UNL     1      40.641 -15.790   3.272  1.00  0.00     0.073 A 
ENDROOT
BRANCH   1  10
HETATM   10  N   UNL     1      41.965 -17.672   4.231  1.00  0.00    -0.316 N 
HETATM   11  C   UNL     1      43.198 -17.804   3.611  1.00  0.00     0.256 C 
HETATM   12  O   UNL     1      43.948 -16.881   3.311  1.00  0.00    -0.267 OA
HETATM   13  H   UNL     1      41.513 -18.490   4.616  1.00  0.00     0.169 HD
BRANCH  11  14
HETATM   14  C   UNL     1      43.657 -19.200   3.308  1.00  0.00     0.032 A 
HETATM   15  C   UNL     1      44.457 -19.967   4.166  1.00  0.00     0.017 A 
HETATM   16  C   UNL     1      44.811 -21.276   3.818  1.00  0.00     0.001 A 
HETATM   17  C   UNL     1      44.372 -21.827   2.615  1.00  0.00     0.000 A 
HETATM   18  C   UNL     1      43.584 -21.073   1.752  1.00  0.00     0.001 A 
HETATM   19  C   UNL     1      43.231 -19.767   2.095  1.00  0.00     0.017 A 
ENDBRANCH  11  14
ENDBRANCH   1  10
BRANCH   9  20
HETATM   20  C   UNL     1      40.629 -16.339   1.911  1.00  0.00     0.255 C 
HETATM   21  N   UNL     1      40.942 -15.481   0.879  1.00  0.00    -0.355 N 
HETATM   22  H   UNL     1      41.204 -14.537   1.134  1.00  0.00     0.162 HD
HETATM   23  O   UNL     1      40.234 -17.478   1.647  1.00  0.00    -0.268 OA
BRANCH  21  24
HETATM   24  C   UNL     1      41.337 -15.918  -0.457  1.00  0.00     0.150 C 
BRANCH  24  25
HETATM   25  C   UNL     1      40.952 -15.013  -1.642  1.00  0.00     0.249 C 
BRANCH  25  26
HETATM   26  N   UNL     1      41.641 -15.434  -2.886  1.00  0.00    -0.078 N 
HETATM   27  H   UNL     1      41.375 -14.761  -3.627  1.00  0.00     0.274 HD
HETATM   28  H   UNL     1      42.664 -15.414  -2.808  1.00  0.00     0.274 HD
HETATM   29  H   UNL     1      41.346 -16.364  -3.205  1.00  0.00     0.274 HD
ENDBRANCH  25  26
ENDBRANCH  24  25
ENDBRANCH  21  24
ENDBRANCH   9  20
TORSDOF 6
ENDMDL
MODEL 4
REMARK VINA RESULT:      -7.9      1.700      2.225
REMARK  6 active torsions:
REMARK  status: ('A' for Active; 'I' for Inactive)
REMARK    1  A    between atoms: C_4  and  C_5 
REMARK       I    between atoms: C_5  and  N_6 
REMARK    2  A    between atoms: N_6  and  C_7 
REMARK    3  A    between atoms: C_15  and  C_16 
REMARK       I    between atoms: C_16  and  N_17 
REMARK    4  A    between atoms: N_17  and  C_18 
REMARK    5  A    between atoms: C_18  and  C_19 
REMARK    6  A    between atoms: C_19  and  N_20 
ROOT
HETATM    1  C   UNL     1      41.746 -16.465   2.938  1.00  0.00     0.093 A 
HETATM    2  S   UNL     1      40.460 -16.529   1.833  1.00  0.00    -0.075 SA
HETATM    3  C   UNL     1      39.991 -14.943   2.174  1.00  0.00    -0.008 A 
HETATM    4  C   UNL     1      40.818 -14.323   3.095  1.00  0.00    -0.026 A 
HETATM    5  C   UNL     1      40.513 -12.917   3.545  1.00  0.00     0.041 C 
HETATM    6  C   UNL     1      39.066 -12.501   3.242  1.00  0.00     0.005 C 
HETATM    7  C   UNL     1      38.676 -12.854   1.802  1.00  0.00     0.005 C 
HETATM    8  C   UNL     1      38.750 -14.365   1.561  1.00  0.00     0.047 C 
HETATM    9  C   UNL     1      41.905 -15.203   3.509  1.00  0.00     0.073 A 
ENDROOT
BRANCH   1  10
HETATM   10  N   UNL     1      42.463 -17.618   3.245  1.00  0.00    -0.316 N 
HETATM   11  C   UNL     1      43.544 -18.121   2.537  1.00  0.00     0.256 C 
HETATM   12  O   UNL     1      44.217 -17.497   1.722  1.00  0.00    -0.267 OA
HETATM   13  H   UNL     1      42.101 -18.138   4.032  1.00  0.00     0.169 HD
BRANCH  11  14
HETATM   14  C   UNL     1      43.933 -19.543   2.817  1.00  0.00     0.032 A 
HETATM   15  C   UNL     1      44.527 -19.974   4.011  1.00  0.00     0.017 A 
HETATM   16  C   UNL     1      44.827 -21.328   4.200  1.00  0.00     0.001 A 
HETATM   17  C   UNL     1      44.539 -22.259   3.203  1.00  0.00     0.000 A 
HETATM   18  C   UNL     1      43.957 -21.842   2.011  1.00  0.00     0.001 A 
HETATM   19  C   UNL     1      43.658 -20.492   1.818  1.00  0.00     0.017 A 
ENDBRANCH  11  14
ENDBRANCH   1  10
BRANCH   9  20
HETATM   20  C   UNL     1      43.031 -14.922   4.407  1.00  0.00     0.255 C 
HETATM   21  N   UNL     1      42.928 -15.365   5.709  1.00  0.00    -0.355 N 
HETATM   22  H   UNL     1      42.099 -15.894   5.946  1.00  0.00     0.162 HD
HETATM   23  O   UNL     1      43.988 -14.212   4.088  1.00  0.00    -0.268 OA
BRANCH  21  24
HETATM   24  C   UNL     1      44.063 -15.506   6.617  1.00  0.00     0.150 C 
BRANCH  24  25
HETATM   25  C   UNL     1      44.510 -14.255   7.395  1.00  0.00     0.249 C 
BRANCH  25  26
HETATM   26  N   UNL     1      45.662 -13.594   6.735  1.00  0.00    -0.078 N 
HETATM   27  H   UNL     1      46.518 -14.086   7.047  1.00  0.00     0.274 HD
HETATM   28  H   UNL     1      45.630 -13.653   5.711  1.00  0.00     0.274 HD
HETATM   29  H   UNL     1      45.763 -12.611   7.013  1.00  0.00     0.274 HD
ENDBRANCH  25  26
ENDBRANCH  24  25
ENDBRANCH  21  24
ENDBRANCH   9  20
TORSDOF 6
ENDMDL
MODEL 5
REMARK VINA RESULT:      -7.7      1.585      2.190
REMARK  6 active torsions:
REMARK  status: ('A' for Active; 'I' for Inactive)
REMARK    1  A    between atoms: C_4  and  C_5 
REMARK       I    between atoms: C_5  and  N_6 
REMARK    2  A    between atoms: N_6  and  C_7 
REMARK    3  A    between atoms: C_15  and  C_16 
REMARK       I    between atoms: C_16  and  N_17 
REMARK    4  A    between atoms: N_17  and  C_18 
REMARK    5  A    between atoms: C_18  and  C_19 
REMARK    6  A    between atoms: C_19  and  N_20 
ROOT
HETATM    1  C   UNL     1      41.559 -16.497   2.325  1.00  0.00     0.093 A 
HETATM    2  S   UNL     1      41.083 -16.295   0.709  1.00  0.00    -0.075 SA
HETATM    3  C   UNL     1      40.269 -14.855   1.052  1.00  0.00    -0.008 A 
HETATM    4  C   UNL     1      40.376 -14.479   2.379  1.00  0.00    -0.026 A 
HETATM    5  C   UNL     1      39.668 -13.239   2.863  1.00  0.00     0.041 C 
HETATM    6  C   UNL     1      38.559 -12.780   1.905  1.00  0.00     0.005 C 
HETATM    7  C   UNL     1      39.052 -12.759   0.454  1.00  0.00     0.005 C 
HETATM    8  C   UNL     1      39.471 -14.158  -0.010  1.00  0.00     0.047 C 
HETATM    9  C   UNL     1      41.197 -15.419   3.134  1.00  0.00     0.073 A 
ENDROOT
BRANCH   1  10
HETATM   10  N   UNL     1      42.171 -17.679   2.733  1.00  0.00    -0.316 N 
HETATM   11  C   UNL     1      43.463 -18.079   2.427  1.00  0.00     0.256 C 
HETATM   12  O   UNL     1      44.356 -17.348   2.011  1.00  0.00    -0.267 OA
HETATM   13  H   UNL     1      41.568 -18.302   3.253  1.00  0.00     0.169 HD
BRANCH  11  14
HETATM   14  C   UNL     1      43.794 -19.525   2.652  1.00  0.00     0.032 A 
HETATM   15  C   UNL     1      43.509 -20.548   1.736  1.00  0.00     0.017 A 
HETATM   16  C   UNL     1      43.884 -21.867   2.015  1.00  0.00     0.001 A 
HETATM   17  C   UNL     1      44.541 -22.176   3.205  1.00  0.00     0.000 A 
HETATM   18  C   UNL     1      44.820 -21.171   4.125  1.00  0.00     0.001 A 
HETATM   19  C   UNL     1      44.447 -19.855   3.851  1.00  0.00     0.017 A 
ENDBRANCH  11  14
ENDBRANCH   1  10
BRANCH   9  20
HETATM   20  C   UNL     1      41.617 -15.361   4.539  1.00  0.00     0.255 C 
HETATM   21  N   UNL     1      42.917 -14.984   4.796  1.00  0.00    -0.355 N 
HETATM   22  H   UNL     1      43.484 -14.728   3.997  1.00  0.00     0.162 HD
HETATM   23  O   UNL     1      40.908 -15.751   5.471  1.00  0.00    -0.268 OA
BRANCH  21  24
HETATM   24  C   UNL     1      43.393 -14.520   6.096  1.00  0.00     0.150 C 
BRANCH  24  25
HETATM   25  C   UNL     1      44.080 -15.552   7.009  1.00  0.00     0.249 C 
BRANCH  25  26
HETATM   26  N   UNL     1      43.087 -16.443   7.658  1.00  0.00    -0.078 N 
HETATM   27  H   UNL     1      43.023 -17.302   7.083  1.00  0.00     0.274 HD
HETATM   28  H   UNL     1      43.357 -16.728   8.606  1.00  0.00     0.274 HD
HETATM   29  H   UNL     1      42.147 -16.031   7.685  1.00  0.00     0.274 HD
ENDBRANCH  25  26
ENDBRANCH  24  25
ENDBRANCH  21  24
ENDBRANCH   9  20
TORSDOF 6
ENDMDL
MODEL 6
REMARK VINA RESULT:      -7.6      3.497      6.468
REMARK  6 active torsions:
REMARK  status: ('A' for Active; 'I' for Inactive)
REMARK    1  A    between atoms: C_4  and  C_5 
REMARK       I    between atoms: C_5  and  N_6 
REMARK    2  A    between atoms: N_6  and  C_7 
REMARK    3  A    between atoms: C_15  and  C_16 
REMARK       I    between atoms: C_16  and  N_17 
REMARK    4  A    between atoms: N_17  and  C_18 
REMARK    5  A    between atoms: C_18  and  C_19 
REMARK    6  A    between atoms: C_19  and  N_20 
ROOT
HETATM    1  C   UNL     1      43.020 -16.830   1.834  1.00  0.00     0.093 A 
HETATM    2  S   UNL     1      43.415 -18.458   1.566  1.00  0.00    -0.075 SA
HETATM    3  C   UNL     1      43.844 -18.697   3.182  1.00  0.00    -0.008 A 
HETATM    4  C   UNL     1      43.657 -17.567   3.961  1.00  0.00    -0.026 A 
HETATM    5  C   UNL     1      44.034 -17.596   5.420  1.00  0.00     0.041 C 
HETATM    6  C   UNL     1      44.983 -18.754   5.762  1.00  0.00     0.005 C 
HETATM    7  C   UNL     1      44.488 -20.075   5.162  1.00  0.00     0.005 C 
HETATM    8  C   UNL     1      44.430 -20.002   3.632  1.00  0.00     0.047 C 
HETATM    9  C   UNL     1      43.106 -16.467   3.178  1.00  0.00     0.073 A 
ENDROOT
BRANCH   1  10
HETATM   10  N   UNL     1      42.730 -15.994   0.759  1.00  0.00    -0.316 N 
HETATM   11  C   UNL     1      41.465 -15.620   0.332  1.00  0.00     0.256 C 
HETATM   12  O   UNL     1      40.433 -15.718   0.988  1.00  0.00    -0.267 OA
HETATM   13  H   UNL     1      43.540 -15.694   0.234  1.00  0.00     0.169 HD
BRANCH  11  14
HETATM   14  C   UNL     1      41.364 -15.023  -1.041  1.00  0.00     0.032 A 
HETATM   15  C   UNL     1      40.871 -15.707  -2.161  1.00  0.00     0.017 A 
HETATM   16  C   UNL     1      40.782 -15.060  -3.399  1.00  0.00     0.001 A 
HETATM   17  C   UNL     1      41.183 -13.731  -3.529  1.00  0.00     0.000 A 
HETATM   18  C   UNL     1      41.682 -13.045  -2.427  1.00  0.00     0.001 A 
HETATM   19  C   UNL     1      41.773 -13.687  -1.191  1.00  0.00     0.017 A 
ENDBRANCH  11  14
ENDBRANCH   1  10
BRANCH   9  20
HETATM   20  C   UNL     1      42.698 -15.129   3.621  1.00  0.00     0.255 C 
HETATM   21  N   UNL     1      41.348 -14.896   3.771  1.00  0.00    -0.355 N 
HETATM   22  H   UNL     1      40.729 -15.680   3.607  1.00  0.00     0.162 HD
HETATM   23  O   UNL     1      43.487 -14.187   3.739  1.00  0.00    -0.268 OA
BRANCH  21  24
HETATM   24  C   UNL     1      40.789 -13.786   4.536  1.00  0.00     0.150 C 
BRANCH  24  25
HETATM   25  C   UNL     1      40.213 -14.102   5.928  1.00  0.00     0.249 C 
BRANCH  25  26
HETATM   26  N   UNL     1      39.901 -15.546   6.067  1.00  0.00    -0.078 N 
HETATM   27  H   UNL     1      40.389 -15.885   6.915  1.00  0.00     0.274 HD
HETATM   28  H   UNL     1      38.900 -15.733   6.194  1.00  0.00     0.274 HD
HETATM   29  H   UNL     1      40.250 -16.102   5.277  1.00  0.00     0.274 HD
ENDBRANCH  25  26
ENDBRANCH  24  25
ENDBRANCH  21  24
ENDBRANCH   9  20
TORSDOF 6
ENDMDL
MODEL 7
REMARK VINA RESULT:      -7.6      2.411      6.430
REMARK  6 active torsions:
REMARK  status: ('A' for Active; 'I' for Inactive)
REMARK    1  A    between atoms: C_4  and  C_5 
REMARK       I    between atoms: C_5  and  N_6 
REMARK    2  A    between atoms: N_6  and  C_7 
REMARK    3  A    between atoms: C_15  and  C_16 
REMARK       I    between atoms: C_16  and  N_17 
REMARK    4  A    between atoms: N_17  and  C_18 
REMARK    5  A    between atoms: C_18  and  C_19 
REMARK    6  A    between atoms: C_19  and  N_20 
ROOT
HETATM    1  C   UNL     1      43.273 -18.095   2.636  1.00  0.00     0.093 A 
HETATM    2  S   UNL     1      43.485 -19.412   1.587  1.00  0.00    -0.075 SA
HETATM    3  C   UNL     1      43.991 -20.424   2.840  1.00  0.00    -0.008 A 
HETATM    4  C   UNL     1      43.970 -19.802   4.077  1.00  0.00    -0.026 A 
HETATM    5  C   UNL     1      44.436 -20.553   5.298  1.00  0.00     0.041 C 
HETATM    6  C   UNL     1      45.285 -21.784   4.946  1.00  0.00     0.005 C 
HETATM    7  C   UNL     1      44.622 -22.620   3.846  1.00  0.00     0.005 C 
HETATM    8  C   UNL     1      44.472 -21.815   2.551  1.00  0.00     0.047 C 
HETATM    9  C   UNL     1      43.482 -18.431   3.974  1.00  0.00     0.073 A 
ENDROOT
BRANCH   1  10
HETATM   10  N   UNL     1      42.999 -16.830   2.125  1.00  0.00    -0.316 N 
HETATM   11  C   UNL     1      41.741 -16.310   1.859  1.00  0.00     0.256 C 
HETATM   12  O   UNL     1      40.681 -16.750   2.293  1.00  0.00    -0.267 OA
HETATM   13  H   UNL     1      43.819 -16.288   1.891  1.00  0.00     0.169 HD
BRANCH  11  14
HETATM   14  C   UNL     1      41.684 -15.092   0.985  1.00  0.00     0.032 A 
HETATM   15  C   UNL     1      41.986 -13.795   1.425  1.00  0.00     0.017 A 
HETATM   16  C   UNL     1      41.939 -12.719   0.531  1.00  0.00     0.001 A 
HETATM   17  C   UNL     1      41.590 -12.927  -0.803  1.00  0.00     0.000 A 
HETATM   18  C   UNL     1      41.281 -14.208  -1.249  1.00  0.00     0.001 A 
HETATM   19  C   UNL     1      41.325 -15.283  -0.360  1.00  0.00     0.017 A 
ENDBRANCH  11  14
ENDBRANCH   1  10
BRANCH   9  20
HETATM   20  C   UNL     1      43.240 -17.453   5.040  1.00  0.00     0.255 C 
HETATM   21  N   UNL     1      42.445 -17.850   6.094  1.00  0.00    -0.355 N 
HETATM   22  H   UNL     1      42.118 -18.807   6.084  1.00  0.00     0.162 HD
HETATM   23  O   UNL     1      43.604 -16.276   4.971  1.00  0.00    -0.268 OA
BRANCH  21  24
HETATM   24  C   UNL     1      42.399 -17.169   7.385  1.00  0.00     0.150 C 
BRANCH  24  25
HETATM   25  C   UNL     1      43.569 -17.411   8.357  1.00  0.00     0.249 C 
BRANCH  25  26
HETATM   26  N   UNL     1      43.901 -18.854   8.452  1.00  0.00    -0.078 N 
HETATM   27  H   UNL     1      43.086 -19.381   8.091  1.00  0.00     0.274 HD
HETATM   28  H   UNL     1      44.714 -19.120   7.885  1.00  0.00     0.274 HD
HETATM   29  H   UNL     1      44.050 -19.160   9.420  1.00  0.00     0.274 HD
ENDBRANCH  25  26
ENDBRANCH  24  25
ENDBRANCH  21  24
ENDBRANCH   9  20
TORSDOF 6
ENDMDL
MODEL 8
REMARK VINA RESULT:      -7.5      2.598      7.794
REMARK  6 active torsions:
REMARK  status: ('A' for Active; 'I' for Inactive)
REMARK    1  A    between atoms: C_4  and  C_5 
REMARK       I    between atoms: C_5  and  N_6 
REMARK    2  A    between atoms: N_6  and  C_7 
REMARK    3  A    between atoms: C_15  and  C_16 
REMARK       I    between atoms: C_16  and  N_17 
REMARK    4  A    between atoms: N_17  and  C_18 
REMARK    5  A    between atoms: C_18  and  C_19 
REMARK    6  A    between atoms: C_19  and  N_20 
ROOT
HETATM    1  C   UNL     1      42.381 -16.791   4.093  1.00  0.00     0.093 A 
HETATM    2  S   UNL     1      43.540 -17.522   5.094  1.00  0.00    -0.075 SA
HETATM    3  C   UNL     1      43.813 -18.771   3.990  1.00  0.00    -0.008 A 
HETATM    4  C   UNL     1      43.068 -18.637   2.830  1.00  0.00    -0.026 A 
HETATM    5  C   UNL     1      43.159 -19.693   1.758  1.00  0.00     0.041 C 
HETATM    6  C   UNL     1      43.750 -21.012   2.278  1.00  0.00     0.005 C 
HETATM    7  C   UNL     1      45.020 -20.767   3.100  1.00  0.00     0.005 C 
HETATM    8  C   UNL     1      44.724 -19.911   4.336  1.00  0.00     0.047 C 
HETATM    9  C   UNL     1      42.258 -17.425   2.856  1.00  0.00     0.073 A 
ENDROOT
BRANCH   1  10
HETATM   10  N   UNL     1      41.621 -15.724   4.565  1.00  0.00    -0.316 N 
HETATM   11  C   UNL     1      41.954 -14.381   4.476  1.00  0.00     0.256 C 
HETATM   12  O   UNL     1      42.800 -13.903   3.727  1.00  0.00    -0.267 OA
HETATM   13  H   UNL     1      40.783 -15.996   5.059  1.00  0.00     0.169 HD
BRANCH  11  14
HETATM   14  C   UNL     1      41.189 -13.436   5.357  1.00  0.00     0.032 A 
HETATM   15  C   UNL     1      39.837 -13.593   5.690  1.00  0.00     0.017 A 
HETATM   16  C   UNL     1      39.211 -12.680   6.546  1.00  0.00     0.001 A 
HETATM   17  C   UNL     1      39.927 -11.606   7.073  1.00  0.00     0.000 A 
HETATM   18  C   UNL     1      41.267 -11.435   6.743  1.00  0.00     0.001 A 
HETATM   19  C   UNL     1      41.894 -12.343   5.888  1.00  0.00     0.017 A 
ENDBRANCH  11  14
ENDBRANCH   1  10
BRANCH   9  20
HETATM   20  C   UNL     1      41.384 -16.873   1.814  1.00  0.00     0.255 C 
HETATM   21  N   UNL     1      41.991 -16.244   0.747  1.00  0.00    -0.355 N 
HETATM   22  H   UNL     1      43.002 -16.245   0.732  1.00  0.00     0.162 HD
HETATM   23  O   UNL     1      40.155 -16.835   1.915  1.00  0.00    -0.268 OA
BRANCH  21  24
HETATM   24  C   UNL     1      41.330 -15.974  -0.526  1.00  0.00     0.150 C 
BRANCH  24  25
HETATM   25  C   UNL     1      40.668 -14.596  -0.704  1.00  0.00     0.249 C 
BRANCH  25  26
HETATM   26  N   UNL     1      39.317 -14.563  -0.092  1.00  0.00    -0.078 N 
HETATM   27  H   UNL     1      39.134 -13.586   0.196  1.00  0.00     0.274 HD
HETATM   28  H   UNL     1      38.572 -14.836  -0.743  1.00  0.00     0.274 HD
HETATM   29  H   UNL     1      39.254 -15.142   0.753  1.00  0.00     0.274 HD
ENDBRANCH  25  26
ENDBRANCH  24  25
ENDBRANCH  21  24
ENDBRANCH   9  20
TORSDOF 6
ENDMDL
MODEL 9
REMARK VINA RESULT:      -7.4      2.296      3.263
REMARK  6 active torsions:
REMARK  status: ('A' for Active; 'I' for Inactive)
REMARK    1  A    between atoms: C_4  and  C_5 
REMARK       I    between atoms: C_5  and  N_6 
REMARK    2  A    between atoms: N_6  and  C_7 
REMARK    3  A    between atoms: C_15  and  C_16 
REMARK       I    between atoms: C_16  and  N_17 
REMARK    4  A    between atoms: N_17  and  C_18 
REMARK    5  A    between atoms: C_18  and  C_19 
REMARK    6  A    between atoms: C_19  and  N_20 
ROOT
HETATM    1  C   UNL     1      41.630 -16.119   1.552  1.00  0.00     0.093 A 
HETATM    2  S   UNL     1      41.402 -16.133  -0.130  1.00  0.00    -0.075 SA
HETATM    3  C   UNL     1      40.473 -14.723  -0.090  1.00  0.00    -0.008 A 
HETATM    4  C   UNL     1      40.353 -14.193   1.183  1.00  0.00    -0.026 A 
HETATM    5  C   UNL     1      39.518 -12.957   1.401  1.00  0.00     0.041 C 
HETATM    6  C   UNL     1      38.550 -12.686   0.240  1.00  0.00     0.005 C 
HETATM    7  C   UNL     1      39.261 -12.795  -1.114  1.00  0.00     0.005 C 
HETATM    8  C   UNL     1      39.817 -14.206  -1.336  1.00  0.00     0.047 C 
HETATM    9  C   UNL     1      41.093 -14.984   2.160  1.00  0.00     0.073 A 
ENDROOT
BRANCH   1  10
HETATM   10  N   UNL     1      42.228 -17.203   2.187  1.00  0.00    -0.316 N 
HETATM   11  C   UNL     1      43.546 -17.610   2.043  1.00  0.00     0.256 C 
HETATM   12  O   UNL     1      44.456 -16.930   1.579  1.00  0.00    -0.267 OA
HETATM   13  H   UNL     1      41.599 -17.752   2.756  1.00  0.00     0.169 HD
BRANCH  11  14
HETATM   14  C   UNL     1      43.883 -18.992   2.521  1.00  0.00     0.032 A 
HETATM   15  C   UNL     1      44.409 -19.277   3.788  1.00  0.00     0.017 A 
HETATM   16  C   UNL     1      44.663 -20.602   4.163  1.00  0.00     0.001 A 
HETATM   17  C   UNL     1      44.398 -21.647   3.280  1.00  0.00     0.000 A 
HETATM   18  C   UNL     1      43.884 -21.375   2.016  1.00  0.00     0.001 A 
HETATM   19  C   UNL     1      43.630 -20.056   1.638  1.00  0.00     0.017 A 
ENDBRANCH  11  14
ENDBRANCH   1  10
BRANCH   9  20
HETATM   20  C   UNL     1      41.285 -14.739   3.594  1.00  0.00     0.255 C 
HETATM   21  N   UNL     1      40.316 -15.212   4.452  1.00  0.00    -0.355 N 
HETATM   22  H   UNL     1      39.556 -15.737   4.038  1.00  0.00     0.162 HD
HETATM   23  O   UNL     1      42.192 -14.033   4.042  1.00  0.00    -0.268 OA
BRANCH  21  24
HETATM   24  C   UNL     1      40.511 -15.389   5.889  1.00  0.00     0.150 C 
BRANCH  24  25
HETATM   25  C   UNL     1      40.667 -16.829   6.411  1.00  0.00     0.249 C 
BRANCH  25  26
HETATM   26  N   UNL     1      40.701 -17.806   5.296  1.00  0.00    -0.078 N 
HETATM   27  H   UNL     1      40.205 -18.657   5.617  1.00  0.00     0.274 HD
HETATM   28  H   UNL     1      40.222 -17.473   4.451  1.00  0.00     0.274 HD
HETATM   29  H   UNL     1      41.656 -18.092   5.051  1.00  0.00     0.274 HD
ENDBRANCH  25  26
ENDBRANCH  24  25
ENDBRANCH  21  24
ENDBRANCH   9  20
TORSDOF 6
ENDMDL
MODEL 10
REMARK VINA RESULT:      -7.3      1.827      6.648
REMARK  6 active torsions:
REMARK  status: ('A' for Active; 'I' for Inactive)
REMARK    1  A    between atoms: C_4  and  C_5 
REMARK       I    between atoms: C_5  and  N_6 
REMARK    2  A    between atoms: N_6  and  C_7 
REMARK    3  A    between atoms: C_15  and  C_16 
REMARK       I    between atoms: C_16  and  N_17 
REMARK    4  A    between atoms: N_17  and  C_18 
REMARK    5  A    between atoms: C_18  and  C_19 
REMARK    6  A    between atoms: C_19  and  N_20 
ROOT
HETATM    1  C   UNL     1      42.132 -17.082   3.310  1.00  0.00     0.093 A 
HETATM    2  S   UNL     1      42.173 -18.017   1.895  1.00  0.00    -0.075 SA
HETATM    3  C   UNL     1      43.152 -19.192   2.612  1.00  0.00    -0.008 A 
HETATM    4  C   UNL     1      43.431 -18.923   3.941  1.00  0.00    -0.026 A 
HETATM    5  C   UNL     1      44.331 -19.850   4.717  1.00  0.00     0.041 C 
HETATM    6  C   UNL     1      45.175 -20.754   3.806  1.00  0.00     0.005 C 
HETATM    7  C   UNL     1      44.316 -21.398   2.713  1.00  0.00     0.005 C 
HETATM    8  C   UNL     1      43.686 -20.337   1.804  1.00  0.00     0.047 C 
HETATM    9  C   UNL     1      42.775 -17.698   4.384  1.00  0.00     0.073 A 
ENDROOT
BRANCH   1  10
HETATM   10  N   UNL     1      41.566 -15.810   3.293  1.00  0.00    -0.316 N 
HETATM   11  C   UNL     1      42.226 -14.617   3.551  1.00  0.00     0.256 C 
HETATM   12  O   UNL     1      43.443 -14.460   3.544  1.00  0.00    -0.267 OA
HETATM   13  H   UNL     1      40.570 -15.799   3.125  1.00  0.00     0.169 HD
BRANCH  11  14
HETATM   14  C   UNL     1      41.370 -13.419   3.835  1.00  0.00     0.032 A 
HETATM   15  C   UNL     1      40.013 -13.326   3.497  1.00  0.00     0.017 A 
HETATM   16  C   UNL     1      39.280 -12.180   3.831  1.00  0.00     0.001 A 
HETATM   17  C   UNL     1      39.894 -11.123   4.501  1.00  0.00     0.000 A 
HETATM   18  C   UNL     1      41.242 -11.201   4.835  1.00  0.00     0.001 A 
HETATM   19  C   UNL     1      41.976 -12.341   4.502  1.00  0.00     0.017 A 
ENDBRANCH  11  14
ENDBRANCH   1  10
BRANCH   9  20
HETATM   20  C   UNL     1      42.751 -17.093   5.721  1.00  0.00     0.255 C 
HETATM   21  N   UNL     1      43.919 -16.522   6.178  1.00  0.00    -0.355 N 
HETATM   22  H   UNL     1      44.706 -16.519   5.541  1.00  0.00     0.162 HD
HETATM   23  O   UNL     1      41.787 -17.185   6.485  1.00  0.00    -0.268 OA
BRANCH  21  24
HETATM   24  C   UNL     1      43.987 -15.573   7.286  1.00  0.00     0.150 C 
BRANCH  24  25
HETATM   25  C   UNL     1      44.554 -14.174   6.989  1.00  0.00     0.249 C 
BRANCH  25  26
HETATM   26  N   UNL     1      44.379 -13.264   8.147  1.00  0.00    -0.078 N 
HETATM   27  H   UNL     1      45.097 -13.517   8.848  1.00  0.00     0.274 HD
HETATM   28  H   UNL     1      44.518 -12.275   7.909  1.00  0.00     0.274 HD
HETATM   29  H   UNL     1      43.465 -13.376   8.601  1.00  0.00     0.274 HD
ENDBRANCH  25  26
ENDBRANCH  24  25
ENDBRANCH  21  24
ENDBRANCH   9  20
TORSDOF 6
ENDMDL
