MODEL 1
REMARK VINA RESULT:      -9.8      0.000      0.000
REMARK  5 active torsions:
REMARK  status: ('A' for Active; 'I' for Inactive)
REMARK    1  A    between atoms: C_5  and  C_6 
REMARK    2  A    between atoms: C_10  and  C_11 
REMARK       I    between atoms: C_11  and  N_12 
REMARK    3  A    between atoms: N_12  and  N_13 
REMARK       I    between atoms: N_13  and  C_14 
REMARK       I    between atoms: C_14  and  N_15 
REMARK    4  A    between atoms: N_15  and  C_16 
REMARK    5  A    between atoms: C_16  and  C_17 
ROOT
HETATM    1  C   UNL     1      40.221 -14.425   5.290  1.00  0.00     0.288 C 
HETATM    2  N   UNL     1      40.027 -14.099   6.623  1.00  0.00    -0.261 N 
HETATM    3  O   UNL     1      39.604 -13.864   4.385  1.00  0.00    -0.264 OA
HETATM    4  H   UNL     1      40.741 -14.328   7.307  1.00  0.00     0.190 HD
ENDROOT
BRANCH   2   5
HETATM    5  N   UNL     1      39.275 -12.944   6.881  1.00  0.00    -0.249 N 
HETATM    6  C   UNL     1      39.817 -11.745   7.257  1.00  0.00     0.334 C 
HETATM    7  N   UNL     1      41.178 -11.770   7.456  1.00  0.00    -0.341 N 
HETATM    8  O   UNL     1      39.118 -10.747   7.389  1.00  0.00    -0.246 OA
HETATM    9  H   UNL     1      41.483 -12.661   7.821  1.00  0.00     0.164 HD
HETATM   10  H   UNL     1      38.263 -13.008   6.792  1.00  0.00     0.192 HD
BRANCH   7  11
HETATM   11  C   UNL     1      41.811 -10.586   8.005  1.00  0.00     0.129 C 
BRANCH  11  12
HETATM   12  C   UNL     1      42.296 -10.728   9.454  1.00  0.00     0.004 C 
HETATM   13  C   UNL     1      42.091  -9.439  10.266  1.00  0.00     0.010 C 
HETATM   14  C   UNL     1      42.490  -9.644  11.735  1.00  0.00    -0.018 C 
HETATM   15  C   UNL     1      42.304  -8.356  12.534  1.00  0.00     0.010 C 
HETATM   16  C   UNL     1      43.936 -10.148  11.845  1.00  0.00     0.004 C 
HETATM   17  C   UNL     1      44.164 -11.407  11.011  1.00  0.00     0.001 C 
HETATM   18  C   UNL     1      43.751 -11.204   9.554  1.00  0.00     0.006 C 
ENDBRANCH  11  12
ENDBRANCH   7  11
ENDBRANCH   2   5
BRANCH   1  19
HETATM   19  C   UNL     1      41.214 -15.429   5.025  1.00  0.00     0.121 A 
HETATM   20  N   UNL     1      42.454 -15.365   5.596  1.00  0.00    -0.272 N 
HETATM   21  N   UNL     1      43.273 -16.364   5.243  1.00  0.00    -0.174 NA
HETATM   22  H   UNL     1      42.795 -14.652   6.234  1.00  0.00     0.189 HD
HETATM   23  C   UNL     1      42.548 -17.125   4.410  1.00  0.00     0.089 A 
HETATM   24  C   UNL     1      41.244 -16.570   4.247  1.00  0.00     0.071 A 
BRANCH  23  25
HETATM   25  C   UNL     1      43.108 -18.330   3.790  1.00  0.00    -0.006 A 
HETATM   26  C   UNL     1      44.074 -19.107   4.446  1.00  0.00     0.014 A 
HETATM   27  C   UNL     1      44.588 -20.263   3.849  1.00  0.00     0.007 A 
HETATM   28  C   UNL     1      44.156 -20.661   2.580  1.00  0.00    -0.062 A 
HETATM   29  C   UNL     1      44.676 -21.918   1.947  1.00  0.00     0.048 C 
HETATM   30  C   UNL     1      43.191 -19.893   1.921  1.00  0.00     0.007 A 
HETATM   31  C   UNL     1      42.679 -18.737   2.519  1.00  0.00     0.014 A 
ENDBRANCH  23  25
ENDBRANCH   1  19
TORSDOF 5
ENDMDL
MODEL 2
REMARK VINA RESULT:      -9.6      1.216      1.362
REMARK  5 active torsions:
REMARK  status: ('A' for Active; 'I' for Inactive)
REMARK    1  A    between atoms: C_5  and  C_6 
REMARK    2  A    between atoms: C_10  and  C_11 
REMARK       I    between atoms: C_11  and  N_12 
REMARK    3  A    between atoms: N_12  and  N_13 
REMARK       I    between atoms: N_13  and  C_14 
REMARK       I    between atoms: C_14  and  N_15 
REMARK    4  A    between atoms: N_15  and  C_16 
REMARK    5  A    between atoms: C_16  and  C_17 
ROOT
HETATM    1  C   UNL     1      40.124 -13.717   5.468  1.00  0.00     0.288 C 
HETATM    2  N   UNL     1      40.098 -13.114   6.716  1.00  0.00    -0.261 N 
HETATM    3  O   UNL     1      39.465 -13.288   4.522  1.00  0.00    -0.264 OA
HETATM    4  H   UNL     1      40.857 -13.275   7.370  1.00  0.00     0.190 HD
ENDROOT
BRANCH   2   5
HETATM    5  N   UNL     1      39.478 -11.858   6.790  1.00  0.00    -0.249 N 
HETATM    6  C   UNL     1      39.527 -11.043   7.888  1.00  0.00     0.334 C 
HETATM    7  N   UNL     1      40.167 -11.588   8.977  1.00  0.00    -0.341 N 
HETATM    8  O   UNL     1      39.036  -9.921   7.866  1.00  0.00    -0.246 OA
HETATM    9  H   UNL     1      40.027 -12.587   9.026  1.00  0.00     0.164 HD
HETATM   10  H   UNL     1      38.952 -11.541   5.978  1.00  0.00     0.192 HD
BRANCH   7  11
HETATM   11  C   UNL     1      40.128 -10.859  10.230  1.00  0.00     0.129 C 
BRANCH  11  12
HETATM   12  C   UNL     1      41.422 -10.920  11.052  1.00  0.00     0.004 C 
HETATM   13  C   UNL     1      41.218 -10.441  12.498  1.00  0.00     0.010 C 
HETATM   14  C   UNL     1      42.504 -10.611  13.321  1.00  0.00    -0.018 C 
HETATM   15  C   UNL     1      42.303 -10.115  14.752  1.00  0.00     0.010 C 
HETATM   16  C   UNL     1      43.680  -9.885  12.655  1.00  0.00     0.004 C 
HETATM   17  C   UNL     1      43.870 -10.323  11.204  1.00  0.00     0.001 C 
HETATM   18  C   UNL     1      42.586 -10.167  10.393  1.00  0.00     0.006 C 
ENDBRANCH  11  12
ENDBRANCH   7  11
ENDBRANCH   2   5
BRANCH   1  19
HETATM   19  C   UNL     1      40.994 -14.853   5.337  1.00  0.00     0.121 A 
HETATM   20  N   UNL     1      41.870 -15.191   6.329  1.00  0.00    -0.272 N 
HETATM   21  N   UNL     1      42.623 -16.263   6.056  1.00  0.00    -0.174 NA
HETATM   22  H   UNL     1      41.997 -14.715   7.219  1.00  0.00     0.189 HD
HETATM   23  C   UNL     1      42.230 -16.657   4.835  1.00  0.00     0.089 A 
HETATM   24  C   UNL     1      41.204 -15.795   4.348  1.00  0.00     0.071 A 
BRANCH  23  25
HETATM   25  C   UNL     1      42.839 -17.814   4.170  1.00  0.00    -0.006 A 
HETATM   26  C   UNL     1      43.777 -18.622   4.827  1.00  0.00     0.014 A 
HETATM   27  C   UNL     1      44.339 -19.732   4.185  1.00  0.00     0.007 A 
HETATM   28  C   UNL     1      43.981 -20.051   2.871  1.00  0.00    -0.062 A 
HETATM   29  C   UNL     1      44.551 -21.258   2.188  1.00  0.00     0.048 C 
HETATM   30  C   UNL     1      43.043 -19.250   2.212  1.00  0.00     0.007 A 
HETATM   31  C   UNL     1      42.484 -18.141   2.854  1.00  0.00     0.014 A 
ENDBRANCH  23  25
ENDBRANCH   1  19
TORSDOF 5
ENDMDL
MODEL 3
REMARK VINA RESULT:      -9.4      1.323      2.251
REMARK  5 active torsions:
REMARK  status: ('A' for Active; 'I' for Inactive)
REMARK    1  A    between atoms: C_5  and  C_6 
REMARK    2  A    between atoms: C_10  and  C_11 
REMARK       I    between atoms: C_11  and  N_12 
REMARK    3  A    between atoms: N_12  and  N_13 
REMARK       I    between atoms: N_13  and  C_14 
REMARK       I    between atoms: C_14  and  N_15 
REMARK    4  A    between atoms: N_15  and  C_16 
REMARK    5  A    between atoms: C_16  and  C_17 
ROOT
HETATM    1  C   UNL     1      40.324 -14.647   5.652  1.00  0.00     0.288 C 
HETATM    2  N   UNL     1      40.073 -13.851   6.759  1.00  0.00    -0.261 N 
HETATM    3  O   UNL     1      39.753 -14.467   4.577  1.00  0.00    -0.264 OA
HETATM    4  H   UNL     1      40.753 -13.804   7.511  1.00  0.00     0.190 HD
ENDROOT
BRANCH   2   5
HETATM    5  N   UNL     1      39.321 -12.689   6.536  1.00  0.00    -0.249 N 
HETATM    6  C   UNL     1      39.556 -11.493   7.158  1.00  0.00     0.334 C 
HETATM    7  N   UNL     1      40.549 -11.529   8.110  1.00  0.00    -0.341 N 
HETATM    8  O   UNL     1      38.919 -10.489   6.862  1.00  0.00    -0.246 OA
HETATM    9  H   UNL     1      40.577 -12.421   8.582  1.00  0.00     0.164 HD
HETATM   10  H   UNL     1      38.547 -12.744   5.876  1.00  0.00     0.192 HD
BRANCH   7  11
HETATM   11  C   UNL     1      40.757 -10.349   8.927  1.00  0.00     0.129 C 
BRANCH  11  12
HETATM   12  C   UNL     1      42.102 -10.304   9.663  1.00  0.00     0.004 C 
HETATM   13  C   UNL     1      43.182 -11.139   8.957  1.00  0.00     0.010 C 
HETATM   14  C   UNL     1      44.540 -10.992   9.660  1.00  0.00    -0.018 C 
HETATM   15  C   UNL     1      45.605 -11.839   8.967  1.00  0.00     0.010 C 
HETATM   16  C   UNL     1      44.431 -11.364  11.145  1.00  0.00     0.004 C 
HETATM   17  C   UNL     1      43.334 -10.568  11.851  1.00  0.00     0.001 C 
HETATM   18  C   UNL     1      41.989 -10.705  11.141  1.00  0.00     0.006 C 
ENDBRANCH  11  12
ENDBRANCH   7  11
ENDBRANCH   2   5
BRANCH   1  19
HETATM   19  C   UNL     1      41.317 -15.670   5.825  1.00  0.00     0.121 A 
HETATM   20  N   UNL     1      42.388 -15.483   6.653  1.00  0.00    -0.272 N 
HETATM   21  N   UNL     1      43.234 -16.519   6.700  1.00  0.00    -0.174 NA
HETATM   22  H   UNL     1      42.591 -14.657   7.210  1.00  0.00     0.189 HD
HETATM   23  C   UNL     1      42.703 -17.433   5.874  1.00  0.00     0.089 A 
HETATM   24  C   UNL     1      41.495 -16.937   5.303  1.00  0.00     0.071 A 
BRANCH  23  25
HETATM   25  C   UNL     1      43.356 -18.726   5.641  1.00  0.00    -0.006 A 
HETATM   26  C   UNL     1      43.943 -19.035   4.406  1.00  0.00     0.014 A 
HETATM   27  C   UNL     1      44.577 -20.267   4.204  1.00  0.00     0.007 A 
HETATM   28  C   UNL     1      44.626 -21.218   5.228  1.00  0.00    -0.062 A 
HETATM   29  C   UNL     1      45.333 -22.526   5.031  1.00  0.00     0.048 C 
HETATM   30  C   UNL     1      44.045 -20.915   6.463  1.00  0.00     0.007 A 
HETATM   31  C   UNL     1      43.412 -19.684   6.663  1.00  0.00     0.014 A 
ENDBRANCH  23  25
ENDBRANCH   1  19
TORSDOF 5
ENDMDL
MODEL 4
REMARK VINA RESULT:      -9.3      2.432      3.223
REMARK  5 active torsions:
REMARK  status: ('A' for Active; 'I' for Inactive)
REMARK    1  A    between atoms: C_5  and  C_6 
REMARK    2  A    between atoms: C_10  and  C_11 
REMARK       I    between atoms: C_11  and  N_12 
REMARK    3  A    between atoms: N_12  and  N_13 
REMARK       I    between atoms: N_13  and  C_14 
REMARK       I    between atoms: C_14  and  N_15 
REMARK    4  A    between atoms: N_15  and  C_16 
REMARK    5  A    between atoms: C_16  and  C_17 
ROOT
HETATM    1  C   UNL     1      43.474 -13.886   6.692  1.00  0.00     0.288 C 
HETATM    2  N   UNL     1      44.268 -13.670   7.807  1.00  0.00    -0.261 N 
HETATM    3  O   UNL     1      42.914 -12.964   6.101  1.00  0.00    -0.264 OA
HETATM    4  H   UNL     1      44.954 -14.366   8.081  1.00  0.00     0.190 HD
ENDROOT
BRANCH   2   5
HETATM    5  N   UNL     1      44.597 -12.337   8.091  1.00  0.00    -0.249 N 
HETATM    6  C   UNL     1      44.538 -11.782   9.340  1.00  0.00     0.334 C 
HETATM    7  N   UNL     1      44.035 -12.615  10.313  1.00  0.00    -0.341 N 
HETATM    8  O   UNL     1      44.917 -10.635   9.543  1.00  0.00    -0.246 OA
HETATM    9  H   UNL     1      43.330 -13.235   9.941  1.00  0.00     0.164 HD
HETATM   10  H   UNL     1      44.889 -11.746   7.315  1.00  0.00     0.192 HD
BRANCH   7  11
HETATM   11  C   UNL     1      43.791 -12.060  11.631  1.00  0.00     0.129 C 
BRANCH  11  12
HETATM   12  C   UNL     1      42.660 -11.025  11.695  1.00  0.00     0.004 C 
HETATM   13  C   UNL     1      43.143  -9.666  12.227  1.00  0.00     0.010 C 
HETATM   14  C   UNL     1      42.014  -8.625  12.183  1.00  0.00    -0.018 C 
HETATM   15  C   UNL     1      42.492  -7.282  12.731  1.00  0.00     0.010 C 
HETATM   16  C   UNL     1      40.783  -9.120  12.954  1.00  0.00     0.004 C 
HETATM   17  C   UNL     1      40.316 -10.488  12.461  1.00  0.00     0.001 C 
HETATM   18  C   UNL     1      41.444 -11.517  12.492  1.00  0.00     0.006 C 
ENDBRANCH  11  12
ENDBRANCH   7  11
ENDBRANCH   2   5
BRANCH   1  19
HETATM   19  C   UNL     1      43.375 -15.248   6.245  1.00  0.00     0.121 A 
HETATM   20  N   UNL     1      42.832 -16.216   7.043  1.00  0.00    -0.272 N 
HETATM   21  N   UNL     1      42.821 -17.437   6.495  1.00  0.00    -0.174 NA
HETATM   22  H   UNL     1      42.456 -16.094   7.979  1.00  0.00     0.189 HD
HETATM   23  C   UNL     1      43.373 -17.275   5.283  1.00  0.00     0.089 A 
HETATM   24  C   UNL     1      43.735 -15.910   5.087  1.00  0.00     0.071 A 
BRANCH  23  25
HETATM   25  C   UNL     1      43.553 -18.405   4.365  1.00  0.00    -0.006 A 
HETATM   26  C   UNL     1      42.902 -18.447   3.124  1.00  0.00     0.014 A 
HETATM   27  C   UNL     1      43.096 -19.525   2.252  1.00  0.00     0.007 A 
HETATM   28  C   UNL     1      43.935 -20.586   2.607  1.00  0.00    -0.062 A 
HETATM   29  C   UNL     1      44.175 -21.727   1.664  1.00  0.00     0.048 C 
HETATM   30  C   UNL     1      44.589 -20.548   3.842  1.00  0.00     0.007 A 
HETATM   31  C   UNL     1      44.394 -19.472   4.713  1.00  0.00     0.014 A 
ENDBRANCH  23  25
ENDBRANCH   1  19
TORSDOF 5
ENDMDL
MODEL 5
REMARK VINA RESULT:      -9.3      1.571      1.909
REMARK  5 active torsions:
REMARK  status: ('A' for Active; 'I' for Inactive)
REMARK    1  A    between atoms: C_5  and  C_6 
REMARK    2  A    between atoms: C_10  and  C_11 
REMARK       I    between atoms: C_11  and  N_12 
REMARK    3  A    between atoms: N_12  and  N_13 
REMARK       I    between atoms: N_13  and  C_14 
REMARK       I    between atoms: C_14  and  N_15 
REMARK    4  A    between atoms: N_15  and  C_16 
REMARK    5  A    between atoms: C_16  and  C_17 
ROOT
HETATM    1  C   UNL     1      42.103 -13.339   5.048  1.00  0.00     0.288 C 
HETATM    2  N   UNL     1      41.603 -12.908   6.266  1.00  0.00    -0.261 N 
HETATM    3  O   UNL     1      42.222 -12.580   4.087  1.00  0.00    -0.264 OA
HETATM    4  H   UNL     1      41.802 -13.438   7.109  1.00  0.00     0.190 HD
ENDROOT
BRANCH   2   5
HETATM    5  N   UNL     1      41.464 -11.522   6.430  1.00  0.00    -0.249 N 
HETATM    6  C   UNL     1      42.098 -10.798   7.402  1.00  0.00     0.334 C 
HETATM    7  N   UNL     1      42.834 -11.550   8.288  1.00  0.00    -0.341 N 
HETATM    8  O   UNL     1      42.004  -9.577   7.446  1.00  0.00    -0.246 OA
HETATM    9  H   UNL     1      42.409 -12.452   8.449  1.00  0.00     0.164 HD
HETATM   10  H   UNL     1      40.843 -11.030   5.790  1.00  0.00     0.192 HD
BRANCH   7  11
HETATM   11  C   UNL     1      43.411 -10.883   9.440  1.00  0.00     0.129 C 
BRANCH  11  12
HETATM   12  C   UNL     1      42.650 -11.095  10.755  1.00  0.00     0.004 C 
HETATM   13  C   UNL     1      41.322 -10.322  10.792  1.00  0.00     0.010 C 
HETATM   14  C   UNL     1      40.538 -10.635  12.076  1.00  0.00    -0.018 C 
HETATM   15  C   UNL     1      39.229  -9.850  12.118  1.00  0.00     0.010 C 
HETATM   16  C   UNL     1      41.388 -10.343  13.321  1.00  0.00     0.004 C 
HETATM   17  C   UNL     1      42.728 -11.073  13.278  1.00  0.00     0.001 C 
HETATM   18  C   UNL     1      43.497 -10.772  11.994  1.00  0.00     0.006 C 
ENDBRANCH  11  12
ENDBRANCH   7  11
ENDBRANCH   2   5
BRANCH   1  19
HETATM   19  C   UNL     1      42.507 -14.716   4.985  1.00  0.00     0.121 A 
HETATM   20  N   UNL     1      42.799 -15.420   6.119  1.00  0.00    -0.272 N 
HETATM   21  N   UNL     1      43.174 -16.686   5.899  1.00  0.00    -0.174 NA
HETATM   22  H   UNL     1      42.761 -15.077   7.075  1.00  0.00     0.189 HD
HETATM   23  C   UNL     1      43.125 -16.832   4.567  1.00  0.00     0.089 A 
HETATM   24  C   UNL     1      42.709 -15.614   3.955  1.00  0.00     0.071 A 
BRANCH  23  25
HETATM   25  C   UNL     1      43.484 -18.100   3.922  1.00  0.00    -0.006 A 
HETATM   26  C   UNL     1      44.333 -19.022   4.549  1.00  0.00     0.014 A 
HETATM   27  C   UNL     1      44.654 -20.235   3.928  1.00  0.00     0.007 A 
HETATM   28  C   UNL     1      44.142 -20.545   2.664  1.00  0.00    -0.062 A 
HETATM   29  C   UNL     1      44.453 -21.857   2.007  1.00  0.00     0.048 C 
HETATM   30  C   UNL     1      43.292 -19.630   2.035  1.00  0.00     0.007 A 
HETATM   31  C   UNL     1      42.973 -18.419   2.656  1.00  0.00     0.014 A 
ENDBRANCH  23  25
ENDBRANCH   1  19
TORSDOF 5
ENDMDL
MODEL 6
REMARK VINA RESULT:      -9.0      1.325      2.143
REMARK  5 active torsions:
REMARK  status: ('A' for Active; 'I' for Inactive)
REMARK    1  A    between atoms: C_5  and  C_6 
REMARK    2  A    between atoms: C_10  and  C_11 
REMARK       I    between atoms: C_11  and  N_12 
REMARK    3  A    between atoms: N_12  and  N_13 
REMARK       I    between atoms: N_13  and  C_14 
REMARK       I    between atoms: C_14  and  N_15 
REMARK    4  A    between atoms: N_15  and  C_16 
REMARK    5  A    between atoms: C_16  and  C_17 
ROOT
HETATM    1  C   UNL     1      40.143 -13.517   5.782  1.00  0.00     0.288 C 
HETATM    2  N   UNL     1      41.069 -12.632   6.310  1.00  0.00    -0.261 N 
HETATM    3  O   UNL     1      38.991 -13.175   5.517  1.00  0.00    -0.264 OA
HETATM    4  H   UNL     1      42.061 -12.830   6.227  1.00  0.00     0.190 HD
ENDROOT
BRANCH   2   5
HETATM    5  N   UNL     1      40.710 -11.276   6.307  1.00  0.00    -0.249 N 
HETATM    6  C   UNL     1      40.531 -10.528   7.439  1.00  0.00     0.334 C 
HETATM    7  N   UNL     1      40.643 -11.234   8.615  1.00  0.00    -0.341 N 
HETATM    8  O   UNL     1      40.299  -9.327   7.375  1.00  0.00    -0.246 OA
HETATM    9  H   UNL     1      40.309 -12.182   8.510  1.00  0.00     0.164 HD
HETATM   10  H   UNL     1      40.565 -10.827   5.405  1.00  0.00     0.192 HD
BRANCH   7  11
HETATM   11  C   UNL     1      40.314 -10.556   9.854  1.00  0.00     0.129 C 
BRANCH  11  12
HETATM   12  C   UNL     1      41.523 -10.047  10.650  1.00  0.00     0.004 C 
HETATM   13  C   UNL     1      42.818 -10.788  10.281  1.00  0.00     0.010 C 
HETATM   14  C   UNL     1      44.025 -10.188  11.018  1.00  0.00    -0.018 C 
HETATM   15  C   UNL     1      45.307 -10.939  10.663  1.00  0.00     0.010 C 
HETATM   16  C   UNL     1      43.796 -10.191  12.535  1.00  0.00     0.004 C 
HETATM   17  C   UNL     1      42.492  -9.492  12.914  1.00  0.00     0.001 C 
HETATM   18  C   UNL     1      41.296 -10.080  12.168  1.00  0.00     0.006 C 
ENDBRANCH  11  12
ENDBRANCH   7  11
ENDBRANCH   2   5
BRANCH   1  19
HETATM   19  C   UNL     1      40.619 -14.848   5.528  1.00  0.00     0.121 A 
HETATM   20  N   UNL     1      40.162 -15.913   6.253  1.00  0.00    -0.272 N 
HETATM   21  N   UNL     1      40.708 -17.086   5.910  1.00  0.00    -0.174 NA
HETATM   22  H   UNL     1      39.475 -15.890   7.002  1.00  0.00     0.189 HD
HETATM   23  C   UNL     1      41.558 -16.791   4.915  1.00  0.00     0.089 A 
HETATM   24  C   UNL     1      41.530 -15.392   4.644  1.00  0.00     0.071 A 
BRANCH  23  25
HETATM   25  C   UNL     1      42.370 -17.828   4.270  1.00  0.00    -0.006 A 
HETATM   26  C   UNL     1      42.322 -18.035   2.884  1.00  0.00     0.014 A 
HETATM   27  C   UNL     1      43.116 -19.018   2.280  1.00  0.00     0.007 A 
HETATM   28  C   UNL     1      43.964 -19.820   3.050  1.00  0.00    -0.062 A 
HETATM   29  C   UNL     1      44.843 -20.851   2.406  1.00  0.00     0.048 C 
HETATM   30  C   UNL     1      44.019 -19.616   4.432  1.00  0.00     0.007 A 
HETATM   31  C   UNL     1      43.225 -18.635   5.034  1.00  0.00     0.014 A 
ENDBRANCH  23  25
ENDBRANCH   1  19
TORSDOF 5
ENDMDL
MODEL 7
REMARK VINA RESULT:      -8.9      1.861     10.266
REMARK  5 active torsions:
REMARK  status: ('A' for Active; 'I' for Inactive)
REMARK    1  A    between atoms: C_5  and  C_6 
REMARK    2  A    between atoms: C_10  and  C_11 
REMARK       I    between atoms: C_11  and  N_12 
REMARK    3  A    between atoms: N_12  and  N_13 
REMARK       I    between atoms: N_13  and  C_14 
REMARK       I    between atoms: C_14  and  N_15 
REMARK    4  A    between atoms: N_15  and  C_16 
REMARK    5  A    between atoms: C_16  and  C_17 
ROOT
HETATM    1  C   UNL     1      41.941 -11.315   7.066  1.00  0.00     0.288 C 
HETATM    2  N   UNL     1      41.954 -12.612   6.578  1.00  0.00    -0.261 N 
HETATM    3  O   UNL     1      41.565 -10.365   6.381  1.00  0.00    -0.264 OA
HETATM    4  H   UNL     1      41.958 -13.395   7.224  1.00  0.00     0.190 HD
ENDROOT
BRANCH   2   5
HETATM    5  N   UNL     1      41.301 -12.828   5.356  1.00  0.00    -0.249 N 
HETATM    6  C   UNL     1      40.945 -14.062   4.884  1.00  0.00     0.334 C 
HETATM    7  N   UNL     1      41.361 -15.115   5.666  1.00  0.00    -0.341 N 
HETATM    8  O   UNL     1      40.302 -14.183   3.849  1.00  0.00    -0.246 OA
HETATM    9  H   UNL     1      42.246 -14.918   6.111  1.00  0.00     0.164 HD
HETATM   10  H   UNL     1      41.088 -12.013   4.783  1.00  0.00     0.192 HD
BRANCH   7  11
HETATM   11  C   UNL     1      41.165 -16.461   5.163  1.00  0.00     0.129 C 
BRANCH  11  12
HETATM   12  C   UNL     1      42.429 -17.134   4.612  1.00  0.00     0.004 C 
HETATM   13  C   UNL     1      42.478 -17.112   3.076  1.00  0.00     0.010 C 
HETATM   14  C   UNL     1      43.800 -17.700   2.559  1.00  0.00    -0.018 C 
HETATM   15  C   UNL     1      43.838 -17.695   1.033  1.00  0.00     0.010 C 
HETATM   16  C   UNL     1      44.018 -19.118   3.104  1.00  0.00     0.004 C 
HETATM   17  C   UNL     1      43.931 -19.162   4.628  1.00  0.00     0.001 C 
HETATM   18  C   UNL     1      42.623 -18.562   5.138  1.00  0.00     0.006 C 
ENDBRANCH  11  12
ENDBRANCH   7  11
ENDBRANCH   2   5
BRANCH   1  19
HETATM   19  C   UNL     1      42.356 -11.152   8.432  1.00  0.00     0.121 A 
HETATM   20  N   UNL     1      43.570 -11.608   8.860  1.00  0.00    -0.272 N 
HETATM   21  N   UNL     1      43.809 -11.397  10.160  1.00  0.00    -0.174 NA
HETATM   22  H   UNL     1      44.277 -12.079   8.301  1.00  0.00     0.189 HD
HETATM   23  C   UNL     1      42.713 -10.771  10.613  1.00  0.00     0.089 A 
HETATM   24  C   UNL     1      41.774 -10.598   9.555  1.00  0.00     0.071 A 
BRANCH  23  25
HETATM   25  C   UNL     1      42.583 -10.374  12.020  1.00  0.00    -0.006 A 
HETATM   26  C   UNL     1      43.581  -9.628  12.662  1.00  0.00     0.014 A 
HETATM   27  C   UNL     1      43.436  -9.243  14.000  1.00  0.00     0.007 A 
HETATM   28  C   UNL     1      42.296  -9.605  14.725  1.00  0.00    -0.062 A 
HETATM   29  C   UNL     1      42.118  -9.167  16.149  1.00  0.00     0.048 C 
HETATM   30  C   UNL     1      41.296 -10.347  14.089  1.00  0.00     0.007 A 
HETATM   31  C   UNL     1      41.443 -10.731  12.753  1.00  0.00     0.014 A 
ENDBRANCH  23  25
ENDBRANCH   1  19
TORSDOF 5
ENDMDL
MODEL 8
REMARK VINA RESULT:      -8.8      3.170      4.460
REMARK  5 active torsions:
REMARK  status: ('A' for Active; 'I' for Inactive)
REMARK    1  A    between atoms: C_5  and  C_6 
REMARK    2  A    between atoms: C_10  and  C_11 
REMARK       I    between atoms: C_11  and  N_12 
REMARK    3  A    between atoms: N_12  and  N_13 
REMARK       I    between atoms: N_13  and  C_14 
REMARK       I    between atoms: C_14  and  N_15 
REMARK    4  A    between atoms: N_15  and  C_16 
REMARK    5  A    between atoms: C_16  and  C_17 
ROOT
HETATM    1  C   UNL     1      44.706 -12.877   8.234  1.00  0.00     0.288 C 
HETATM    2  N   UNL     1      43.814 -11.987   8.810  1.00  0.00    -0.261 N 
HETATM    3  O   UNL     1      45.885 -12.936   8.580  1.00  0.00    -0.264 OA
HETATM    4  H   UNL     1      42.816 -12.160   8.748  1.00  0.00     0.190 HD
ENDROOT
BRANCH   2   5
HETATM    5  N   UNL     1      44.252 -11.323   9.965  1.00  0.00    -0.249 N 
HETATM    6  C   UNL     1      43.472 -11.110  11.069  1.00  0.00     0.334 C 
HETATM    7  N   UNL     1      42.167 -11.523  10.935  1.00  0.00    -0.341 N 
HETATM    8  O   UNL     1      43.934 -10.597  12.081  1.00  0.00    -0.246 OA
HETATM    9  H   UNL     1      41.838 -11.411   9.987  1.00  0.00     0.164 HD
HETATM   10  H   UNL     1      45.207 -10.969   9.975  1.00  0.00     0.192 HD
BRANCH   7  11
HETATM   11  C   UNL     1      41.233 -11.196  11.996  1.00  0.00     0.129 C 
BRANCH  11  12
HETATM   12  C   UNL     1      39.918 -10.562  11.524  1.00  0.00     0.004 C 
HETATM   13  C   UNL     1      40.012 -10.027  10.086  1.00  0.00     0.010 C 
HETATM   14  C   UNL     1      38.653  -9.493   9.607  1.00  0.00    -0.018 C 
HETATM   15  C   UNL     1      38.755  -8.944   8.186  1.00  0.00     0.010 C 
HETATM   16  C   UNL     1      38.118  -8.421  10.567  1.00  0.00     0.004 C 
HETATM   17  C   UNL     1      38.057  -8.926  12.007  1.00  0.00     0.001 C 
HETATM   18  C   UNL     1      39.405  -9.471  12.473  1.00  0.00     0.006 C 
ENDBRANCH  11  12
ENDBRANCH   7  11
ENDBRANCH   2   5
BRANCH   1  19
HETATM   19  C   UNL     1      44.162 -13.754   7.234  1.00  0.00     0.121 A 
HETATM   20  N   UNL     1      42.935 -13.520   6.681  1.00  0.00    -0.272 N 
HETATM   21  N   UNL     1      42.558 -14.430   5.774  1.00  0.00    -0.174 NA
HETATM   22  H   UNL     1      42.308 -12.748   6.892  1.00  0.00     0.189 HD
HETATM   23  C   UNL     1      43.576 -15.302   5.719  1.00  0.00     0.089 A 
HETATM   24  C   UNL     1      44.606 -14.910   6.623  1.00  0.00     0.071 A 
BRANCH  23  25
HETATM   25  C   UNL     1      43.536 -16.471   4.835  1.00  0.00    -0.006 A 
HETATM   26  C   UNL     1      43.160 -16.355   3.489  1.00  0.00     0.014 A 
HETATM   27  C   UNL     1      43.142 -17.477   2.652  1.00  0.00     0.007 A 
HETATM   28  C   UNL     1      43.490 -18.739   3.146  1.00  0.00    -0.062 A 
HETATM   29  C   UNL     1      43.506 -19.940   2.248  1.00  0.00     0.048 C 
HETATM   30  C   UNL     1      43.869 -18.860   4.487  1.00  0.00     0.007 A 
HETATM   31  C   UNL     1      43.885 -17.739   5.321  1.00  0.00     0.014 A 
ENDBRANCH  23  25
ENDBRANCH   1  19
TORSDOF 5
ENDMDL
MODEL 9
REMARK VINA RESULT:      -8.5      2.290      9.922
REMARK  5 active torsions:
REMARK  status: ('A' for Active; 'I' for Inactive)
REMARK    1  A    between atoms: C_5  and  C_6 
REMARK    2  A    between atoms: C_10  and  C_11 
REMARK       I    between atoms: C_11  and  N_12 
REMARK    3  A    between atoms: N_12  and  N_13 
REMARK       I    between atoms: N_13  and  C_14 
REMARK       I    between atoms: C_14  and  N_15 
REMARK    4  A    between atoms: N_15  and  C_16 
REMARK    5  A    between atoms: C_16  and  C_17 
ROOT
HETATM    1  C   UNL     1      43.422 -13.646   5.093  1.00  0.00     0.288 C 
HETATM    2  N   UNL     1      42.104 -13.987   4.833  1.00  0.00    -0.261 N 
HETATM    3  O   UNL     1      44.288 -13.677   4.219  1.00  0.00    -0.264 OA
HETATM    4  H   UNL     1      41.368 -13.663   5.452  1.00  0.00     0.190 HD
ENDROOT
BRANCH   2   5
HETATM    5  N   UNL     1      41.752 -14.138   3.484  1.00  0.00    -0.249 N 
HETATM    6  C   UNL     1      41.594 -15.347   2.864  1.00  0.00     0.334 C 
HETATM    7  N   UNL     1      41.897 -16.436   3.648  1.00  0.00    -0.341 N 
HETATM    8  O   UNL     1      41.204 -15.418   1.704  1.00  0.00    -0.246 OA
HETATM    9  H   UNL     1      42.648 -16.230   4.292  1.00  0.00     0.164 HD
HETATM   10  H   UNL     1      41.616 -13.292   2.933  1.00  0.00     0.192 HD
BRANCH   7  11
HETATM   11  C   UNL     1      41.908 -17.746   3.026  1.00  0.00     0.129 C 
BRANCH  11  12
HETATM   12  C   UNL     1      43.195 -18.553   3.245  1.00  0.00     0.004 C 
HETATM   13  C   UNL     1      43.204 -19.864   2.444  1.00  0.00     0.010 C 
HETATM   14  C   UNL     1      44.544 -20.598   2.604  1.00  0.00    -0.018 C 
HETATM   15  C   UNL     1      44.542 -21.910   1.822  1.00  0.00     0.010 C 
HETATM   16  C   UNL     1      44.857 -20.849   4.085  1.00  0.00     0.004 C 
HETATM   17  C   UNL     1      44.812 -19.559   4.902  1.00  0.00     0.001 C 
HETATM   18  C   UNL     1      43.485 -18.824   4.728  1.00  0.00     0.006 C 
ENDBRANCH  11  12
ENDBRANCH   7  11
ENDBRANCH   2   5
BRANCH   1  19
HETATM   19  C   UNL     1      43.709 -13.219   6.434  1.00  0.00     0.121 A 
HETATM   20  N   UNL     1      44.679 -13.830   7.178  1.00  0.00    -0.272 N 
HETATM   21  N   UNL     1      44.821 -13.332   8.412  1.00  0.00    -0.174 NA
HETATM   22  H   UNL     1      45.275 -14.601   6.888  1.00  0.00     0.189 HD
HETATM   23  C   UNL     1      43.912 -12.348   8.491  1.00  0.00     0.089 A 
HETATM   24  C   UNL     1      43.192 -12.245   7.265  1.00  0.00     0.071 A 
BRANCH  23  25
HETATM   25  C   UNL     1      43.746 -11.555   9.715  1.00  0.00    -0.006 A 
HETATM   26  C   UNL     1      44.789 -11.418  10.642  1.00  0.00     0.014 A 
HETATM   27  C   UNL     1      44.621 -10.645  11.797  1.00  0.00     0.007 A 
HETATM   28  C   UNL     1      43.405 -10.003  12.053  1.00  0.00    -0.062 A 
HETATM   29  C   UNL     1      43.228  -9.146  13.271  1.00  0.00     0.048 C 
HETATM   30  C   UNL     1      42.362 -10.134  11.131  1.00  0.00     0.007 A 
HETATM   31  C   UNL     1      42.531 -10.907   9.978  1.00  0.00     0.014 A 
ENDBRANCH  23  25
ENDBRANCH   1  19
TORSDOF 5
ENDMDL
MODEL 10
REMARK VINA RESULT:      -8.4      1.781      2.327
REMARK  5 active torsions:
REMARK  status: ('A' for Active; 'I' for Inactive)
REMARK    1  A    between atoms: C_5  and  C_6 
REMARK    2  A    between atoms: C_10  and  C_11 
REMARK       I    between atoms: C_11  and  N_12 
REMARK    3  A    between atoms: N_12  and  N_13 
REMARK       I    between atoms: N_13  and  C_14 
REMARK       I    between atoms: C_14  and  N_15 
REMARK    4  A    between atoms: N_15  and  C_16 
REMARK    5  A    between atoms: C_16  and  C_17 
ROOT
HETATM    1  C   UNL     1      41.958 -13.296   4.498  1.00  0.00     0.288 C 
HETATM    2  N   UNL     1      41.731 -12.699   5.728  1.00  0.00    -0.261 N 
HETATM    3  O   UNL     1      42.081 -12.638   3.467  1.00  0.00    -0.264 OA
HETATM    4  H   UNL     1      41.944 -13.205   6.582  1.00  0.00     0.190 HD
ENDROOT
BRANCH   2   5
HETATM    5  N   UNL     1      41.885 -11.306   5.785  1.00  0.00    -0.249 N 
HETATM    6  C   UNL     1      41.595 -10.547   6.885  1.00  0.00     0.334 C 
HETATM    7  N   UNL     1      41.044 -11.247   7.934  1.00  0.00    -0.341 N 
HETATM    8  O   UNL     1      41.828  -9.344   6.905  1.00  0.00    -0.246 OA
HETATM    9  H   UNL     1      40.463 -12.005   7.608  1.00  0.00     0.164 HD
HETATM   10  H   UNL     1      42.225 -10.833   4.949  1.00  0.00     0.192 HD
BRANCH   7  11
HETATM   11  C   UNL     1      40.563 -10.498   9.079  1.00  0.00     0.129 C 
BRANCH  11  12
HETATM   12  C   UNL     1      41.537 -10.434  10.263  1.00  0.00     0.004 C 
HETATM   13  C   UNL     1      42.941 -10.934   9.890  1.00  0.00     0.010 C 
HETATM   14  C   UNL     1      43.917 -10.762  11.064  1.00  0.00    -0.018 C 
HETATM   15  C   UNL     1      45.307 -11.278  10.696  1.00  0.00     0.010 C 
HETATM   16  C   UNL     1      43.390 -11.468  12.321  1.00  0.00     0.004 C 
HETATM   17  C   UNL     1      41.978 -11.010  12.681  1.00  0.00     0.001 C 
HETATM   18  C   UNL     1      41.015 -11.167  11.507  1.00  0.00     0.006 C 
ENDBRANCH  11  12
ENDBRANCH   7  11
ENDBRANCH   2   5
BRANCH   1  19
HETATM   19  C   UNL     1      42.077 -14.728   4.507  1.00  0.00     0.121 A 
HETATM   20  N   UNL     1      40.992 -15.529   4.287  1.00  0.00    -0.272 N 
HETATM   21  N   UNL     1      41.257 -16.840   4.340  1.00  0.00    -0.174 NA
HETATM   22  H   UNL     1      40.039 -15.227   4.100  1.00  0.00     0.189 HD
HETATM   23  C   UNL     1      42.570 -16.914   4.600  1.00  0.00     0.089 A 
HETATM   24  C   UNL     1      43.124 -15.605   4.711  1.00  0.00     0.071 A 
BRANCH  23  25
HETATM   25  C   UNL     1      43.250 -18.206   4.747  1.00  0.00    -0.006 A 
HETATM   26  C   UNL     1      43.349 -18.840   5.994  1.00  0.00     0.014 A 
HETATM   27  C   UNL     1      43.987 -20.080   6.116  1.00  0.00     0.007 A 
HETATM   28  C   UNL     1      44.546 -20.706   4.998  1.00  0.00    -0.062 A 
HETATM   29  C   UNL     1      45.200 -22.051   5.115  1.00  0.00     0.048 C 
HETATM   30  C   UNL     1      44.448 -20.081   3.752  1.00  0.00     0.007 A 
HETATM   31  C   UNL     1      43.812 -18.841   3.631  1.00  0.00     0.014 A 
ENDBRANCH  23  25
ENDBRANCH   1  19
TORSDOF 5
ENDMDL
