MODEL 1
REMARK VINA RESULT:      -8.0      0.000      0.000
REMARK  4 active torsions:
REMARK  status: ('A' for Active; 'I' for Inactive)
REMARK    1  A    between atoms: N_2  and  C_3 
REMARK    2  A    between atoms: C_5  and  C_6 
REMARK    3  A    between atoms: C_6  and  C_7 
REMARK    4  A    between atoms: C_13  and  O_14 
ROOT
HETATM    1  C   UNL     1      44.403 -19.017   4.467  1.00  0.00     0.113 A 
HETATM    2  N   UNL     1      43.973 -18.068   3.611  1.00  0.00    -0.223 NA
HETATM    3  C   UNL     1      43.687 -18.426   2.332  1.00  0.00     0.106 A 
HETATM    4  N   UNL     1      43.817 -19.682   1.871  1.00  0.00    -0.347 N 
HETATM    5  H   UNL     1      43.635 -19.885   0.883  1.00  0.00     0.167 HD
HETATM    6  C   UNL     1      44.241 -20.620   2.712  1.00  0.00     0.020 A 
HETATM    7  C   UNL     1      44.538 -20.316   4.029  1.00  0.00     0.005 A 
HETATM    8  C   UNL     1      45.014 -21.535   4.752  1.00  0.00     0.044 C 
HETATM    9  C   UNL     1      44.551 -22.654   3.800  1.00  0.00     0.011 C 
HETATM   10  C   UNL     1      44.507 -22.053   2.385  1.00  0.00     0.058 C 
ENDROOT
BRANCH   3  11
HETATM   11  C   UNL     1      43.240 -17.357   1.377  1.00  0.00     0.085 C 
BRANCH  11  12
HETATM   12  C   UNL     1      41.703 -17.258   1.190  1.00  0.00     0.021 C 
HETATM   13  C   UNL     1      40.971 -16.615   2.369  1.00  0.00     0.181 C 
HETATM   14  O   UNL     1      41.626 -15.392   2.727  1.00  0.00    -0.347 OA
HETATM   15  C   UNL     1      41.697 -14.506   1.672  1.00  0.00     0.108 A 
HETATM   16  C   UNL     1      41.590 -14.919   0.331  1.00  0.00    -0.021 A 
HETATM   17  C   UNL     1      41.970 -13.169   1.971  1.00  0.00     0.102 A 
HETATM   18  C   UNL     1      41.385 -16.372  -0.023  1.00  0.00     0.048 C 
HETATM   19  C   UNL     1      41.694 -13.964  -0.689  1.00  0.00     0.010 A 
HETATM   20  C   UNL     1      41.954 -12.626  -0.379  1.00  0.00     0.003 A 
HETATM   21  C   UNL     1      42.112 -12.231   0.949  1.00  0.00     0.039 A 
BRANCH  17  22
HETATM   22  O   UNL     1      42.183 -12.766   3.263  1.00  0.00    -0.353 OA
HETATM   23  C   UNL     1      41.079 -11.982   3.722  1.00  0.00     0.210 C 
ENDBRANCH  17  22
ENDBRANCH  11  12
ENDBRANCH   3  11
BRANCH   1  24
HETATM   24  N   UNL     1      44.630 -18.712   5.804  1.00  0.00    -0.281 NA
HETATM   25  C   UNL     1      44.306 -17.356   6.222  1.00  0.00     0.114 C 
HETATM   26  H   UNL     1      45.558 -18.993   6.111  1.00  0.00     0.128 HD
ENDBRANCH   1  24
TORSDOF 4
ENDMDL
MODEL 2
REMARK VINA RESULT:      -8.0      2.835      7.135
REMARK  4 active torsions:
REMARK  status: ('A' for Active; 'I' for Inactive)
REMARK    1  A    between atoms: N_2  and  C_3 
REMARK    2  A    between atoms: C_5  and  C_6 
REMARK    3  A    between atoms: C_6  and  C_7 
REMARK    4  A    between atoms: C_13  and  O_14 
ROOT
HETATM    1  C   UNL     1      39.865 -14.553   2.216  1.00  0.00     0.113 A 
HETATM    2  N   UNL     1      40.367 -15.733   1.797  1.00  0.00    -0.223 NA
HETATM    3  C   UNL     1      40.926 -16.565   2.715  1.00  0.00     0.106 A 
HETATM    4  N   UNL     1      41.010 -16.270   4.024  1.00  0.00    -0.347 N 
HETATM    5  H   UNL     1      41.488 -16.913   4.663  1.00  0.00     0.167 HD
HETATM    6  C   UNL     1      40.517 -15.108   4.440  1.00  0.00     0.020 A 
HETATM    7  C   UNL     1      39.928 -14.223   3.552  1.00  0.00     0.005 A 
HETATM    8  C   UNL     1      39.480 -12.988   4.265  1.00  0.00     0.044 C 
HETATM    9  C   UNL     1      39.507 -13.456   5.732  1.00  0.00     0.011 C 
HETATM   10  C   UNL     1      40.565 -14.568   5.832  1.00  0.00     0.058 C 
ENDROOT
BRANCH   3  11
HETATM   11  C   UNL     1      41.511 -17.862   2.236  1.00  0.00     0.085 C 
BRANCH  11  12
HETATM   12  C   UNL     1      42.915 -17.738   1.587  1.00  0.00     0.021 C 
HETATM   13  C   UNL     1      43.938 -16.996   2.448  1.00  0.00     0.181 C 
HETATM   14  O   UNL     1      43.920 -17.533   3.777  1.00  0.00    -0.347 OA
HETATM   15  C   UNL     1      44.175 -18.889   3.799  1.00  0.00     0.108 A 
HETATM   16  C   UNL     1      43.992 -19.710   2.671  1.00  0.00    -0.021 A 
HETATM   17  C   UNL     1      44.545 -19.455   5.021  1.00  0.00     0.102 A 
HETATM   18  C   UNL     1      43.507 -19.137   1.361  1.00  0.00     0.048 C 
HETATM   19  C   UNL     1      44.251 -21.083   2.775  1.00  0.00     0.010 A 
HETATM   20  C   UNL     1      44.633 -21.638   3.999  1.00  0.00     0.003 A 
HETATM   21  C   UNL     1      44.761 -20.829   5.127  1.00  0.00     0.039 A 
BRANCH  17  22
HETATM   22  O   UNL     1      44.625 -18.691   6.155  1.00  0.00    -0.353 OA
HETATM   23  C   UNL     1      43.884 -19.303   7.214  1.00  0.00     0.210 C 
ENDBRANCH  17  22
ENDBRANCH  11  12
ENDBRANCH   3  11
BRANCH   1  24
HETATM   24  N   UNL     1      39.214 -13.707   1.326  1.00  0.00    -0.281 NA
HETATM   25  C   UNL     1      37.850 -14.070   0.969  1.00  0.00     0.114 C 
HETATM   26  H   UNL     1      39.779 -13.502   0.507  1.00  0.00     0.128 HD
ENDBRANCH   1  24
TORSDOF 4
ENDMDL
MODEL 3
REMARK VINA RESULT:      -7.8      2.582      6.933
REMARK  4 active torsions:
REMARK  status: ('A' for Active; 'I' for Inactive)
REMARK    1  A    between atoms: N_2  and  C_3 
REMARK    2  A    between atoms: C_5  and  C_6 
REMARK    3  A    between atoms: C_6  and  C_7 
REMARK    4  A    between atoms: C_13  and  O_14 
ROOT
HETATM    1  C   UNL     1      40.013 -15.102   3.418  1.00  0.00     0.113 A 
HETATM    2  N   UNL     1      40.693 -16.250   3.223  1.00  0.00    -0.223 NA
HETATM    3  C   UNL     1      40.970 -16.634   1.950  1.00  0.00     0.106 A 
HETATM    4  N   UNL     1      40.595 -15.930   0.868  1.00  0.00    -0.347 N 
HETATM    5  H   UNL     1      40.787 -16.293  -0.071  1.00  0.00     0.167 HD
HETATM    6  C   UNL     1      39.923 -14.798   1.056  1.00  0.00     0.020 A 
HETATM    7  C   UNL     1      39.620 -14.351   2.331  1.00  0.00     0.005 A 
HETATM    8  C   UNL     1      38.844 -13.076   2.267  1.00  0.00     0.044 C 
HETATM    9  C   UNL     1      39.105 -12.632   0.816  1.00  0.00     0.011 C 
HETATM   10  C   UNL     1      39.368 -13.906  -0.005  1.00  0.00     0.058 C 
ENDROOT
BRANCH   3  11
HETATM   11  C   UNL     1      41.700 -17.929   1.740  1.00  0.00     0.085 C 
BRANCH  11  12
HETATM   12  C   UNL     1      43.169 -17.775   1.264  1.00  0.00     0.021 C 
HETATM   13  C   UNL     1      44.040 -16.928   2.192  1.00  0.00     0.181 C 
HETATM   14  O   UNL     1      43.876 -17.380   3.543  1.00  0.00    -0.347 OA
HETATM   15  C   UNL     1      44.185 -18.716   3.690  1.00  0.00     0.108 A 
HETATM   16  C   UNL     1      44.183 -19.615   2.608  1.00  0.00    -0.021 A 
HETATM   17  C   UNL     1      44.420 -19.184   4.986  1.00  0.00     0.102 A 
HETATM   18  C   UNL     1      43.844 -19.154   1.212  1.00  0.00     0.048 C 
HETATM   19  C   UNL     1      44.485 -20.964   2.839  1.00  0.00     0.010 A 
HETATM   20  C   UNL     1      44.732 -21.419   4.137  1.00  0.00     0.003 A 
HETATM   21  C   UNL     1      44.680 -20.534   5.213  1.00  0.00     0.039 A 
BRANCH  17  22
HETATM   22  O   UNL     1      44.322 -18.345   6.065  1.00  0.00    -0.353 OA
HETATM   23  C   UNL     1      43.526 -18.950   7.087  1.00  0.00     0.210 C 
ENDBRANCH  17  22
ENDBRANCH  11  12
ENDBRANCH   3  11
BRANCH   1  24
HETATM   24  N   UNL     1      39.777 -14.630   4.704  1.00  0.00    -0.281 NA
HETATM   25  C   UNL     1      40.887 -13.953   5.358  1.00  0.00     0.114 C 
HETATM   26  H   UNL     1      39.357 -15.337   5.302  1.00  0.00     0.128 HD
ENDBRANCH   1  24
TORSDOF 4
ENDMDL
MODEL 4
REMARK VINA RESULT:      -7.7      1.008      2.465
REMARK  4 active torsions:
REMARK  status: ('A' for Active; 'I' for Inactive)
REMARK    1  A    between atoms: N_2  and  C_3 
REMARK    2  A    between atoms: C_5  and  C_6 
REMARK    3  A    between atoms: C_6  and  C_7 
REMARK    4  A    between atoms: C_13  and  O_14 
ROOT
HETATM    1  C   UNL     1      44.085 -19.959   3.178  1.00  0.00     0.113 A 
HETATM    2  N   UNL     1      43.763 -19.258   2.072  1.00  0.00    -0.223 NA
HETATM    3  C   UNL     1      43.557 -17.920   2.188  1.00  0.00     0.106 A 
HETATM    4  N   UNL     1      43.653 -17.256   3.353  1.00  0.00    -0.347 N 
HETATM    5  H   UNL     1      43.439 -16.255   3.390  1.00  0.00     0.167 HD
HETATM    6  C   UNL     1      43.970 -17.944   4.445  1.00  0.00     0.020 A 
HETATM    7  C   UNL     1      44.200 -19.309   4.387  1.00  0.00     0.005 A 
HETATM    8  C   UNL     1      44.513 -19.844   5.747  1.00  0.00     0.044 C 
HETATM    9  C   UNL     1      44.846 -18.551   6.515  1.00  0.00     0.011 C 
HETATM   10  C   UNL     1      44.068 -17.411   5.837  1.00  0.00     0.058 C 
ENDROOT
BRANCH   3  11
HETATM   11  C   UNL     1      43.168 -17.152   0.958  1.00  0.00     0.085 C 
BRANCH  11  12
HETATM   12  C   UNL     1      41.638 -17.028   0.730  1.00  0.00     0.021 C 
HETATM   13  C   UNL     1      40.879 -16.411   1.906  1.00  0.00     0.181 C 
HETATM   14  O   UNL     1      41.538 -15.206   2.318  1.00  0.00    -0.347 OA
HETATM   15  C   UNL     1      41.650 -14.291   1.291  1.00  0.00     0.108 A 
HETATM   16  C   UNL     1      41.577 -14.664  -0.063  1.00  0.00    -0.021 A 
HETATM   17  C   UNL     1      41.930 -12.967   1.637  1.00  0.00     0.102 A 
HETATM   18  C   UNL     1      41.365 -16.103  -0.465  1.00  0.00     0.048 C 
HETATM   19  C   UNL     1      41.722 -13.681  -1.052  1.00  0.00     0.010 A 
HETATM   20  C   UNL     1      41.988 -12.357  -0.696  1.00  0.00     0.003 A 
HETATM   21  C   UNL     1      42.112 -12.002   0.647  1.00  0.00     0.039 A 
BRANCH  17  22
HETATM   22  O   UNL     1      42.110 -12.604   2.946  1.00  0.00    -0.353 OA
HETATM   23  C   UNL     1      41.005 -11.815   3.393  1.00  0.00     0.210 C 
ENDBRANCH  17  22
ENDBRANCH  11  12
ENDBRANCH   3  11
BRANCH   1  24
HETATM   24  N   UNL     1      44.382 -21.315   3.093  1.00  0.00    -0.281 NA
HETATM   25  C   UNL     1      44.274 -21.919   1.773  1.00  0.00     0.114 C 
HETATM   26  H   UNL     1      43.898 -21.860   3.801  1.00  0.00     0.128 HD
ENDBRANCH   1  24
TORSDOF 4
ENDMDL
MODEL 5
REMARK VINA RESULT:      -7.7      2.128      3.086
REMARK  4 active torsions:
REMARK  status: ('A' for Active; 'I' for Inactive)
REMARK    1  A    between atoms: N_2  and  C_3 
REMARK    2  A    between atoms: C_5  and  C_6 
REMARK    3  A    between atoms: C_6  and  C_7 
REMARK    4  A    between atoms: C_13  and  O_14 
ROOT
HETATM    1  C   UNL     1      43.628 -18.234   4.505  1.00  0.00     0.113 A 
HETATM    2  N   UNL     1      42.648 -17.419   4.066  1.00  0.00    -0.223 NA
HETATM    3  C   UNL     1      42.033 -17.714   2.891  1.00  0.00     0.106 A 
HETATM    4  N   UNL     1      42.356 -18.779   2.136  1.00  0.00    -0.347 N 
HETATM    5  H   UNL     1      41.894 -18.926   1.233  1.00  0.00     0.167 HD
HETATM    6  C   UNL     1      43.323 -19.584   2.565  1.00  0.00     0.020 A 
HETATM    7  C   UNL     1      43.979 -19.339   3.760  1.00  0.00     0.005 A 
HETATM    8  C   UNL     1      45.032 -20.372   4.000  1.00  0.00     0.044 C 
HETATM    9  C   UNL     1      44.612 -21.472   3.006  1.00  0.00     0.011 C 
HETATM   10  C   UNL     1      43.869 -20.778   1.852  1.00  0.00     0.058 C 
ENDROOT
BRANCH   3  11
HETATM   11  C   UNL     1      40.965 -16.784   2.393  1.00  0.00     0.085 C 
BRANCH  11  12
HETATM   12  C   UNL     1      41.186 -15.292   2.756  1.00  0.00     0.021 C 
HETATM   13  C   UNL     1      42.149 -14.558   1.822  1.00  0.00     0.181 C 
HETATM   14  O   UNL     1      41.777 -14.811   0.461  1.00  0.00    -0.347 OA
HETATM   15  C   UNL     1      40.476 -14.435   0.194  1.00  0.00     0.108 A 
HETATM   16  C   UNL     1      39.510 -14.288   1.205  1.00  0.00    -0.021 A 
HETATM   17  C   UNL     1      40.112 -14.285  -1.147  1.00  0.00     0.102 A 
HETATM   18  C   UNL     1      39.855 -14.531   2.654  1.00  0.00     0.048 C 
HETATM   19  C   UNL     1      38.203 -13.925   0.854  1.00  0.00     0.010 A 
HETATM   20  C   UNL     1      37.852 -13.764  -0.488  1.00  0.00     0.003 A 
HETATM   21  C   UNL     1      38.800 -13.964  -1.491  1.00  0.00     0.039 A 
BRANCH  17  22
HETATM   22  O   UNL     1      41.011 -14.528  -2.152  1.00  0.00    -0.353 OA
HETATM   23  C   UNL     1      40.533 -15.578  -2.997  1.00  0.00     0.210 C 
ENDBRANCH  17  22
ENDBRANCH  11  12
ENDBRANCH   3  11
BRANCH   1  24
HETATM   24  N   UNL     1      44.229 -18.015   5.739  1.00  0.00    -0.281 NA
HETATM   25  C   UNL     1      43.510 -18.506   6.905  1.00  0.00     0.114 C 
HETATM   26  H   UNL     1      44.529 -17.051   5.856  1.00  0.00     0.128 HD
ENDBRANCH   1  24
TORSDOF 4
ENDMDL
MODEL 6
REMARK VINA RESULT:      -7.6      2.584      7.531
REMARK  4 active torsions:
REMARK  status: ('A' for Active; 'I' for Inactive)
REMARK    1  A    between atoms: N_2  and  C_3 
REMARK    2  A    between atoms: C_5  and  C_6 
REMARK    3  A    between atoms: C_6  and  C_7 
REMARK    4  A    between atoms: C_13  and  O_14 
ROOT
HETATM    1  C   UNL     1      42.522 -13.061   3.584  1.00  0.00     0.113 A 
HETATM    2  N   UNL     1      43.059 -14.216   4.026  1.00  0.00    -0.223 NA
HETATM    3  C   UNL     1      42.922 -14.536   5.339  1.00  0.00     0.106 A 
HETATM    4  N   UNL     1      42.280 -13.756   6.227  1.00  0.00    -0.347 N 
HETATM    5  H   UNL     1      42.251 -14.023   7.215  1.00  0.00     0.167 HD
HETATM    6  C   UNL     1      41.751 -12.616   5.794  1.00  0.00     0.020 A 
HETATM    7  C   UNL     1      41.851 -12.241   4.465  1.00  0.00     0.005 A 
HETATM    8  C   UNL     1      41.198 -10.915   4.245  1.00  0.00     0.044 C 
HETATM    9  C   UNL     1      40.348 -10.778   5.523  1.00  0.00     0.011 C 
HETATM   10  C   UNL     1      41.055 -11.586   6.623  1.00  0.00     0.058 C 
ENDROOT
BRANCH   3  11
HETATM   11  C   UNL     1      43.549 -15.808   5.831  1.00  0.00     0.085 C 
BRANCH  11  12
HETATM   12  C   UNL     1      42.541 -16.880   6.322  1.00  0.00     0.021 C 
HETATM   13  C   UNL     1      41.455 -17.230   5.304  1.00  0.00     0.181 C 
HETATM   14  O   UNL     1      42.062 -17.495   4.033  1.00  0.00    -0.347 OA
HETATM   15  C   UNL     1      42.997 -18.508   4.098  1.00  0.00     0.108 A 
HETATM   16  C   UNL     1      43.616 -18.887   5.303  1.00  0.00    -0.021 A 
HETATM   17  C   UNL     1      43.385 -19.105   2.896  1.00  0.00     0.102 A 
HETATM   18  C   UNL     1      43.280 -18.197   6.603  1.00  0.00     0.048 C 
HETATM   19  C   UNL     1      44.572 -19.911   5.288  1.00  0.00     0.010 A 
HETATM   20  C   UNL     1      44.944 -20.511   4.082  1.00  0.00     0.003 A 
HETATM   21  C   UNL     1      44.366 -20.095   2.884  1.00  0.00     0.039 A 
BRANCH  17  22
HETATM   22  O   UNL     1      42.871 -18.677   1.700  1.00  0.00    -0.353 OA
HETATM   23  C   UNL     1      43.759 -17.736   1.092  1.00  0.00     0.210 C 
ENDBRANCH  17  22
ENDBRANCH  11  12
ENDBRANCH   3  11
BRANCH   1  24
HETATM   24  N   UNL     1      42.569 -12.731   2.234  1.00  0.00    -0.281 NA
HETATM   25  C   UNL     1      42.106 -13.750   1.303  1.00  0.00     0.114 C 
HETATM   26  H   UNL     1      43.471 -12.350   1.962  1.00  0.00     0.128 HD
ENDBRANCH   1  24
TORSDOF 4
ENDMDL
MODEL 7
REMARK VINA RESULT:      -7.5      1.672      3.081
REMARK  4 active torsions:
REMARK  status: ('A' for Active; 'I' for Inactive)
REMARK    1  A    between atoms: N_2  and  C_3 
REMARK    2  A    between atoms: C_5  and  C_6 
REMARK    3  A    between atoms: C_6  and  C_7 
REMARK    4  A    between atoms: C_13  and  O_14 
ROOT
HETATM    1  C   UNL     1      44.171 -19.706   2.960  1.00  0.00     0.113 A 
HETATM    2  N   UNL     1      43.756 -18.946   1.926  1.00  0.00    -0.223 NA
HETATM    3  C   UNL     1      43.435 -17.647   2.162  1.00  0.00     0.106 A 
HETATM    4  N   UNL     1      43.505 -17.078   3.378  1.00  0.00    -0.347 N 
HETATM    5  H   UNL     1      43.203 -16.107   3.507  1.00  0.00     0.167 HD
HETATM    6  C   UNL     1      43.913 -17.825   4.399  1.00  0.00     0.020 A 
HETATM    7  C   UNL     1      44.262 -19.153   4.218  1.00  0.00     0.005 A 
HETATM    8  C   UNL     1      44.660 -19.770   5.520  1.00  0.00     0.044 C 
HETATM    9  C   UNL     1      44.899 -18.522   6.390  1.00  0.00     0.011 C 
HETATM   10  C   UNL     1      44.003 -17.404   5.830  1.00  0.00     0.058 C 
ENDROOT
BRANCH   3  11
HETATM   11  C   UNL     1      42.943 -16.816   1.013  1.00  0.00     0.085 C 
BRANCH  11  12
HETATM   12  C   UNL     1      41.417 -16.533   1.025  1.00  0.00     0.021 C 
HETATM   13  C   UNL     1      41.039 -15.176   1.621  1.00  0.00     0.181 C 
HETATM   14  O   UNL     1      41.849 -14.153   1.028  1.00  0.00    -0.347 OA
HETATM   15  C   UNL     1      41.728 -14.119  -0.346  1.00  0.00     0.108 A 
HETATM   16  C   UNL     1      41.273 -15.221  -1.091  1.00  0.00    -0.021 A 
HETATM   17  C   UNL     1      42.162 -12.963  -1.001  1.00  0.00     0.102 A 
HETATM   18  C   UNL     1      40.882 -16.512  -0.414  1.00  0.00     0.048 C 
HETATM   19  C   UNL     1      41.198 -15.118  -2.487  1.00  0.00     0.010 A 
HETATM   20  C   UNL     1      41.622 -13.954  -3.133  1.00  0.00     0.003 A 
HETATM   21  C   UNL     1      42.123 -12.884  -2.393  1.00  0.00     0.039 A 
BRANCH  17  22
HETATM   22  O   UNL     1      42.708 -11.920  -0.301  1.00  0.00    -0.353 OA
HETATM   23  C   UNL     1      41.897 -10.752  -0.447  1.00  0.00     0.210 C 
ENDBRANCH  17  22
ENDBRANCH  11  12
ENDBRANCH   3  11
BRANCH   1  24
HETATM   24  N   UNL     1      44.585 -21.017   2.751  1.00  0.00    -0.281 NA
HETATM   25  C   UNL     1      43.916 -21.743   1.681  1.00  0.00     0.114 C 
HETATM   26  H   UNL     1      44.615 -21.553   3.614  1.00  0.00     0.128 HD
ENDBRANCH   1  24
TORSDOF 4
ENDMDL
MODEL 8
REMARK VINA RESULT:      -7.3      2.146      3.866
REMARK  4 active torsions:
REMARK  status: ('A' for Active; 'I' for Inactive)
REMARK    1  A    between atoms: N_2  and  C_3 
REMARK    2  A    between atoms: C_5  and  C_6 
REMARK    3  A    between atoms: C_6  and  C_7 
REMARK    4  A    between atoms: C_13  and  O_14 
ROOT
HETATM    1  C   UNL     1      43.446 -18.987   2.984  1.00  0.00     0.113 A 
HETATM    2  N   UNL     1      42.476 -18.245   2.412  1.00  0.00    -0.223 NA
HETATM    3  C   UNL     1      41.769 -17.386   3.193  1.00  0.00     0.106 A 
HETATM    4  N   UNL     1      41.984 -17.240   4.512  1.00  0.00    -0.347 N 
HETATM    5  H   UNL     1      41.387 -16.614   5.061  1.00  0.00     0.167 HD
HETATM    6  C   UNL     1      42.939 -17.970   5.078  1.00  0.00     0.020 A 
HETATM    7  C   UNL     1      43.698 -18.856   4.332  1.00  0.00     0.005 A 
HETATM    8  C   UNL     1      44.680 -19.567   5.206  1.00  0.00     0.044 C 
HETATM    9  C   UNL     1      44.674 -18.675   6.461  1.00  0.00     0.011 C 
HETATM   10  C   UNL     1      43.293 -18.002   6.529  1.00  0.00     0.058 C 
ENDROOT
BRANCH   3  11
HETATM   11  C   UNL     1      40.670 -16.587   2.555  1.00  0.00     0.085 C 
BRANCH  11  12
HETATM   12  C   UNL     1      40.701 -15.070   2.879  1.00  0.00     0.021 C 
HETATM   13  C   UNL     1      41.778 -14.292   2.121  1.00  0.00     0.181 C 
HETATM   14  O   UNL     1      41.712 -14.622   0.727  1.00  0.00    -0.347 OA
HETATM   15  C   UNL     1      40.469 -14.365   0.186  1.00  0.00     0.108 A 
HETATM   16  C   UNL     1      39.308 -14.262   0.974  1.00  0.00    -0.021 A 
HETATM   17  C   UNL     1      40.377 -14.292  -1.207  1.00  0.00     0.102 A 
HETATM   18  C   UNL     1      39.367 -14.425   2.473  1.00  0.00     0.048 C 
HETATM   19  C   UNL     1      38.077 -14.020   0.349  1.00  0.00     0.010 A 
HETATM   20  C   UNL     1      37.997 -13.937  -1.043  1.00  0.00     0.003 A 
HETATM   21  C   UNL     1      39.142 -14.092  -1.823  1.00  0.00     0.039 A 
BRANCH  17  22
HETATM   22  O   UNL     1      41.477 -14.495  -1.997  1.00  0.00    -0.353 OA
HETATM   23  C   UNL     1      41.215 -14.051  -3.330  1.00  0.00     0.210 C 
ENDBRANCH  17  22
ENDBRANCH  11  12
ENDBRANCH   3  11
BRANCH   1  24
HETATM   24  N   UNL     1      44.246 -19.821   2.210  1.00  0.00    -0.281 NA
HETATM   25  C   UNL     1      43.689 -21.123   1.875  1.00  0.00     0.114 C 
HETATM   26  H   UNL     1      45.192 -19.894   2.576  1.00  0.00     0.128 HD
ENDBRANCH   1  24
TORSDOF 4
ENDMDL
MODEL 9
REMARK VINA RESULT:      -7.3      2.648      6.414
REMARK  4 active torsions:
REMARK  status: ('A' for Active; 'I' for Inactive)
REMARK    1  A    between atoms: N_2  and  C_3 
REMARK    2  A    between atoms: C_5  and  C_6 
REMARK    3  A    between atoms: C_6  and  C_7 
REMARK    4  A    between atoms: C_13  and  O_14 
ROOT
HETATM    1  C   UNL     1      42.607 -14.084   2.110  1.00  0.00     0.113 A 
HETATM    2  N   UNL     1      43.355 -15.154   2.447  1.00  0.00    -0.223 NA
HETATM    3  C   UNL     1      43.313 -16.254   1.650  1.00  0.00     0.106 A 
HETATM    4  N   UNL     1      42.558 -16.333   0.541  1.00  0.00    -0.347 N 
HETATM    5  H   UNL     1      42.526 -17.206   0.005  1.00  0.00     0.167 HD
HETATM    6  C   UNL     1      41.819 -15.280   0.206  1.00  0.00     0.020 A 
HETATM    7  C   UNL     1      41.828 -14.128   0.975  1.00  0.00     0.005 A 
HETATM    8  C   UNL     1      40.899 -13.109   0.399  1.00  0.00     0.044 C 
HETATM    9  C   UNL     1      40.680 -13.663  -1.021  1.00  0.00     0.011 C 
HETATM   10  C   UNL     1      40.872 -15.187  -0.945  1.00  0.00     0.058 C 
ENDROOT
BRANCH   3  11
HETATM   11  C   UNL     1      44.123 -17.453   2.049  1.00  0.00     0.085 C 
BRANCH  11  12
HETATM   12  C   UNL     1      43.294 -18.740   2.302  1.00  0.00     0.021 C 
HETATM   13  C   UNL     1      43.934 -19.709   3.296  1.00  0.00     0.181 C 
HETATM   14  O   UNL     1      44.331 -18.993   4.473  1.00  0.00    -0.347 OA
HETATM   15  C   UNL     1      43.275 -18.333   5.066  1.00  0.00     0.108 A 
HETATM   16  C   UNL     1      42.100 -18.004   4.365  1.00  0.00    -0.021 A 
HETATM   17  C   UNL     1      43.440 -17.912   6.388  1.00  0.00     0.102 A 
HETATM   18  C   UNL     1      41.933 -18.368   2.910  1.00  0.00     0.048 C 
HETATM   19  C   UNL     1      41.078 -17.313   5.030  1.00  0.00     0.010 A 
HETATM   20  C   UNL     1      41.247 -16.908   6.356  1.00  0.00     0.003 A 
HETATM   21  C   UNL     1      42.435 -17.189   7.030  1.00  0.00     0.039 A 
BRANCH  17  22
HETATM   22  O   UNL     1      44.617 -18.129   7.054  1.00  0.00    -0.353 OA
HETATM   23  C   UNL     1      44.357 -18.682   8.346  1.00  0.00     0.210 C 
ENDBRANCH  17  22
ENDBRANCH  11  12
ENDBRANCH   3  11
BRANCH   1  24
HETATM   24  N   UNL     1      42.679 -12.910   2.852  1.00  0.00    -0.281 NA
HETATM   25  C   UNL     1      42.241 -12.993   4.237  1.00  0.00     0.114 C 
HETATM   26  H   UNL     1      42.260 -12.122   2.367  1.00  0.00     0.128 HD
ENDBRANCH   1  24
TORSDOF 4
ENDMDL
MODEL 10
REMARK VINA RESULT:      -7.2      1.832      2.800
REMARK  4 active torsions:
REMARK  status: ('A' for Active; 'I' for Inactive)
REMARK    1  A    between atoms: N_2  and  C_3 
REMARK    2  A    between atoms: C_5  and  C_6 
REMARK    3  A    between atoms: C_6  and  C_7 
REMARK    4  A    between atoms: C_13  and  O_14 
ROOT
HETATM    1  C   UNL     1      44.043 -19.016   4.563  1.00  0.00     0.113 A 
HETATM    2  N   UNL     1      43.232 -18.006   4.184  1.00  0.00    -0.223 NA
HETATM    3  C   UNL     1      42.607 -18.091   2.981  1.00  0.00     0.106 A 
HETATM    4  N   UNL     1      42.758 -19.131   2.142  1.00  0.00    -0.347 N 
HETATM    5  H   UNL     1      42.301 -19.119   1.225  1.00  0.00     0.167 HD
HETATM    6  C   UNL     1      43.557 -20.127   2.512  1.00  0.00     0.020 A 
HETATM    7  C   UNL     1      44.214 -20.100   3.731  1.00  0.00     0.005 A 
HETATM    8  C   UNL     1      45.063 -21.319   3.894  1.00  0.00     0.044 C 
HETATM    9  C   UNL     1      44.483 -22.242   2.806  1.00  0.00     0.011 C 
HETATM   10  C   UNL     1      43.904 -21.336   1.706  1.00  0.00     0.058 C 
ENDROOT
BRANCH   3  11
HETATM   11  C   UNL     1      41.731 -16.950   2.552  1.00  0.00     0.085 C 
BRANCH  11  12
HETATM   12  C   UNL     1      42.478 -15.798   1.827  1.00  0.00     0.021 C 
HETATM   13  C   UNL     1      41.587 -14.613   1.455  1.00  0.00     0.181 C 
HETATM   14  O   UNL     1      40.814 -14.221   2.597  1.00  0.00    -0.347 OA
HETATM   15  C   UNL     1      41.605 -13.899   3.680  1.00  0.00     0.108 A 
HETATM   16  C   UNL     1      42.931 -14.353   3.809  1.00  0.00    -0.021 A 
HETATM   17  C   UNL     1      41.016 -13.164   4.712  1.00  0.00     0.102 A 
HETATM   18  C   UNL     1      43.563 -15.222   2.749  1.00  0.00     0.048 C 
HETATM   19  C   UNL     1      43.666 -14.002   4.949  1.00  0.00     0.010 A 
HETATM   20  C   UNL     1      43.071 -13.256   5.970  1.00  0.00     0.003 A 
HETATM   21  C   UNL     1      41.741 -12.854   5.862  1.00  0.00     0.039 A 
BRANCH  17  22
HETATM   22  O   UNL     1      39.695 -12.804   4.654  1.00  0.00    -0.353 OA
HETATM   23  C   UNL     1      39.143 -12.746   5.972  1.00  0.00     0.210 C 
ENDBRANCH  17  22
ENDBRANCH  11  12
ENDBRANCH   3  11
BRANCH   1  24
HETATM   24  N   UNL     1      44.641 -19.008   5.818  1.00  0.00    -0.281 NA
HETATM   25  C   UNL     1      43.780 -19.333   6.946  1.00  0.00     0.114 C 
HETATM   26  H   UNL     1      45.180 -18.162   5.982  1.00  0.00     0.128 HD
ENDBRANCH   1  24
TORSDOF 4
ENDMDL
