MODEL 1
REMARK VINA RESULT:      -9.9      0.000      0.000
REMARK  5 active torsions:
REMARK  status: ('A' for Active; 'I' for Inactive)
REMARK    1  A    between atoms: C_5  and  C_6 
REMARK    2  A    between atoms: C_10  and  C_11 
REMARK       I    between atoms: C_11  and  N_12 
REMARK    3  A    between atoms: N_12  and  N_13 
REMARK       I    between atoms: N_13  and  C_14 
REMARK       I    between atoms: C_14  and  N_15 
REMARK    4  A    between atoms: N_15  and  C_16 
REMARK    5  A    between atoms: C_16  and  C_17 
ROOT
HETATM    1  C   UNL     1      43.562 -14.076   6.656  1.00  0.00     0.288 C 
HETATM    2  N   UNL     1      44.176 -13.722   7.836  1.00  0.00    -0.261 N 
HETATM    3  O   UNL     1      42.854 -13.294   6.024  1.00  0.00    -0.264 OA
HETATM    4  H   UNL     1      44.736 -14.355   8.401  1.00  0.00     0.190 HD
ENDROOT
BRANCH   2   5
HETATM    5  N   UNL     1      43.986 -12.435   8.362  1.00  0.00    -0.249 N 
HETATM    6  C   UNL     1      44.107 -12.316   9.730  1.00  0.00     0.334 C 
HETATM    7  N   UNL     1      43.798 -11.059  10.177  1.00  0.00    -0.341 N 
HETATM    8  O   UNL     1      44.479 -13.241  10.446  1.00  0.00    -0.246 OA
HETATM    9  H   UNL     1      43.790 -10.321   9.489  1.00  0.00     0.164 HD
HETATM   10  H   UNL     1      43.308 -11.860   7.870  1.00  0.00     0.192 HD
BRANCH   7  11
HETATM   11  C   UNL     1      44.012 -10.687  11.563  1.00  0.00     0.129 C 
BRANCH  11  12
HETATM   12  C   UNL     1      43.334  -9.352  11.929  1.00  0.00     0.004 C 
HETATM   13  C   UNL     1      41.873  -9.231  11.450  1.00  0.00     0.010 C 
HETATM   14  C   UNL     1      40.807  -9.917  12.322  1.00  0.00    -0.018 C 
HETATM   15  C   UNL     1      41.018  -9.617  13.810  1.00  0.00     0.004 C 
HETATM   16  C   UNL     1      40.682 -11.417  12.058  1.00  0.00     0.010 C 
HETATM   17  C   UNL     1      42.451  -9.860  14.271  1.00  0.00     0.001 C 
HETATM   18  C   UNL     1      43.444  -9.061  13.432  1.00  0.00     0.006 C 
ENDBRANCH  11  12
ENDBRANCH   7  11
ENDBRANCH   2   5
BRANCH   1  19
HETATM   19  C   UNL     1      43.803 -15.427   6.228  1.00  0.00     0.121 A 
HETATM   20  N   UNL     1      44.489 -16.321   7.000  1.00  0.00    -0.272 N 
HETATM   21  N   UNL     1      44.642 -17.529   6.440  1.00  0.00    -0.174 NA
HETATM   22  H   UNL     1      44.880 -16.155   7.923  1.00  0.00     0.189 HD
HETATM   23  C   UNL     1      44.028 -17.435   5.249  1.00  0.00     0.089 A 
HETATM   24  C   UNL     1      43.483 -16.130   5.083  1.00  0.00     0.071 A 
BRANCH  23  25
HETATM   25  C   UNL     1      43.992 -18.557   4.302  1.00  0.00    -0.006 A 
HETATM   26  C   UNL     1      43.252 -18.481   3.114  1.00  0.00     0.014 A 
HETATM   27  C   UNL     1      43.247 -19.545   2.204  1.00  0.00     0.007 A 
HETATM   28  C   UNL     1      43.972 -20.711   2.469  1.00  0.00    -0.062 A 
HETATM   29  C   UNL     1      44.005 -21.836   1.479  1.00  0.00     0.048 C 
HETATM   30  C   UNL     1      44.713 -20.791   3.653  1.00  0.00     0.007 A 
HETATM   31  C   UNL     1      44.717 -19.728   4.562  1.00  0.00     0.014 A 
ENDBRANCH  23  25
ENDBRANCH   1  19
TORSDOF 5
ENDMDL
MODEL 2
REMARK VINA RESULT:      -9.5      1.533     10.998
REMARK  5 active torsions:
REMARK  status: ('A' for Active; 'I' for Inactive)
REMARK    1  A    between atoms: C_5  and  C_6 
REMARK    2  A    between atoms: C_10  and  C_11 
REMARK       I    between atoms: C_11  and  N_12 
REMARK    3  A    between atoms: N_12  and  N_13 
REMARK       I    between atoms: N_13  and  C_14 
REMARK       I    between atoms: C_14  and  N_15 
REMARK    4  A    between atoms: N_15  and  C_16 
REMARK    5  A    between atoms: C_16  and  C_17 
ROOT
HETATM    1  C   UNL     1      45.095 -12.972   8.230  1.00  0.00     0.288 C 
HETATM    2  N   UNL     1      44.123 -13.905   7.952  1.00  0.00    -0.261 N 
HETATM    3  O   UNL     1      46.134 -12.892   7.577  1.00  0.00    -0.264 OA
HETATM    4  H   UNL     1      43.271 -14.022   8.496  1.00  0.00     0.190 HD
ENDROOT
BRANCH   2   5
HETATM    5  N   UNL     1      44.311 -14.818   6.903  1.00  0.00    -0.249 N 
HETATM    6  C   UNL     1      43.301 -14.886   5.969  1.00  0.00     0.334 C 
HETATM    7  N   UNL     1      43.506 -15.874   5.043  1.00  0.00    -0.341 N 
HETATM    8  O   UNL     1      42.344 -14.117   5.969  1.00  0.00    -0.246 OA
HETATM    9  H   UNL     1      44.444 -16.241   4.970  1.00  0.00     0.164 HD
HETATM   10  H   UNL     1      44.821 -15.662   7.149  1.00  0.00     0.192 HD
BRANCH   7  11
HETATM   11  C   UNL     1      42.637 -16.008   3.889  1.00  0.00     0.129 C 
BRANCH  11  12
HETATM   12  C   UNL     1      42.019 -17.415   3.774  1.00  0.00     0.004 C 
HETATM   13  C   UNL     1      41.897 -17.937   2.328  1.00  0.00     0.010 C 
HETATM   14  C   UNL     1      43.171 -18.535   1.706  1.00  0.00    -0.018 C 
HETATM   15  C   UNL     1      43.876 -19.493   2.674  1.00  0.00     0.004 C 
HETATM   16  C   UNL     1      44.130 -17.479   1.156  1.00  0.00     0.010 C 
HETATM   17  C   UNL     1      44.080 -18.895   4.062  1.00  0.00     0.001 C 
HETATM   18  C   UNL     1      42.758 -18.426   4.662  1.00  0.00     0.006 C 
ENDBRANCH  11  12
ENDBRANCH   7  11
ENDBRANCH   2   5
BRANCH   1  19
HETATM   19  C   UNL     1      44.809 -12.110   9.344  1.00  0.00     0.121 A 
HETATM   20  N   UNL     1      45.630 -11.073   9.687  1.00  0.00    -0.272 N 
HETATM   21  N   UNL     1      45.226 -10.385  10.764  1.00  0.00    -0.174 NA
HETATM   22  H   UNL     1      46.487 -10.793   9.220  1.00  0.00     0.189 HD
HETATM   23  C   UNL     1      44.087 -10.985  11.148  1.00  0.00     0.089 A 
HETATM   24  C   UNL     1      43.790 -12.070  10.275  1.00  0.00     0.071 A 
BRANCH  23  25
HETATM   25  C   UNL     1      43.332 -10.539  12.325  1.00  0.00    -0.006 A 
HETATM   26  C   UNL     1      42.157 -11.191  12.724  1.00  0.00     0.014 A 
HETATM   27  C   UNL     1      41.460 -10.776  13.866  1.00  0.00     0.007 A 
HETATM   28  C   UNL     1      41.916  -9.694  14.623  1.00  0.00    -0.062 A 
HETATM   29  C   UNL     1      41.198  -9.272  15.870  1.00  0.00     0.048 C 
HETATM   30  C   UNL     1      43.089  -9.040  14.231  1.00  0.00     0.007 A 
HETATM   31  C   UNL     1      43.784  -9.455  13.090  1.00  0.00     0.014 A 
ENDBRANCH  23  25
ENDBRANCH   1  19
TORSDOF 5
ENDMDL
MODEL 3
REMARK VINA RESULT:      -9.2      1.477      1.762
REMARK  5 active torsions:
REMARK  status: ('A' for Active; 'I' for Inactive)
REMARK    1  A    between atoms: C_5  and  C_6 
REMARK    2  A    between atoms: C_10  and  C_11 
REMARK       I    between atoms: C_11  and  N_12 
REMARK    3  A    between atoms: N_12  and  N_13 
REMARK       I    between atoms: N_13  and  C_14 
REMARK       I    between atoms: C_14  and  N_15 
REMARK    4  A    between atoms: N_15  and  C_16 
REMARK    5  A    between atoms: C_16  and  C_17 
ROOT
HETATM    1  C   UNL     1      42.358 -13.485   5.778  1.00  0.00     0.288 C 
HETATM    2  N   UNL     1      43.265 -13.098   6.738  1.00  0.00    -0.261 N 
HETATM    3  O   UNL     1      41.241 -12.979   5.688  1.00  0.00    -0.264 OA
HETATM    4  H   UNL     1      44.181 -13.522   6.863  1.00  0.00     0.190 HD
ENDROOT
BRANCH   2   5
HETATM    5  N   UNL     1      42.915 -12.108   7.669  1.00  0.00    -0.249 N 
HETATM    6  C   UNL     1      43.599 -12.132   8.865  1.00  0.00     0.334 C 
HETATM    7  N   UNL     1      43.126 -11.208   9.759  1.00  0.00    -0.341 N 
HETATM    8  O   UNL     1      44.543 -12.887   9.075  1.00  0.00    -0.246 OA
HETATM    9  H   UNL     1      42.557 -10.463   9.385  1.00  0.00     0.164 HD
HETATM   10  H   UNL     1      41.939 -11.826   7.658  1.00  0.00     0.192 HD
BRANCH   7  11
HETATM   11  C   UNL     1      43.809 -10.969  11.017  1.00  0.00     0.129 C 
BRANCH  11  12
HETATM   12  C   UNL     1      43.391  -9.640  11.674  1.00  0.00     0.004 C 
HETATM   13  C   UNL     1      41.954  -9.192  11.339  1.00  0.00     0.010 C 
HETATM   14  C   UNL     1      40.824  -9.853  12.148  1.00  0.00    -0.018 C 
HETATM   15  C   UNL     1      41.149  -9.889  13.646  1.00  0.00     0.004 C 
HETATM   16  C   UNL     1      40.428 -11.232  11.621  1.00  0.00     0.010 C 
HETATM   17  C   UNL     1      42.538 -10.446  13.942  1.00  0.00     0.001 C 
HETATM   18  C   UNL     1      43.616  -9.671  13.192  1.00  0.00     0.006 C 
ENDBRANCH  11  12
ENDBRANCH   7  11
ENDBRANCH   2   5
BRANCH   1  19
HETATM   19  C   UNL     1      42.812 -14.528   4.899  1.00  0.00     0.121 A 
HETATM   20  N   UNL     1      43.270 -14.265   3.639  1.00  0.00    -0.272 N 
HETATM   21  N   UNL     1      43.632 -15.354   2.947  1.00  0.00    -0.174 NA
HETATM   22  H   UNL     1      43.353 -13.354   3.198  1.00  0.00     0.189 HD
HETATM   23  C   UNL     1      43.411 -16.382   3.784  1.00  0.00     0.089 A 
HETATM   24  C   UNL     1      42.900 -15.901   5.023  1.00  0.00     0.071 A 
BRANCH  23  25
HETATM   25  C   UNL     1      43.662 -17.774   3.389  1.00  0.00    -0.006 A 
HETATM   26  C   UNL     1      44.221 -18.694   4.286  1.00  0.00     0.014 A 
HETATM   27  C   UNL     1      44.430 -20.026   3.909  1.00  0.00     0.007 A 
HETATM   28  C   UNL     1      44.095 -20.462   2.624  1.00  0.00    -0.062 A 
HETATM   29  C   UNL     1      44.276 -21.897   2.229  1.00  0.00     0.048 C 
HETATM   30  C   UNL     1      43.536 -19.549   1.725  1.00  0.00     0.007 A 
HETATM   31  C   UNL     1      43.328 -18.218   2.102  1.00  0.00     0.014 A 
ENDBRANCH  23  25
ENDBRANCH   1  19
TORSDOF 5
ENDMDL
MODEL 4
REMARK VINA RESULT:      -9.0      2.082      2.701
REMARK  5 active torsions:
REMARK  status: ('A' for Active; 'I' for Inactive)
REMARK    1  A    between atoms: C_5  and  C_6 
REMARK    2  A    between atoms: C_10  and  C_11 
REMARK       I    between atoms: C_11  and  N_12 
REMARK    3  A    between atoms: N_12  and  N_13 
REMARK       I    between atoms: N_13  and  C_14 
REMARK       I    between atoms: C_14  and  N_15 
REMARK    4  A    between atoms: N_15  and  C_16 
REMARK    5  A    between atoms: C_16  and  C_17 
ROOT
HETATM    1  C   UNL     1      41.077 -13.763   5.669  1.00  0.00     0.288 C 
HETATM    2  N   UNL     1      41.764 -12.706   6.223  1.00  0.00    -0.261 N 
HETATM    3  O   UNL     1      39.860 -13.893   5.795  1.00  0.00    -0.264 OA
HETATM    4  H   UNL     1      42.772 -12.590   6.169  1.00  0.00     0.190 HD
ENDROOT
BRANCH   2   5
HETATM    5  N   UNL     1      41.074 -11.744   6.976  1.00  0.00    -0.249 N 
HETATM    6  C   UNL     1      41.800 -11.116   7.965  1.00  0.00     0.334 C 
HETATM    7  N   UNL     1      41.031 -10.275   8.727  1.00  0.00    -0.341 N 
HETATM    8  O   UNL     1      43.006 -11.285   8.113  1.00  0.00    -0.246 OA
HETATM    9  H   UNL     1      40.140 -10.000   8.341  1.00  0.00     0.164 HD
HETATM   10  H   UNL     1      40.087 -11.935   7.126  1.00  0.00     0.192 HD
BRANCH   7  11
HETATM   11  C   UNL     1      41.636  -9.406   9.719  1.00  0.00     0.129 C 
BRANCH  11  12
HETATM   12  C   UNL     1      41.198  -9.753  11.155  1.00  0.00     0.004 C 
HETATM   13  C   UNL     1      41.901 -10.991  11.749  1.00  0.00     0.010 C 
HETATM   14  C   UNL     1      43.313 -10.769  12.320  1.00  0.00    -0.018 C 
HETATM   15  C   UNL     1      43.375  -9.516  13.200  1.00  0.00     0.004 C 
HETATM   16  C   UNL     1      44.405 -10.766  11.251  1.00  0.00     0.010 C 
HETATM   17  C   UNL     1      42.772  -8.285  12.530  1.00  0.00     0.001 C 
HETATM   18  C   UNL     1      41.334  -8.544  12.090  1.00  0.00     0.006 C 
ENDBRANCH  11  12
ENDBRANCH   7  11
ENDBRANCH   2   5
BRANCH   1  19
HETATM   19  C   UNL     1      41.888 -14.702   4.945  1.00  0.00     0.121 A 
HETATM   20  N   UNL     1      42.892 -14.301   4.111  1.00  0.00    -0.272 N 
HETATM   21  N   UNL     1      43.534 -15.305   3.498  1.00  0.00    -0.174 NA
HETATM   22  H   UNL     1      43.181 -13.346   3.919  1.00  0.00     0.189 HD
HETATM   23  C   UNL     1      42.934 -16.420   3.947  1.00  0.00     0.089 A 
HETATM   24  C   UNL     1      41.898 -16.081   4.864  1.00  0.00     0.071 A 
BRANCH  23  25
HETATM   25  C   UNL     1      43.334 -17.757   3.490  1.00  0.00    -0.006 A 
HETATM   26  C   UNL     1      44.119 -18.595   4.293  1.00  0.00     0.014 A 
HETATM   27  C   UNL     1      44.471 -19.879   3.859  1.00  0.00     0.007 A 
HETATM   28  C   UNL     1      44.056 -20.346   2.609  1.00  0.00    -0.062 A 
HETATM   29  C   UNL     1      44.393 -21.735   2.158  1.00  0.00     0.048 C 
HETATM   30  C   UNL     1      43.271 -19.514   1.803  1.00  0.00     0.007 A 
HETATM   31  C   UNL     1      42.921 -18.231   2.238  1.00  0.00     0.014 A 
ENDBRANCH  23  25
ENDBRANCH   1  19
TORSDOF 5
ENDMDL
MODEL 5
REMARK VINA RESULT:      -8.8      3.251      3.946
REMARK  5 active torsions:
REMARK  status: ('A' for Active; 'I' for Inactive)
REMARK    1  A    between atoms: C_5  and  C_6 
REMARK    2  A    between atoms: C_10  and  C_11 
REMARK       I    between atoms: C_11  and  N_12 
REMARK    3  A    between atoms: N_12  and  N_13 
REMARK       I    between atoms: N_13  and  C_14 
REMARK       I    between atoms: C_14  and  N_15 
REMARK    4  A    between atoms: N_15  and  C_16 
REMARK    5  A    between atoms: C_16  and  C_17 
ROOT
HETATM    1  C   UNL     1      39.267 -12.378   6.415  1.00  0.00     0.288 C 
HETATM    2  N   UNL     1      39.435 -12.827   7.706  1.00  0.00    -0.261 N 
HETATM    3  O   UNL     1      38.756 -11.288   6.161  1.00  0.00    -0.264 OA
HETATM    4  H   UNL     1      39.819 -13.737   7.948  1.00  0.00     0.190 HD
ENDROOT
BRANCH   2   5
HETATM    5  N   UNL     1      38.997 -12.040   8.781  1.00  0.00    -0.249 N 
HETATM    6  C   UNL     1      39.943 -11.220   9.358  1.00  0.00     0.334 C 
HETATM    7  N   UNL     1      39.470 -10.570  10.466  1.00  0.00    -0.341 N 
HETATM    8  O   UNL     1      41.072 -11.083   8.896  1.00  0.00    -0.246 OA
HETATM    9  H   UNL     1      38.468 -10.534  10.579  1.00  0.00     0.164 HD
HETATM   10  H   UNL     1      38.280 -12.461   9.365  1.00  0.00     0.192 HD
BRANCH   7  11
HETATM   11  C   UNL     1      40.260  -9.547  11.125  1.00  0.00     0.129 C 
BRANCH  11  12
HETATM   12  C   UNL     1      40.410  -9.798  12.638  1.00  0.00     0.004 C 
HETATM   13  C   UNL     1      41.291 -11.012  12.995  1.00  0.00     0.010 C 
HETATM   14  C   UNL     1      42.813 -10.787  12.965  1.00  0.00    -0.018 C 
HETATM   15  C   UNL     1      43.205  -9.485  13.672  1.00  0.00     0.004 C 
HETATM   16  C   UNL     1      43.410 -10.872  11.560  1.00  0.00     0.010 C 
HETATM   17  C   UNL     1      42.387  -8.284  13.207  1.00  0.00     0.001 C 
HETATM   18  C   UNL     1      40.891  -8.537  13.370  1.00  0.00     0.006 C 
ENDBRANCH  11  12
ENDBRANCH   7  11
ENDBRANCH   2   5
BRANCH   1  19
HETATM   19  C   UNL     1      39.724 -13.279   5.394  1.00  0.00     0.121 A 
HETATM   20  N   UNL     1      39.480 -13.056   4.068  1.00  0.00    -0.272 N 
HETATM   21  N   UNL     1      39.957 -14.007   3.253  1.00  0.00    -0.174 NA
HETATM   22  H   UNL     1      38.984 -12.267   3.664  1.00  0.00     0.189 HD
HETATM   23  C   UNL     1      40.548 -14.895   4.070  1.00  0.00     0.089 A 
HETATM   24  C   UNL     1      40.426 -14.468   5.423  1.00  0.00     0.071 A 
BRANCH  23  25
HETATM   25  C   UNL     1      41.182 -16.117   3.561  1.00  0.00    -0.006 A 
HETATM   26  C   UNL     1      41.151 -16.438   2.197  1.00  0.00     0.014 A 
HETATM   27  C   UNL     1      41.784 -17.591   1.718  1.00  0.00     0.007 A 
HETATM   28  C   UNL     1      42.450 -18.453   2.594  1.00  0.00    -0.062 A 
HETATM   29  C   UNL     1      43.166 -19.666   2.081  1.00  0.00     0.048 C 
HETATM   30  C   UNL     1      42.485 -18.137   3.956  1.00  0.00     0.007 A 
HETATM   31  C   UNL     1      41.852 -16.985   4.434  1.00  0.00     0.014 A 
ENDBRANCH  23  25
ENDBRANCH   1  19
TORSDOF 5
ENDMDL
MODEL 6
REMARK VINA RESULT:      -8.7      1.625      2.085
REMARK  5 active torsions:
REMARK  status: ('A' for Active; 'I' for Inactive)
REMARK    1  A    between atoms: C_5  and  C_6 
REMARK    2  A    between atoms: C_10  and  C_11 
REMARK       I    between atoms: C_11  and  N_12 
REMARK    3  A    between atoms: N_12  and  N_13 
REMARK       I    between atoms: N_13  and  C_14 
REMARK       I    between atoms: C_14  and  N_15 
REMARK    4  A    between atoms: N_15  and  C_16 
REMARK    5  A    between atoms: C_16  and  C_17 
ROOT
HETATM    1  C   UNL     1      44.011 -13.513   7.334  1.00  0.00     0.288 C 
HETATM    2  N   UNL     1      43.116 -12.474   7.457  1.00  0.00    -0.261 N 
HETATM    3  O   UNL     1      44.930 -13.686   8.133  1.00  0.00    -0.264 OA
HETATM    4  H   UNL     1      42.370 -12.282   6.794  1.00  0.00     0.190 HD
ENDROOT
BRANCH   2   5
HETATM    5  N   UNL     1      43.252 -11.558   8.512  1.00  0.00    -0.249 N 
HETATM    6  C   UNL     1      42.128 -10.827   8.827  1.00  0.00     0.334 C 
HETATM    7  N   UNL     1      42.369  -9.880   9.787  1.00  0.00    -0.341 N 
HETATM    8  O   UNL     1      41.034 -11.035   8.311  1.00  0.00    -0.246 OA
HETATM    9  H   UNL     1      43.209  -9.991  10.334  1.00  0.00     0.164 HD
HETATM   10  H   UNL     1      44.168 -11.127   8.598  1.00  0.00     0.192 HD
BRANCH   7  11
HETATM   11  C   UNL     1      41.283  -9.111  10.366  1.00  0.00     0.129 C 
BRANCH  11  12
HETATM   12  C   UNL     1      41.647  -8.515  11.739  1.00  0.00     0.004 C 
HETATM   13  C   UNL     1      40.730  -8.974  12.892  1.00  0.00     0.010 C 
HETATM   14  C   UNL     1      41.033 -10.354  13.502  1.00  0.00    -0.018 C 
HETATM   15  C   UNL     1      42.532 -10.536  13.767  1.00  0.00     0.004 C 
HETATM   16  C   UNL     1      40.456 -11.514  12.691  1.00  0.00     0.010 C 
HETATM   17  C   UNL     1      43.399 -10.181  12.563  1.00  0.00     0.001 C 
HETATM   18  C   UNL     1      43.123  -8.760  12.083  1.00  0.00     0.006 C 
ENDBRANCH  11  12
ENDBRANCH   7  11
ENDBRANCH   2   5
BRANCH   1  19
HETATM   19  C   UNL     1      43.795 -14.370   6.201  1.00  0.00     0.121 A 
HETATM   20  N   UNL     1      43.255 -13.907   5.035  1.00  0.00    -0.272 N 
HETATM   21  N   UNL     1      43.102 -14.844   4.089  1.00  0.00    -0.174 NA
HETATM   22  H   UNL     1      42.967 -12.954   4.832  1.00  0.00     0.189 HD
HETATM   23  C   UNL     1      43.565 -15.975   4.648  1.00  0.00     0.089 A 
HETATM   24  C   UNL     1      44.014 -15.714   5.974  1.00  0.00     0.071 A 
BRANCH  23  25
HETATM   25  C   UNL     1      43.550 -17.257   3.934  1.00  0.00    -0.006 A 
HETATM   26  C   UNL     1      43.003 -17.367   2.648  1.00  0.00     0.014 A 
HETATM   27  C   UNL     1      43.019 -18.589   1.963  1.00  0.00     0.007 A 
HETATM   28  C   UNL     1      43.572 -19.728   2.556  1.00  0.00    -0.062 A 
HETATM   29  C   UNL     1      43.631 -21.028   1.812  1.00  0.00     0.048 C 
HETATM   30  C   UNL     1      44.120 -19.624   3.839  1.00  0.00     0.007 A 
HETATM   31  C   UNL     1      44.102 -18.403   4.522  1.00  0.00     0.014 A 
ENDBRANCH  23  25
ENDBRANCH   1  19
TORSDOF 5
ENDMDL
MODEL 7
REMARK VINA RESULT:      -8.4      2.999     11.205
REMARK  5 active torsions:
REMARK  status: ('A' for Active; 'I' for Inactive)
REMARK    1  A    between atoms: C_5  and  C_6 
REMARK    2  A    between atoms: C_10  and  C_11 
REMARK       I    between atoms: C_11  and  N_12 
REMARK    3  A    between atoms: N_12  and  N_13 
REMARK       I    between atoms: N_13  and  C_14 
REMARK       I    between atoms: C_14  and  N_15 
REMARK    4  A    between atoms: N_15  and  C_16 
REMARK    5  A    between atoms: C_16  and  C_17 
ROOT
HETATM    1  C   UNL     1      39.355 -11.801   7.018  1.00  0.00     0.288 C 
HETATM    2  N   UNL     1      39.616 -13.149   7.116  1.00  0.00    -0.261 N 
HETATM    3  O   UNL     1      38.927 -11.288   5.986  1.00  0.00    -0.264 OA
HETATM    4  H   UNL     1      40.005 -13.596   7.942  1.00  0.00     0.190 HD
ENDROOT
BRANCH   2   5
HETATM    5  N   UNL     1      39.413 -13.980   6.004  1.00  0.00    -0.249 N 
HETATM    6  C   UNL     1      40.547 -14.388   5.337  1.00  0.00     0.334 C 
HETATM    7  N   UNL     1      40.262 -15.102   4.203  1.00  0.00    -0.341 N 
HETATM    8  O   UNL     1      41.680 -14.149   5.745  1.00  0.00    -0.246 OA
HETATM    9  H   UNL     1      39.328 -15.477   4.125  1.00  0.00     0.164 HD
HETATM   10  H   UNL     1      38.561 -13.804   5.479  1.00  0.00     0.192 HD
BRANCH   7  11
HETATM   11  C   UNL     1      41.316 -15.750   3.444  1.00  0.00     0.129 C 
BRANCH  11  12
HETATM   12  C   UNL     1      41.159 -17.282   3.402  1.00  0.00     0.004 C 
HETATM   13  C   UNL     1      41.713 -17.941   2.123  1.00  0.00     0.010 C 
HETATM   14  C   UNL     1      43.233 -18.178   2.077  1.00  0.00    -0.018 C 
HETATM   15  C   UNL     1      43.748 -18.789   3.385  1.00  0.00     0.004 C 
HETATM   16  C   UNL     1      44.028 -16.934   1.682  1.00  0.00     0.010 C 
HETATM   17  C   UNL     1      43.270 -18.039   4.624  1.00  0.00     0.001 C 
HETATM   18  C   UNL     1      41.748 -17.940   4.658  1.00  0.00     0.006 C 
ENDBRANCH  11  12
ENDBRANCH   7  11
ENDBRANCH   2   5
BRANCH   1  19
HETATM   19  C   UNL     1      39.629 -11.041   8.207  1.00  0.00     0.121 A 
HETATM   20  N   UNL     1      39.461  -9.687   8.257  1.00  0.00    -0.272 N 
HETATM   21  N   UNL     1      39.783  -9.135   9.435  1.00  0.00    -0.174 NA
HETATM   22  H   UNL     1      39.131  -9.085   7.508  1.00  0.00     0.189 HD
HETATM   23  C   UNL     1      40.175 -10.166  10.201  1.00  0.00     0.089 A 
HETATM   24  C   UNL     1      40.086 -11.382   9.465  1.00  0.00     0.071 A 
BRANCH  23  25
HETATM   25  C   UNL     1      40.639  -9.977  11.581  1.00  0.00    -0.006 A 
HETATM   26  C   UNL     1      40.083  -8.989  12.406  1.00  0.00     0.014 A 
HETATM   27  C   UNL     1      40.512  -8.835  13.730  1.00  0.00     0.007 A 
HETATM   28  C   UNL     1      41.514  -9.659  14.252  1.00  0.00    -0.062 A 
HETATM   29  C   UNL     1      41.946  -9.528  15.682  1.00  0.00     0.048 C 
HETATM   30  C   UNL     1      42.071 -10.648  13.435  1.00  0.00     0.007 A 
HETATM   31  C   UNL     1      41.642 -10.799  12.112  1.00  0.00     0.014 A 
ENDBRANCH  23  25
ENDBRANCH   1  19
TORSDOF 5
ENDMDL
MODEL 8
REMARK VINA RESULT:      -8.3      2.951     11.100
REMARK  5 active torsions:
REMARK  status: ('A' for Active; 'I' for Inactive)
REMARK    1  A    between atoms: C_5  and  C_6 
REMARK    2  A    between atoms: C_10  and  C_11 
REMARK       I    between atoms: C_11  and  N_12 
REMARK    3  A    between atoms: N_12  and  N_13 
REMARK       I    between atoms: N_13  and  C_14 
REMARK       I    between atoms: C_14  and  N_15 
REMARK    4  A    between atoms: N_15  and  C_16 
REMARK    5  A    between atoms: C_16  and  C_17 
ROOT
HETATM    1  C   UNL     1      41.742 -11.143   6.933  1.00  0.00     0.288 C 
HETATM    2  N   UNL     1      41.576 -12.436   6.490  1.00  0.00    -0.261 N 
HETATM    3  O   UNL     1      41.521 -10.170   6.215  1.00  0.00    -0.264 OA
HETATM    4  H   UNL     1      41.785 -13.261   7.046  1.00  0.00     0.190 HD
ENDROOT
BRANCH   2   5
HETATM    5  N   UNL     1      41.162 -12.673   5.170  1.00  0.00    -0.249 N 
HETATM    6  C   UNL     1      42.043 -13.374   4.376  1.00  0.00     0.334 C 
HETATM    7  N   UNL     1      41.618 -13.468   3.077  1.00  0.00    -0.341 N 
HETATM    8  O   UNL     1      43.076 -13.873   4.811  1.00  0.00    -0.246 OA
HETATM    9  H   UNL     1      40.642 -13.278   2.903  1.00  0.00     0.164 HD
HETATM   10  H   UNL     1      40.589 -11.943   4.757  1.00  0.00     0.192 HD
BRANCH   7  11
HETATM   11  C   UNL     1      42.327 -14.295   2.118  1.00  0.00     0.129 C 
BRANCH  11  12
HETATM   12  C   UNL     1      41.399 -15.290   1.395  1.00  0.00     0.004 C 
HETATM   13  C   UNL     1      42.118 -16.209   0.387  1.00  0.00     0.010 C 
HETATM   14  C   UNL     1      42.841 -17.435   0.972  1.00  0.00    -0.018 C 
HETATM   15  C   UNL     1      41.968 -18.170   1.996  1.00  0.00     0.004 C 
HETATM   16  C   UNL     1      44.224 -17.110   1.536  1.00  0.00     0.010 C 
HETATM   17  C   UNL     1      41.368 -17.239   3.045  1.00  0.00     0.001 C 
HETATM   18  C   UNL     1      40.572 -16.112   2.394  1.00  0.00     0.006 C 
ENDBRANCH  11  12
ENDBRANCH   7  11
ENDBRANCH   2   5
BRANCH   1  19
HETATM   19  C   UNL     1      42.198 -11.020   8.290  1.00  0.00     0.121 A 
HETATM   20  N   UNL     1      43.405 -11.513   8.696  1.00  0.00    -0.272 N 
HETATM   21  N   UNL     1      43.664 -11.332   9.999  1.00  0.00    -0.174 NA
HETATM   22  H   UNL     1      44.094 -11.989   8.122  1.00  0.00     0.189 HD
HETATM   23  C   UNL     1      42.586 -10.687  10.477  1.00  0.00     0.089 A 
HETATM   24  C   UNL     1      41.646 -10.469   9.430  1.00  0.00     0.071 A 
BRANCH  23  25
HETATM   25  C   UNL     1      42.464 -10.320  11.893  1.00  0.00    -0.006 A 
HETATM   26  C   UNL     1      41.353 -10.712  12.652  1.00  0.00     0.014 A 
HETATM   27  C   UNL     1      41.259 -10.381  14.009  1.00  0.00     0.007 A 
HETATM   28  C   UNL     1      42.270  -9.643  14.632  1.00  0.00    -0.062 A 
HETATM   29  C   UNL     1      42.196  -9.324  16.095  1.00  0.00     0.048 C 
HETATM   30  C   UNL     1      43.382  -9.251  13.881  1.00  0.00     0.007 A 
HETATM   31  C   UNL     1      43.474  -9.581  12.524  1.00  0.00     0.014 A 
ENDBRANCH  23  25
ENDBRANCH   1  19
TORSDOF 5
ENDMDL
MODEL 9
REMARK VINA RESULT:      -8.1      3.140     11.174
REMARK  5 active torsions:
REMARK  status: ('A' for Active; 'I' for Inactive)
REMARK    1  A    between atoms: C_5  and  C_6 
REMARK    2  A    between atoms: C_10  and  C_11 
REMARK       I    between atoms: C_11  and  N_12 
REMARK    3  A    between atoms: N_12  and  N_13 
REMARK       I    between atoms: N_13  and  C_14 
REMARK       I    between atoms: C_14  and  N_15 
REMARK    4  A    between atoms: N_15  and  C_16 
REMARK    5  A    between atoms: C_16  and  C_17 
ROOT
HETATM    1  C   UNL     1      39.503 -12.824   5.835  1.00  0.00     0.288 C 
HETATM    2  N   UNL     1      39.788 -14.075   6.334  1.00  0.00    -0.261 N 
HETATM    3  O   UNL     1      39.276 -12.629   4.643  1.00  0.00    -0.264 OA
HETATM    4  H   UNL     1      40.016 -14.263   7.307  1.00  0.00     0.190 HD
ENDROOT
BRANCH   2   5
HETATM    5  N   UNL     1      39.847 -15.175   5.466  1.00  0.00    -0.249 N 
HETATM    6  C   UNL     1      40.891 -16.052   5.668  1.00  0.00     0.334 C 
HETATM    7  N   UNL     1      40.944 -17.034   4.715  1.00  0.00    -0.341 N 
HETATM    8  O   UNL     1      41.661 -15.959   6.619  1.00  0.00    -0.246 OA
HETATM    9  H   UNL     1      40.110 -17.179   4.165  1.00  0.00     0.164 HD
HETATM   10  H   UNL     1      39.517 -15.001   4.520  1.00  0.00     0.192 HD
BRANCH   7  11
HETATM   11  C   UNL     1      41.874 -18.141   4.836  1.00  0.00     0.129 C 
BRANCH  11  12
HETATM   12  C   UNL     1      43.260 -17.816   4.246  1.00  0.00     0.004 C 
HETATM   13  C   UNL     1      44.444 -18.222   5.147  1.00  0.00     0.010 C 
HETATM   14  C   UNL     1      44.863 -19.702   5.102  1.00  0.00    -0.018 C 
HETATM   15  C   UNL     1      44.949 -20.221   3.662  1.00  0.00     0.004 C 
HETATM   16  C   UNL     1      43.993 -20.605   5.978  1.00  0.00     0.010 C 
HETATM   17  C   UNL     1      43.708 -19.898   2.836  1.00  0.00     0.001 C 
HETATM   18  C   UNL     1      43.419 -18.400   2.835  1.00  0.00     0.006 C 
ENDBRANCH  11  12
ENDBRANCH   7  11
ENDBRANCH   2   5
BRANCH   1  19
HETATM   19  C   UNL     1      39.500 -11.768   6.810  1.00  0.00     0.121 A 
HETATM   20  N   UNL     1      39.484 -10.450   6.450  1.00  0.00    -0.272 N 
HETATM   21  N   UNL     1      39.506  -9.597   7.483  1.00  0.00    -0.174 NA
HETATM   22  H   UNL     1      39.462 -10.076   5.506  1.00  0.00     0.189 HD
HETATM   23  C   UNL     1      39.532 -10.380   8.575  1.00  0.00     0.089 A 
HETATM   24  C   UNL     1      39.523 -11.751   8.190  1.00  0.00     0.071 A 
BRANCH  23  25
HETATM   25  C   UNL     1      39.587  -9.822   9.931  1.00  0.00    -0.006 A 
HETATM   26  C   UNL     1      38.525  -9.068  10.450  1.00  0.00     0.014 A 
HETATM   27  C   UNL     1      38.574  -8.564  11.756  1.00  0.00     0.007 A 
HETATM   28  C   UNL     1      39.691  -8.794  12.564  1.00  0.00    -0.062 A 
HETATM   29  C   UNL     1      39.731  -8.294  13.977  1.00  0.00     0.048 C 
HETATM   30  C   UNL     1      40.753  -9.547  12.053  1.00  0.00     0.007 A 
HETATM   31  C   UNL     1      40.703 -10.049  10.748  1.00  0.00     0.014 A 
ENDBRANCH  23  25
ENDBRANCH   1  19
TORSDOF 5
ENDMDL
MODEL 10
REMARK VINA RESULT:      -8.0      2.713     10.906
REMARK  5 active torsions:
REMARK  status: ('A' for Active; 'I' for Inactive)
REMARK    1  A    between atoms: C_5  and  C_6 
REMARK    2  A    between atoms: C_10  and  C_11 
REMARK       I    between atoms: C_11  and  N_12 
REMARK    3  A    between atoms: N_12  and  N_13 
REMARK       I    between atoms: N_13  and  C_14 
REMARK       I    between atoms: C_14  and  N_15 
REMARK    4  A    between atoms: N_15  and  C_16 
REMARK    5  A    between atoms: C_16  and  C_17 
ROOT
HETATM    1  C   UNL     1      41.047 -12.015   5.827  1.00  0.00     0.288 C 
HETATM    2  N   UNL     1      40.407 -13.178   6.190  1.00  0.00    -0.261 N 
HETATM    3  O   UNL     1      41.309 -11.748   4.656  1.00  0.00    -0.264 OA
HETATM    4  H   UNL     1      40.210 -13.445   7.152  1.00  0.00     0.190 HD
ENDROOT
BRANCH   2   5
HETATM    5  N   UNL     1      40.051 -14.114   5.208  1.00  0.00    -0.249 N 
HETATM    6  C   UNL     1      40.899 -15.189   5.059  1.00  0.00     0.334 C 
HETATM    7  N   UNL     1      40.546 -15.996   4.010  1.00  0.00    -0.341 N 
HETATM    8  O   UNL     1      41.846 -15.397   5.812  1.00  0.00    -0.246 OA
HETATM    9  H   UNL     1      39.607 -15.893   3.653  1.00  0.00     0.164 HD
HETATM   10  H   UNL     1      39.583 -13.730   4.391  1.00  0.00     0.192 HD
BRANCH   7  11
HETATM   11  C   UNL     1      41.220 -17.261   3.782  1.00  0.00     0.129 C 
BRANCH  11  12
HETATM   12  C   UNL     1      42.463 -17.115   2.884  1.00  0.00     0.004 C 
HETATM   13  C   UNL     1      43.805 -17.226   3.637  1.00  0.00     0.010 C 
HETATM   14  C   UNL     1      44.299 -18.649   3.950  1.00  0.00    -0.018 C 
HETATM   15  C   UNL     1      44.172 -19.571   2.733  1.00  0.00     0.004 C 
HETATM   16  C   UNL     1      43.647 -19.257   5.192  1.00  0.00     0.010 C 
HETATM   17  C   UNL     1      42.792 -19.518   2.085  1.00  0.00     0.001 C 
HETATM   18  C   UNL     1      42.417 -18.091   1.700  1.00  0.00     0.006 C 
ENDBRANCH  11  12
ENDBRANCH   7  11
ENDBRANCH   2   5
BRANCH   1  19
HETATM   19  C   UNL     1      41.392 -11.145   6.918  1.00  0.00     0.121 A 
HETATM   20  N   UNL     1      41.615  -9.810   6.738  1.00  0.00    -0.272 N 
HETATM   21  N   UNL     1      41.948  -9.151   7.856  1.00  0.00    -0.174 NA
HETATM   22  H   UNL     1      41.557  -9.294   5.865  1.00  0.00     0.189 HD
HETATM   23  C   UNL     1      41.941 -10.086   8.821  1.00  0.00     0.089 A 
HETATM   24  C   UNL     1      41.590 -11.352   8.269  1.00  0.00     0.071 A 
BRANCH  23  25
HETATM   25  C   UNL     1      42.282  -9.770  10.213  1.00  0.00    -0.006 A 
HETATM   26  C   UNL     1      41.490  -8.902  10.976  1.00  0.00     0.014 A 
HETATM   27  C   UNL     1      41.808  -8.629  12.313  1.00  0.00     0.007 A 
HETATM   28  C   UNL     1      42.931  -9.211  12.909  1.00  0.00    -0.062 A 
HETATM   29  C   UNL     1      43.252  -8.957  14.351  1.00  0.00     0.048 C 
HETATM   30  C   UNL     1      43.724 -10.080  12.153  1.00  0.00     0.007 A 
HETATM   31  C   UNL     1      43.406 -10.350  10.817  1.00  0.00     0.014 A 
ENDBRANCH  23  25
ENDBRANCH   1  19
TORSDOF 5
ENDMDL
