MODEL 1
REMARK VINA RESULT:      -7.3      0.000      0.000
REMARK  5 active torsions:
REMARK  status: ('A' for Active; 'I' for Inactive)
REMARK    1  A    between atoms: C_7  and  O_8 
REMARK    2  A    between atoms: O_8  and  C_9 
REMARK    3  A    between atoms: C_12  and  N_13 
REMARK    4  A    between atoms: N_13  and  C_16 
REMARK    5  A    between atoms: C_16  and  C_17 
ROOT
HETATM    1  C   UNL     1      43.925 -19.069   2.671  1.00  0.00     0.028 A 
HETATM    2  C   UNL     1      44.273 -20.357   3.067  1.00  0.00     0.062 A 
HETATM    3  C   UNL     1      44.264 -21.449   2.148  1.00  0.00     0.101 C 
HETATM    4  N   UNL     1      44.266 -22.352   1.421  1.00  0.00    -0.191 NA
HETATM    5  C   UNL     1      44.638 -20.556   4.394  1.00  0.00     0.142 A 
HETATM    6  N   UNL     1      44.679 -19.576   5.339  1.00  0.00    -0.236 NA
HETATM    7  C   UNL     1      44.332 -18.339   4.915  1.00  0.00     0.164 A 
HETATM    8  C   UNL     1      43.954 -18.042   3.611  1.00  0.00     0.059 A 
ENDROOT
BRANCH   7   9
HETATM    9  O   UNL     1      44.337 -17.270   5.779  1.00  0.00    -0.329 OA
BRANCH   9  10
HETATM   10  C   UNL     1      43.146 -16.520   5.998  1.00  0.00     0.130 C 
HETATM   11  C   UNL     1      41.870 -17.372   6.038  1.00  0.00     0.034 C 
HETATM   12  C   UNL     1      40.647 -16.525   6.383  1.00  0.00     0.035 C 
HETATM   13  C   UNL     1      40.499 -15.286   5.494  1.00  0.00     0.186 C 
HETATM   14  C   UNL     1      41.787 -14.454   5.470  1.00  0.00     0.035 C 
HETATM   15  C   UNL     1      43.026 -15.273   5.111  1.00  0.00     0.034 C 
BRANCH  13  16
HETATM   16  N   UNL     1      40.147 -15.671   4.086  1.00  0.00    -0.067 N 
HETATM   17  H   UNL     1      40.936 -16.194   3.682  1.00  0.00     0.278 HD
HETATM   18  H   UNL     1      39.355 -16.333   4.064  1.00  0.00     0.278 HD
BRANCH  16  19
HETATM   19  C   UNL     1      39.847 -14.536   3.156  1.00  0.00     0.280 C 
BRANCH  19  20
HETATM   20  C   UNL     1      40.288 -14.829   1.770  1.00  0.00     0.027 A 
HETATM   21  S   UNL     1      41.406 -16.088   1.431  1.00  0.00    -0.084 SA
HETATM   22  C   UNL     1      41.309 -15.704  -0.240  1.00  0.00     0.166 A 
HETATM   23  N   UNL     1      40.517 -14.701  -0.546  1.00  0.00    -0.265 NA
HETATM   24  C   UNL     1      39.917 -14.211   0.593  1.00  0.00     0.133 A 
ENDBRANCH  19  20
ENDBRANCH  16  19
ENDBRANCH  13  16
ENDBRANCH   9  10
ENDBRANCH   7   9
TORSDOF 5
ENDMDL
MODEL 2
REMARK VINA RESULT:      -7.2      2.377      4.347
REMARK  5 active torsions:
REMARK  status: ('A' for Active; 'I' for Inactive)
REMARK    1  A    between atoms: C_7  and  O_8 
REMARK    2  A    between atoms: O_8  and  C_9 
REMARK    3  A    between atoms: C_12  and  N_13 
REMARK    4  A    between atoms: N_13  and  C_16 
REMARK    5  A    between atoms: C_16  and  C_17 
ROOT
HETATM    1  C   UNL     1      44.189 -20.554   2.445  1.00  0.00     0.028 A 
HETATM    2  C   UNL     1      44.446 -20.327   3.793  1.00  0.00     0.062 A 
HETATM    3  C   UNL     1      44.771 -21.396   4.683  1.00  0.00     0.101 C 
HETATM    4  N   UNL     1      45.039 -22.246   5.423  1.00  0.00    -0.191 NA
HETATM    5  C   UNL     1      44.380 -19.018   4.260  1.00  0.00     0.142 A 
HETATM    6  N   UNL     1      44.081 -17.938   3.488  1.00  0.00    -0.236 NA
HETATM    7  C   UNL     1      43.837 -18.200   2.183  1.00  0.00     0.164 A 
HETATM    8  C   UNL     1      43.879 -19.472   1.625  1.00  0.00     0.059 A 
ENDROOT
BRANCH   7   9
HETATM    9  O   UNL     1      43.526 -17.188   1.306  1.00  0.00    -0.329 OA
BRANCH   9  10
HETATM   10  C   UNL     1      42.416 -16.333   1.563  1.00  0.00     0.130 C 
HETATM   11  C   UNL     1      42.701 -15.234   2.596  1.00  0.00     0.034 C 
HETATM   12  C   UNL     1      41.511 -14.289   2.745  1.00  0.00     0.035 C 
HETATM   13  C   UNL     1      40.190 -15.018   3.011  1.00  0.00     0.186 C 
HETATM   14  C   UNL     1      39.929 -16.111   1.968  1.00  0.00     0.035 C 
HETATM   15  C   UNL     1      41.099 -17.082   1.809  1.00  0.00     0.034 C 
BRANCH  13  16
HETATM   16  N   UNL     1      40.184 -15.643   4.377  1.00  0.00    -0.067 N 
HETATM   17  H   UNL     1      39.208 -15.751   4.684  1.00  0.00     0.278 HD
HETATM   18  H   UNL     1      40.559 -16.604   4.352  1.00  0.00     0.278 HD
BRANCH  16  19
HETATM   19  C   UNL     1      40.902 -14.878   5.447  1.00  0.00     0.280 C 
BRANCH  19  20
HETATM   20  C   UNL     1      41.867 -15.733   6.181  1.00  0.00     0.027 A 
HETATM   21  S   UNL     1      43.513 -15.278   6.363  1.00  0.00    -0.084 SA
HETATM   22  C   UNL     1      43.798 -16.721   7.248  1.00  0.00     0.166 A 
HETATM   23  N   UNL     1      42.758 -17.511   7.396  1.00  0.00    -0.265 NA
HETATM   24  C   UNL     1      41.650 -16.944   6.808  1.00  0.00     0.133 A 
ENDBRANCH  19  20
ENDBRANCH  16  19
ENDBRANCH  13  16
ENDBRANCH   9  10
ENDBRANCH   7   9
TORSDOF 5
ENDMDL
MODEL 3
REMARK VINA RESULT:      -7.0      2.550      3.546
REMARK  5 active torsions:
REMARK  status: ('A' for Active; 'I' for Inactive)
REMARK    1  A    between atoms: C_7  and  O_8 
REMARK    2  A    between atoms: O_8  and  C_9 
REMARK    3  A    between atoms: C_12  and  N_13 
REMARK    4  A    between atoms: N_13  and  C_16 
REMARK    5  A    between atoms: C_16  and  C_17 
ROOT
HETATM    1  C   UNL     1      43.783 -19.569   3.988  1.00  0.00     0.028 A 
HETATM    2  C   UNL     1      43.986 -19.923   2.658  1.00  0.00     0.062 A 
HETATM    3  C   UNL     1      44.246 -21.273   2.274  1.00  0.00     0.101 C 
HETATM    4  N   UNL     1      44.456 -22.362   1.938  1.00  0.00    -0.191 NA
HETATM    5  C   UNL     1      43.926 -18.916   1.699  1.00  0.00     0.142 A 
HETATM    6  N   UNL     1      43.682 -17.605   1.970  1.00  0.00    -0.236 NA
HETATM    7  C   UNL     1      43.491 -17.303   3.275  1.00  0.00     0.164 A 
HETATM    8  C   UNL     1      43.532 -18.236   4.302  1.00  0.00     0.059 A 
ENDROOT
BRANCH   7   9
HETATM    9  O   UNL     1      43.236 -16.010   3.669  1.00  0.00    -0.329 OA
BRANCH   9  10
HETATM   10  C   UNL     1      42.105 -15.314   3.155  1.00  0.00     0.130 C 
HETATM   11  C   UNL     1      40.919 -16.224   2.804  1.00  0.00     0.034 C 
HETATM   12  C   UNL     1      39.705 -15.409   2.363  1.00  0.00     0.035 C 
HETATM   13  C   UNL     1      40.023 -14.403   1.252  1.00  0.00     0.186 C 
HETATM   14  C   UNL     1      41.211 -13.508   1.626  1.00  0.00     0.035 C 
HETATM   15  C   UNL     1      42.447 -14.298   2.057  1.00  0.00     0.034 C 
BRANCH  13  16
HETATM   16  N   UNL     1      40.335 -15.104  -0.038  1.00  0.00    -0.067 N 
HETATM   17  H   UNL     1      41.237 -15.589   0.061  1.00  0.00     0.278 HD
HETATM   18  H   UNL     1      39.654 -15.855  -0.233  1.00  0.00     0.278 HD
BRANCH  16  19
HETATM   19  C   UNL     1      40.438 -14.227  -1.249  1.00  0.00     0.280 C 
BRANCH  19  20
HETATM   20  C   UNL     1      39.751 -14.824  -2.420  1.00  0.00     0.027 A 
HETATM   21  S   UNL     1      38.159 -14.355  -2.864  1.00  0.00    -0.084 SA
HETATM   22  C   UNL     1      38.217 -15.457  -4.179  1.00  0.00     0.166 A 
HETATM   23  N   UNL     1      39.329 -16.149  -4.291  1.00  0.00    -0.265 NA
HETATM   24  C   UNL     1      40.214 -15.779  -3.304  1.00  0.00     0.133 A 
ENDBRANCH  19  20
ENDBRANCH  16  19
ENDBRANCH  13  16
ENDBRANCH   9  10
ENDBRANCH   7   9
TORSDOF 5
ENDMDL
MODEL 4
REMARK VINA RESULT:      -6.9      2.464      3.167
REMARK  5 active torsions:
REMARK  status: ('A' for Active; 'I' for Inactive)
REMARK    1  A    between atoms: C_7  and  O_8 
REMARK    2  A    between atoms: O_8  and  C_9 
REMARK    3  A    between atoms: C_12  and  N_13 
REMARK    4  A    between atoms: N_13  and  C_16 
REMARK    5  A    between atoms: C_16  and  C_17 
ROOT
HETATM    1  C   UNL     1      44.360 -19.968   2.662  1.00  0.00     0.028 A 
HETATM    2  C   UNL     1      44.505 -20.088   4.041  1.00  0.00     0.062 A 
HETATM    3  C   UNL     1      44.880 -21.325   4.648  1.00  0.00     0.101 C 
HETATM    4  N   UNL     1      45.185 -22.317   5.164  1.00  0.00    -0.191 NA
HETATM    5  C   UNL     1      44.275 -18.961   4.822  1.00  0.00     0.142 A 
HETATM    6  N   UNL     1      43.917 -17.742   4.333  1.00  0.00    -0.236 NA
HETATM    7  C   UNL     1      43.786 -17.667   2.988  1.00  0.00     0.164 A 
HETATM    8  C   UNL     1      43.994 -18.736   2.126  1.00  0.00     0.059 A 
ENDROOT
BRANCH   7   9
HETATM    9  O   UNL     1      43.429 -16.486   2.380  1.00  0.00    -0.329 OA
BRANCH   9  10
HETATM   10  C   UNL     1      42.133 -15.936   2.588  1.00  0.00     0.130 C 
HETATM   11  C   UNL     1      41.092 -16.378   1.550  1.00  0.00     0.034 C 
HETATM   12  C   UNL     1      39.703 -15.843   1.891  1.00  0.00     0.035 C 
HETATM   13  C   UNL     1      39.682 -14.330   2.138  1.00  0.00     0.186 C 
HETATM   14  C   UNL     1      40.731 -13.915   3.177  1.00  0.00     0.035 C 
HETATM   15  C   UNL     1      42.135 -14.424   2.852  1.00  0.00     0.034 C 
BRANCH  13  16
HETATM   16  N   UNL     1      39.936 -13.573   0.866  1.00  0.00    -0.067 N 
HETATM   17  H   UNL     1      39.803 -12.569   1.050  1.00  0.00     0.278 HD
HETATM   18  H   UNL     1      40.921 -13.657   0.569  1.00  0.00     0.278 HD
BRANCH  16  19
HETATM   19  C   UNL     1      39.055 -13.930  -0.292  1.00  0.00     0.280 C 
BRANCH  19  20
HETATM   20  C   UNL     1      39.840 -14.148  -1.533  1.00  0.00     0.027 A 
HETATM   21  S   UNL     1      41.512 -13.765  -1.617  1.00  0.00    -0.084 SA
HETATM   22  C   UNL     1      41.536 -14.300  -3.249  1.00  0.00     0.166 A 
HETATM   23  N   UNL     1      40.387 -14.725  -3.724  1.00  0.00    -0.265 NA
HETATM   24  C   UNL     1      39.420 -14.659  -2.745  1.00  0.00     0.133 A 
ENDBRANCH  19  20
ENDBRANCH  16  19
ENDBRANCH  13  16
ENDBRANCH   9  10
ENDBRANCH   7   9
TORSDOF 5
ENDMDL
MODEL 5
REMARK VINA RESULT:      -6.9      2.887      5.152
REMARK  5 active torsions:
REMARK  status: ('A' for Active; 'I' for Inactive)
REMARK    1  A    between atoms: C_7  and  O_8 
REMARK    2  A    between atoms: O_8  and  C_9 
REMARK    3  A    between atoms: C_12  and  N_13 
REMARK    4  A    between atoms: N_13  and  C_16 
REMARK    5  A    between atoms: C_16  and  C_17 
ROOT
HETATM    1  C   UNL     1      42.928 -14.552   6.134  1.00  0.00     0.028 A 
HETATM    2  C   UNL     1      44.089 -14.841   6.844  1.00  0.00     0.062 A 
HETATM    3  C   UNL     1      44.793 -13.834   7.570  1.00  0.00     0.101 C 
HETATM    4  N   UNL     1      45.380 -13.033   8.168  1.00  0.00    -0.191 NA
HETATM    5  C   UNL     1      44.553 -16.153   6.831  1.00  0.00     0.142 A 
HETATM    6  N   UNL     1      43.948 -17.178   6.171  1.00  0.00    -0.236 NA
HETATM    7  C   UNL     1      42.823 -16.856   5.492  1.00  0.00     0.164 A 
HETATM    8  C   UNL     1      42.284 -15.577   5.446  1.00  0.00     0.059 A 
ENDROOT
BRANCH   7   9
HETATM    9  O   UNL     1      42.126 -17.810   4.789  1.00  0.00    -0.329 OA
BRANCH   9  10
HETATM   10  C   UNL     1      42.230 -17.872   3.370  1.00  0.00     0.130 C 
HETATM   11  C   UNL     1      43.554 -17.326   2.816  1.00  0.00     0.034 C 
HETATM   12  C   UNL     1      43.646 -17.521   1.304  1.00  0.00     0.035 C 
HETATM   13  C   UNL     1      42.426 -16.982   0.550  1.00  0.00     0.186 C 
HETATM   14  C   UNL     1      41.118 -17.540   1.122  1.00  0.00     0.035 C 
HETATM   15  C   UNL     1      40.991 -17.344   2.633  1.00  0.00     0.034 C 
BRANCH  13  16
HETATM   16  N   UNL     1      42.377 -15.482   0.605  1.00  0.00    -0.067 N 
HETATM   17  H   UNL     1      42.502 -15.186   1.583  1.00  0.00     0.278 HD
HETATM   18  H   UNL     1      43.171 -15.060   0.100  1.00  0.00     0.278 HD
BRANCH  16  19
HETATM   19  C   UNL     1      41.109 -14.853   0.113  1.00  0.00     0.280 C 
BRANCH  19  20
HETATM   20  C   UNL     1      41.157 -14.588  -1.346  1.00  0.00     0.027 A 
HETATM   21  S   UNL     1      41.573 -13.041  -1.965  1.00  0.00    -0.084 SA
HETATM   22  C   UNL     1      41.380 -13.645  -3.561  1.00  0.00     0.166 A 
HETATM   23  N   UNL     1      41.016 -14.905  -3.651  1.00  0.00    -0.265 NA
HETATM   24  C   UNL     1      40.907 -15.453  -2.392  1.00  0.00     0.133 A 
ENDBRANCH  19  20
ENDBRANCH  16  19
ENDBRANCH  13  16
ENDBRANCH   9  10
ENDBRANCH   7   9
TORSDOF 5
ENDMDL
MODEL 6
REMARK VINA RESULT:      -6.9      3.584      5.146
REMARK  5 active torsions:
REMARK  status: ('A' for Active; 'I' for Inactive)
REMARK    1  A    between atoms: C_7  and  O_8 
REMARK    2  A    between atoms: O_8  and  C_9 
REMARK    3  A    between atoms: C_12  and  N_13 
REMARK    4  A    between atoms: N_13  and  C_16 
REMARK    5  A    between atoms: C_16  and  C_17 
ROOT
HETATM    1  C   UNL     1      43.406 -19.078   2.697  1.00  0.00     0.028 A 
HETATM    2  C   UNL     1      44.159 -20.172   3.114  1.00  0.00     0.062 A 
HETATM    3  C   UNL     1      44.297 -21.338   2.302  1.00  0.00     0.101 C 
HETATM    4  N   UNL     1      44.425 -22.294   1.660  1.00  0.00    -0.191 NA
HETATM    5  C   UNL     1      44.782 -20.100   4.356  1.00  0.00     0.142 A 
HETATM    6  N   UNL     1      44.710 -19.032   5.195  1.00  0.00    -0.236 NA
HETATM    7  C   UNL     1      43.969 -17.989   4.754  1.00  0.00     0.164 A 
HETATM    8  C   UNL     1      43.310 -17.967   3.532  1.00  0.00     0.059 A 
ENDROOT
BRANCH   7   9
HETATM    9  O   UNL     1      43.824 -16.854   5.516  1.00  0.00    -0.329 OA
BRANCH   9  10
HETATM   10  C   UNL     1      42.893 -15.847   5.132  1.00  0.00     0.130 C 
HETATM   11  C   UNL     1      43.533 -14.483   4.842  1.00  0.00     0.034 C 
HETATM   12  C   UNL     1      42.499 -13.481   4.332  1.00  0.00     0.035 C 
HETATM   13  C   UNL     1      41.267 -13.372   5.236  1.00  0.00     0.186 C 
HETATM   14  C   UNL     1      40.647 -14.747   5.511  1.00  0.00     0.035 C 
HETATM   15  C   UNL     1      41.656 -15.766   6.038  1.00  0.00     0.034 C 
BRANCH  13  16
HETATM   16  N   UNL     1      41.614 -12.727   6.547  1.00  0.00    -0.067 N 
HETATM   17  H   UNL     1      41.007 -13.122   7.278  1.00  0.00     0.278 HD
HETATM   18  H   UNL     1      42.572 -12.969   6.843  1.00  0.00     0.278 HD
BRANCH  16  19
HETATM   19  C   UNL     1      41.458 -11.237   6.602  1.00  0.00     0.280 C 
BRANCH  19  20
HETATM   20  C   UNL     1      41.064 -10.776   7.956  1.00  0.00     0.027 A 
HETATM   21  S   UNL     1      39.495 -11.076   8.586  1.00  0.00    -0.084 SA
HETATM   22  C   UNL     1      39.936 -10.263  10.033  1.00  0.00     0.166 A 
HETATM   23  N   UNL     1      41.158  -9.780  10.061  1.00  0.00    -0.265 NA
HETATM   24  C   UNL     1      41.812 -10.086   8.889  1.00  0.00     0.133 A 
ENDBRANCH  19  20
ENDBRANCH  16  19
ENDBRANCH  13  16
ENDBRANCH   9  10
ENDBRANCH   7   9
TORSDOF 5
ENDMDL
MODEL 7
REMARK VINA RESULT:      -6.6      4.716      8.119
REMARK  5 active torsions:
REMARK  status: ('A' for Active; 'I' for Inactive)
REMARK    1  A    between atoms: C_7  and  O_8 
REMARK    2  A    between atoms: O_8  and  C_9 
REMARK    3  A    between atoms: C_12  and  N_13 
REMARK    4  A    between atoms: N_13  and  C_16 
REMARK    5  A    between atoms: C_16  and  C_17 
ROOT
HETATM    1  C   UNL     1      45.138 -11.732  10.729  1.00  0.00     0.028 A 
HETATM    2  C   UNL     1      44.068 -10.843  10.726  1.00  0.00     0.062 A 
HETATM    3  C   UNL     1      43.778 -10.016  11.853  1.00  0.00     0.101 C 
HETATM    4  N   UNL     1      43.525  -9.334  12.755  1.00  0.00    -0.191 NA
HETATM    5  C   UNL     1      43.277 -10.777   9.583  1.00  0.00     0.142 A 
HETATM    6  N   UNL     1      43.478 -11.522   8.462  1.00  0.00    -0.236 NA
HETATM    7  C   UNL     1      44.528 -12.375   8.505  1.00  0.00     0.164 A 
HETATM    8  C   UNL     1      45.372 -12.511   9.599  1.00  0.00     0.059 A 
ENDROOT
BRANCH   7   9
HETATM    9  O   UNL     1      44.829 -13.178   7.431  1.00  0.00    -0.329 OA
BRANCH   9  10
HETATM   10  C   UNL     1      43.839 -14.044   6.884  1.00  0.00     0.130 C 
HETATM   11  C   UNL     1      44.032 -15.522   7.249  1.00  0.00     0.034 C 
HETATM   12  C   UNL     1      42.882 -16.379   6.724  1.00  0.00     0.035 C 
HETATM   13  C   UNL     1      42.606 -16.173   5.232  1.00  0.00     0.186 C 
HETATM   14  C   UNL     1      42.418 -14.689   4.894  1.00  0.00     0.035 C 
HETATM   15  C   UNL     1      43.564 -13.809   5.392  1.00  0.00     0.034 C 
BRANCH  13  16
HETATM   16  N   UNL     1      43.726 -16.721   4.395  1.00  0.00    -0.067 N 
HETATM   17  H   UNL     1      44.248 -15.932   3.988  1.00  0.00     0.278 HD
HETATM   18  H   UNL     1      44.418 -17.222   4.974  1.00  0.00     0.278 HD
BRANCH  16  19
HETATM   19  C   UNL     1      43.318 -17.611   3.261  1.00  0.00     0.280 C 
BRANCH  19  20
HETATM   20  C   UNL     1      43.857 -18.984   3.418  1.00  0.00     0.027 A 
HETATM   21  S   UNL     1      43.747 -20.143   2.155  1.00  0.00    -0.084 SA
HETATM   22  C   UNL     1      44.549 -21.286   3.154  1.00  0.00     0.166 A 
HETATM   23  N   UNL     1      44.873 -20.861   4.354  1.00  0.00    -0.265 NA
HETATM   24  C   UNL     1      44.499 -19.544   4.504  1.00  0.00     0.133 A 
ENDBRANCH  19  20
ENDBRANCH  16  19
ENDBRANCH  13  16
ENDBRANCH   9  10
ENDBRANCH   7   9
TORSDOF 5
ENDMDL
MODEL 8
REMARK VINA RESULT:      -6.4      1.807      2.357
REMARK  5 active torsions:
REMARK  status: ('A' for Active; 'I' for Inactive)
REMARK    1  A    between atoms: C_7  and  O_8 
REMARK    2  A    between atoms: O_8  and  C_9 
REMARK    3  A    between atoms: C_12  and  N_13 
REMARK    4  A    between atoms: N_13  and  C_16 
REMARK    5  A    between atoms: C_16  and  C_17 
ROOT
HETATM    1  C   UNL     1      44.710 -20.692   4.498  1.00  0.00     0.028 A 
HETATM    2  C   UNL     1      44.397 -20.439   3.166  1.00  0.00     0.062 A 
HETATM    3  C   UNL     1      44.402 -21.477   2.187  1.00  0.00     0.101 C 
HETATM    4  N   UNL     1      44.398 -22.304   1.374  1.00  0.00    -0.191 NA
HETATM    5  C   UNL     1      44.072 -19.135   2.808  1.00  0.00     0.142 A 
HETATM    6  N   UNL     1      44.038 -18.083   3.672  1.00  0.00    -0.236 NA
HETATM    7  C   UNL     1      44.349 -18.370   4.956  1.00  0.00     0.164 A 
HETATM    8  C   UNL     1      44.686 -19.639   5.409  1.00  0.00     0.059 A 
ENDROOT
BRANCH   7   9
HETATM    9  O   UNL     1      44.347 -17.388   5.919  1.00  0.00    -0.329 OA
BRANCH   9  10
HETATM   10  C   UNL     1      43.229 -16.516   6.051  1.00  0.00     0.130 C 
HETATM   11  C   UNL     1      41.874 -17.200   5.824  1.00  0.00     0.034 C 
HETATM   12  C   UNL     1      40.715 -16.240   6.087  1.00  0.00     0.035 C 
HETATM   13  C   UNL     1      40.842 -14.918   5.324  1.00  0.00     0.186 C 
HETATM   14  C   UNL     1      42.203 -14.256   5.567  1.00  0.00     0.035 C 
HETATM   15  C   UNL     1      43.383 -15.189   5.296  1.00  0.00     0.034 C 
BRANCH  13  16
HETATM   16  N   UNL     1      40.663 -15.126   3.848  1.00  0.00    -0.067 N 
HETATM   17  H   UNL     1      41.231 -15.934   3.559  1.00  0.00     0.278 HD
HETATM   18  H   UNL     1      39.692 -15.394   3.621  1.00  0.00     0.278 HD
BRANCH  16  19
HETATM   19  C   UNL     1      41.057 -13.975   2.974  1.00  0.00     0.280 C 
BRANCH  19  20
HETATM   20  C   UNL     1      39.944 -13.009   2.801  1.00  0.00     0.027 A 
HETATM   21  S   UNL     1      38.738 -13.235   1.600  1.00  0.00    -0.084 SA
HETATM   22  C   UNL     1      37.977 -11.784   2.113  1.00  0.00     0.166 A 
HETATM   23  N   UNL     1      38.570 -11.150   3.099  1.00  0.00    -0.265 NA
HETATM   24  C   UNL     1      39.681 -11.853   3.509  1.00  0.00     0.133 A 
ENDBRANCH  19  20
ENDBRANCH  16  19
ENDBRANCH  13  16
ENDBRANCH   9  10
ENDBRANCH   7   9
TORSDOF 5
ENDMDL
MODEL 9
REMARK VINA RESULT:      -6.3      2.908      7.680
REMARK  5 active torsions:
REMARK  status: ('A' for Active; 'I' for Inactive)
REMARK    1  A    between atoms: C_7  and  O_8 
REMARK    2  A    between atoms: O_8  and  C_9 
REMARK    3  A    between atoms: C_12  and  N_13 
REMARK    4  A    between atoms: N_13  and  C_16 
REMARK    5  A    between atoms: C_16  and  C_17 
ROOT
HETATM    1  C   UNL     1      39.445 -13.126   5.529  1.00  0.00     0.028 A 
HETATM    2  C   UNL     1      39.467 -12.162   4.526  1.00  0.00     0.062 A 
HETATM    3  C   UNL     1      38.603 -11.026   4.560  1.00  0.00     0.101 C 
HETATM    4  N   UNL     1      37.912 -10.096   4.567  1.00  0.00    -0.191 NA
HETATM    5  C   UNL     1      40.364 -12.332   3.476  1.00  0.00     0.142 A 
HETATM    6  N   UNL     1      41.227 -13.378   3.361  1.00  0.00    -0.236 NA
HETATM    7  C   UNL     1      41.174 -14.294   4.356  1.00  0.00     0.164 A 
HETATM    8  C   UNL     1      40.313 -14.210   5.442  1.00  0.00     0.059 A 
ENDROOT
BRANCH   7   9
HETATM    9  O   UNL     1      41.999 -15.394   4.347  1.00  0.00    -0.329 OA
BRANCH   9  10
HETATM   10  C   UNL     1      42.300 -16.054   3.121  1.00  0.00     0.130 C 
HETATM   11  C   UNL     1      41.183 -16.981   2.622  1.00  0.00     0.034 C 
HETATM   12  C   UNL     1      41.521 -17.572   1.255  1.00  0.00     0.035 C 
HETATM   13  C   UNL     1      42.901 -18.236   1.207  1.00  0.00     0.186 C 
HETATM   14  C   UNL     1      43.998 -17.290   1.712  1.00  0.00     0.035 C 
HETATM   15  C   UNL     1      43.694 -16.696   3.087  1.00  0.00     0.034 C 
BRANCH  13  16
HETATM   16  N   UNL     1      42.926 -19.489   2.034  1.00  0.00    -0.067 N 
HETATM   17  H   UNL     1      42.842 -19.230   3.026  1.00  0.00     0.278 HD
HETATM   18  H   UNL     1      42.100 -20.079   1.847  1.00  0.00     0.278 HD
BRANCH  16  19
HETATM   19  C   UNL     1      44.157 -20.333   1.901  1.00  0.00     0.280 C 
BRANCH  19  20
HETATM   20  C   UNL     1      44.430 -21.105   3.138  1.00  0.00     0.027 A 
HETATM   21  S   UNL     1      44.710 -20.323   4.641  1.00  0.00    -0.084 SA
HETATM   22  C   UNL     1      44.907 -21.857   5.386  1.00  0.00     0.166 A 
HETATM   23  N   UNL     1      44.792 -22.894   4.588  1.00  0.00    -0.265 NA
HETATM   24  C   UNL     1      44.501 -22.473   3.309  1.00  0.00     0.133 A 
ENDBRANCH  19  20
ENDBRANCH  16  19
ENDBRANCH  13  16
ENDBRANCH   9  10
ENDBRANCH   7   9
TORSDOF 5
ENDMDL
MODEL 10
REMARK VINA RESULT:      -6.3      3.181      4.058
REMARK  5 active torsions:
REMARK  status: ('A' for Active; 'I' for Inactive)
REMARK    1  A    between atoms: C_7  and  O_8 
REMARK    2  A    between atoms: O_8  and  C_9 
REMARK    3  A    between atoms: C_12  and  N_13 
REMARK    4  A    between atoms: N_13  and  C_16 
REMARK    5  A    between atoms: C_16  and  C_17 
ROOT
HETATM    1  C   UNL     1      44.568 -20.171   4.518  1.00  0.00     0.028 A 
HETATM    2  C   UNL     1      44.268 -20.220   3.160  1.00  0.00     0.062 A 
HETATM    3  C   UNL     1      44.446 -21.413   2.397  1.00  0.00     0.101 C 
HETATM    4  N   UNL     1      44.582 -22.371   1.757  1.00  0.00    -0.191 NA
HETATM    5  C   UNL     1      43.782 -19.065   2.556  1.00  0.00     0.142 A 
HETATM    6  N   UNL     1      43.577 -17.884   3.202  1.00  0.00    -0.236 NA
HETATM    7  C   UNL     1      43.881 -17.878   4.521  1.00  0.00     0.164 A 
HETATM    8  C   UNL     1      44.372 -18.980   5.210  1.00  0.00     0.059 A 
ENDROOT
BRANCH   7   9
HETATM    9  O   UNL     1      43.714 -16.742   5.278  1.00  0.00    -0.329 OA
BRANCH   9  10
HETATM   10  C   UNL     1      42.832 -15.713   4.841  1.00  0.00     0.130 C 
HETATM   11  C   UNL     1      43.394 -14.295   5.011  1.00  0.00     0.034 C 
HETATM   12  C   UNL     1      42.449 -13.248   4.425  1.00  0.00     0.035 C 
HETATM   13  C   UNL     1      41.011 -13.377   4.941  1.00  0.00     0.186 C 
HETATM   14  C   UNL     1      40.474 -14.802   4.761  1.00  0.00     0.035 C 
HETATM   15  C   UNL     1      41.393 -15.870   5.352  1.00  0.00     0.034 C 
BRANCH  13  16
HETATM   16  N   UNL     1      40.924 -13.007   6.394  1.00  0.00    -0.067 N 
HETATM   17  H   UNL     1      40.741 -13.861   6.939  1.00  0.00     0.278 HD
HETATM   18  H   UNL     1      41.829 -12.658   6.748  1.00  0.00     0.278 HD
BRANCH  16  19
HETATM   19  C   UNL     1      39.857 -12.018   6.752  1.00  0.00     0.280 C 
BRANCH  19  20
HETATM   20  C   UNL     1      39.943 -10.792   5.921  1.00  0.00     0.027 A 
HETATM   21  S   UNL     1      41.278  -9.718   6.040  1.00  0.00    -0.084 SA
HETATM   22  C   UNL     1      40.564  -8.721   4.837  1.00  0.00     0.166 A 
HETATM   23  N   UNL     1      39.404  -9.132   4.376  1.00  0.00    -0.265 NA
HETATM   24  C   UNL     1      39.054 -10.322   4.975  1.00  0.00     0.133 A 
ENDBRANCH  19  20
ENDBRANCH  16  19
ENDBRANCH  13  16
ENDBRANCH   9  10
ENDBRANCH   7   9
TORSDOF 5
ENDMDL
