MODEL 1
REMARK VINA RESULT:      -8.1      0.000      0.000
REMARK  4 active torsions:
REMARK  status: ('A' for Active; 'I' for Inactive)
REMARK    1  A    between atoms: C_2  and  N_3 
REMARK    2  A    between atoms: C_2  and  C_14 
REMARK    3  A    between atoms: N_3  and  C_6 
REMARK    4  A    between atoms: C_6  and  C_7 
ROOT
HETATM    1  C   UNL     1      42.951 -17.477   7.849  1.00  0.00     0.048 C 
HETATM    2  C   UNL     1      43.637 -16.554   6.851  1.00  0.00     0.251 C 
ENDROOT
BRANCH   2   3
HETATM    3  N   UNL     1      44.626 -17.369   6.055  1.00  0.00    -0.060 N 
HETATM    4  H   UNL     1      44.508 -17.242   5.044  1.00  0.00     0.278 HD
HETATM    5  H   UNL     1      45.561 -16.996   6.293  1.00  0.00     0.278 HD
BRANCH   3   6
HETATM    6  C   UNL     1      44.650 -18.825   6.372  1.00  0.00     0.271 C 
BRANCH   6   7
HETATM    7  C   UNL     1      44.518 -19.643   5.119  1.00  0.00    -0.033 A 
HETATM    8  C   UNL     1      44.771 -21.025   5.143  1.00  0.00     0.010 A 
HETATM    9  C   UNL     1      44.684 -21.780   3.970  1.00  0.00     0.024 A 
HETATM   10  C   UNL     1      44.346 -21.162   2.769  1.00  0.00     0.034 A 
HETATM   11 CL   UNL     1      44.242 -22.092   1.327  1.00  0.00    -0.084 Cl
HETATM   12  C   UNL     1      44.096 -19.793   2.729  1.00  0.00     0.024 A 
HETATM   13  C   UNL     1      44.185 -19.032   3.900  1.00  0.00     0.010 A 
ENDBRANCH   6   7
ENDBRANCH   3   6
ENDBRANCH   2   3
BRANCH   2  14
HETATM   14  C   UNL     1      42.596 -15.934   5.911  1.00  0.00     0.138 A 
HETATM   15  N   UNL     1      42.262 -16.591   4.843  1.00  0.00    -0.232 NA
HETATM   16  C   UNL     1      41.294 -16.007   3.998  1.00  0.00     0.074 A 
HETATM   17  C   UNL     1      40.713 -14.763   4.265  1.00  0.00     0.061 A 
HETATM   18  C   UNL     1      40.901 -16.692   2.847  1.00  0.00     0.032 A 
HETATM   19  C   UNL     1      41.138 -14.068   5.490  1.00  0.00     0.259 A 
HETATM   20  C   UNL     1      39.763 -14.199   3.410  1.00  0.00     0.019 A 
HETATM   21  O   UNL     1      40.708 -12.971   5.819  1.00  0.00    -0.267 OA
HETATM   22  N   UNL     1      42.069 -14.724   6.258  1.00  0.00    -0.309 N 
HETATM   23  H   UNL     1      42.329 -14.220   7.097  1.00  0.00     0.170 HD
HETATM   24  C   UNL     1      39.383 -14.894   2.264  1.00  0.00     0.001 A 
HETATM   25  C   UNL     1      39.949 -16.138   1.983  1.00  0.00     0.002 A 
ENDBRANCH   2  14
TORSDOF 4
ENDMDL
MODEL 2
REMARK VINA RESULT:      -7.9      4.402      5.677
REMARK  4 active torsions:
REMARK  status: ('A' for Active; 'I' for Inactive)
REMARK    1  A    between atoms: C_2  and  N_3 
REMARK    2  A    between atoms: C_2  and  C_14 
REMARK    3  A    between atoms: N_3  and  C_6 
REMARK    4  A    between atoms: C_6  and  C_7 
ROOT
HETATM    1  C   UNL     1      40.575 -17.111   1.602  1.00  0.00     0.048 C 
HETATM    2  C   UNL     1      41.535 -15.930   1.569  1.00  0.00     0.251 C 
ENDROOT
BRANCH   2   3
HETATM    3  N   UNL     1      42.926 -16.441   1.850  1.00  0.00    -0.060 N 
HETATM    4  H   UNL     1      43.645 -15.737   1.652  1.00  0.00     0.278 HD
HETATM    5  H   UNL     1      42.963 -16.624   2.867  1.00  0.00     0.278 HD
BRANCH   3   6
HETATM    6  C   UNL     1      43.283 -17.718   1.169  1.00  0.00     0.271 C 
BRANCH   6   7
HETATM    7  C   UNL     1      43.750 -18.739   2.167  1.00  0.00    -0.033 A 
HETATM    8  C   UNL     1      43.917 -20.081   1.783  1.00  0.00     0.010 A 
HETATM    9  C   UNL     1      44.316 -21.039   2.720  1.00  0.00     0.024 A 
HETATM   10  C   UNL     1      44.549 -20.665   4.042  1.00  0.00     0.034 A 
HETATM   11 CL   UNL     1      45.038 -21.844   5.192  1.00  0.00    -0.084 Cl
HETATM   12  C   UNL     1      44.383 -19.339   4.435  1.00  0.00     0.024 A 
HETATM   13  C   UNL     1      43.981 -18.378   3.503  1.00  0.00     0.010 A 
ENDBRANCH   6   7
ENDBRANCH   3   6
ENDBRANCH   2   3
BRANCH   2  14
HETATM   14  C   UNL     1      41.493 -15.261   0.190  1.00  0.00     0.138 A 
HETATM   15  N   UNL     1      41.966 -14.057   0.075  1.00  0.00    -0.232 NA
HETATM   16  C   UNL     1      41.928 -13.464  -1.205  1.00  0.00     0.074 A 
HETATM   17  C   UNL     1      41.392 -14.115  -2.321  1.00  0.00     0.061 A 
HETATM   18  C   UNL     1      42.440 -12.176  -1.367  1.00  0.00     0.032 A 
HETATM   19  C   UNL     1      40.868 -15.476  -2.123  1.00  0.00     0.259 A 
HETATM   20  C   UNL     1      41.357 -13.506  -3.577  1.00  0.00     0.019 A 
HETATM   21  O   UNL     1      40.366 -16.135  -3.022  1.00  0.00    -0.267 OA
HETATM   22  N   UNL     1      40.967 -15.975  -0.847  1.00  0.00    -0.309 N 
HETATM   23  H   UNL     1      40.606 -16.916  -0.752  1.00  0.00     0.170 HD
HETATM   24  C   UNL     1      41.869 -12.219  -3.723  1.00  0.00     0.001 A 
HETATM   25  C   UNL     1      42.412 -11.556  -2.622  1.00  0.00     0.002 A 
ENDBRANCH   2  14
TORSDOF 4
ENDMDL
MODEL 3
REMARK VINA RESULT:      -7.9      2.071      4.150
REMARK  4 active torsions:
REMARK  status: ('A' for Active; 'I' for Inactive)
REMARK    1  A    between atoms: C_2  and  N_3 
REMARK    2  A    between atoms: C_2  and  C_14 
REMARK    3  A    between atoms: N_3  and  C_6 
REMARK    4  A    between atoms: C_6  and  C_7 
ROOT
HETATM    1  C   UNL     1      41.430 -15.720   0.759  1.00  0.00     0.048 C 
HETATM    2  C   UNL     1      41.207 -16.732   1.874  1.00  0.00     0.251 C 
ENDROOT
BRANCH   2   3
HETATM    3  N   UNL     1      41.739 -18.067   1.415  1.00  0.00    -0.060 N 
HETATM    4  H   UNL     1      41.382 -18.843   1.985  1.00  0.00     0.278 HD
HETATM    5  H   UNL     1      41.372 -18.208   0.459  1.00  0.00     0.278 HD
BRANCH   3   6
HETATM    6  C   UNL     1      43.223 -18.162   1.326  1.00  0.00     0.271 C 
BRANCH   6   7
HETATM    7  C   UNL     1      43.737 -19.281   2.188  1.00  0.00    -0.033 A 
HETATM    8  C   UNL     1      43.609 -20.616   1.768  1.00  0.00     0.010 A 
HETATM    9  C   UNL     1      44.053 -21.659   2.586  1.00  0.00     0.024 A 
HETATM   10  C   UNL     1      44.625 -21.377   3.824  1.00  0.00     0.034 A 
HETATM   11 CL   UNL     1      45.169 -22.661   4.828  1.00  0.00    -0.084 Cl
HETATM   12  C   UNL     1      44.755 -20.059   4.253  1.00  0.00     0.024 A 
HETATM   13  C   UNL     1      44.309 -19.012   3.441  1.00  0.00     0.010 A 
ENDBRANCH   6   7
ENDBRANCH   3   6
ENDBRANCH   2   3
BRANCH   2  14
HETATM   14  C   UNL     1      41.943 -16.284   3.142  1.00  0.00     0.138 A 
HETATM   15  N   UNL     1      41.801 -16.993   4.220  1.00  0.00    -0.232 NA
HETATM   16  C   UNL     1      42.495 -16.569   5.372  1.00  0.00     0.074 A 
HETATM   17  C   UNL     1      43.300 -15.423   5.389  1.00  0.00     0.061 A 
HETATM   18  C   UNL     1      42.376 -17.315   6.546  1.00  0.00     0.032 A 
HETATM   19  C   UNL     1      43.415 -14.661   4.136  1.00  0.00     0.259 A 
HETATM   20  C   UNL     1      43.972 -15.017   6.543  1.00  0.00     0.019 A 
HETATM   21  O   UNL     1      44.079 -13.639   4.035  1.00  0.00    -0.267 OA
HETATM   22  N   UNL     1      42.718 -15.163   3.064  1.00  0.00    -0.309 N 
HETATM   23  H   UNL     1      42.830 -14.619   2.218  1.00  0.00     0.170 HD
HETATM   24  C   UNL     1      43.841 -15.771   7.707  1.00  0.00     0.001 A 
HETATM   25  C   UNL     1      43.046 -16.918   7.709  1.00  0.00     0.002 A 
ENDBRANCH   2  14
TORSDOF 4
ENDMDL
MODEL 4
REMARK VINA RESULT:      -7.7      5.133      7.572
REMARK  4 active torsions:
REMARK  status: ('A' for Active; 'I' for Inactive)
REMARK    1  A    between atoms: C_2  and  N_3 
REMARK    2  A    between atoms: C_2  and  C_14 
REMARK    3  A    between atoms: N_3  and  C_6 
REMARK    4  A    between atoms: C_6  and  C_7 
ROOT
HETATM    1  C   UNL     1      42.124 -13.270   5.637  1.00  0.00     0.048 C 
HETATM    2  C   UNL     1      43.496 -13.914   5.775  1.00  0.00     0.251 C 
ENDROOT
BRANCH   2   3
HETATM    3  N   UNL     1      43.804 -14.064   7.245  1.00  0.00    -0.060 N 
HETATM    4  H   UNL     1      42.999 -13.827   7.835  1.00  0.00     0.278 HD
HETATM    5  H   UNL     1      43.997 -15.069   7.395  1.00  0.00     0.278 HD
BRANCH   3   6
HETATM    6  C   UNL     1      45.003 -13.319   7.721  1.00  0.00     0.271 C 
BRANCH   6   7
HETATM    7  C   UNL     1      44.620 -12.306   8.762  1.00  0.00    -0.033 A 
HETATM    8  C   UNL     1      45.408 -12.138   9.913  1.00  0.00     0.010 A 
HETATM    9  C   UNL     1      45.031 -11.222  10.900  1.00  0.00     0.024 A 
HETATM   10  C   UNL     1      43.869 -10.471  10.744  1.00  0.00     0.034 A 
HETATM   11 CL   UNL     1      43.407  -9.346  11.958  1.00  0.00    -0.084 Cl
HETATM   12  C   UNL     1      43.077 -10.629   9.609  1.00  0.00     0.024 A 
HETATM   13  C   UNL     1      43.448 -11.547   8.622  1.00  0.00     0.010 A 
ENDBRANCH   6   7
ENDBRANCH   3   6
ENDBRANCH   2   3
BRANCH   2  14
HETATM   14  C   UNL     1      43.499 -15.290   5.098  1.00  0.00     0.138 A 
HETATM   15  N   UNL     1      43.499 -15.339   3.801  1.00  0.00    -0.232 NA
HETATM   16  C   UNL     1      43.512 -16.614   3.199  1.00  0.00     0.074 A 
HETATM   17  C   UNL     1      43.508 -17.799   3.943  1.00  0.00     0.061 A 
HETATM   18  C   UNL     1      43.526 -16.703   1.806  1.00  0.00     0.032 A 
HETATM   19  C   UNL     1      43.503 -17.675   5.409  1.00  0.00     0.259 A 
HETATM   20  C   UNL     1      43.513 -19.052   3.326  1.00  0.00     0.019 A 
HETATM   21  O   UNL     1      43.487 -18.641   6.160  1.00  0.00    -0.267 OA
HETATM   22  N   UNL     1      43.510 -16.393   5.902  1.00  0.00    -0.309 N 
HETATM   23  H   UNL     1      43.517 -16.348   6.913  1.00  0.00     0.170 HD
HETATM   24  C   UNL     1      43.524 -19.125   1.935  1.00  0.00     0.001 A 
HETATM   25  C   UNL     1      43.533 -17.953   1.176  1.00  0.00     0.002 A 
ENDBRANCH   2  14
TORSDOF 4
ENDMDL
MODEL 5
REMARK VINA RESULT:      -7.6      6.210      8.272
REMARK  4 active torsions:
REMARK  status: ('A' for Active; 'I' for Inactive)
REMARK    1  A    between atoms: C_2  and  N_3 
REMARK    2  A    between atoms: C_2  and  C_14 
REMARK    3  A    between atoms: N_3  and  C_6 
REMARK    4  A    between atoms: C_6  and  C_7 
ROOT
HETATM    1  C   UNL     1      45.832 -11.207   9.580  1.00  0.00     0.048 C 
HETATM    2  C   UNL     1      44.384 -11.457   9.183  1.00  0.00     0.251 C 
ENDROOT
BRANCH   2   3
HETATM    3  N   UNL     1      44.232 -12.917   8.839  1.00  0.00    -0.060 N 
HETATM    4  H   UNL     1      44.386 -13.525   9.651  1.00  0.00     0.278 HD
HETATM    5  H   UNL     1      43.244 -13.043   8.558  1.00  0.00     0.278 HD
BRANCH   3   6
HETATM    6  C   UNL     1      45.067 -13.391   7.700  1.00  0.00     0.271 C 
BRANCH   6   7
HETATM    7  C   UNL     1      44.311 -14.383   6.862  1.00  0.00    -0.033 A 
HETATM    8  C   UNL     1      43.901 -14.047   5.561  1.00  0.00     0.010 A 
HETATM    9  C   UNL     1      43.164 -14.957   4.795  1.00  0.00     0.024 A 
HETATM   10  C   UNL     1      42.834 -16.202   5.323  1.00  0.00     0.034 A 
HETATM   11 CL   UNL     1      41.928 -17.318   4.381  1.00  0.00    -0.084 Cl
HETATM   12  C   UNL     1      43.231 -16.547   6.613  1.00  0.00     0.024 A 
HETATM   13  C   UNL     1      43.964 -15.640   7.384  1.00  0.00     0.010 A 
ENDBRANCH   6   7
ENDBRANCH   3   6
ENDBRANCH   2   3
BRANCH   2  14
HETATM   14  C   UNL     1      43.453 -11.094  10.346  1.00  0.00     0.138 A 
HETATM   15  N   UNL     1      43.961 -10.492  11.378  1.00  0.00    -0.232 NA
HETATM   16  C   UNL     1      43.085 -10.158  12.432  1.00  0.00     0.074 A 
HETATM   17  C   UNL     1      41.720 -10.466  12.404  1.00  0.00     0.061 A 
HETATM   18  C   UNL     1      43.595  -9.498  13.551  1.00  0.00     0.032 A 
HETATM   19  C   UNL     1      41.208 -11.153  11.208  1.00  0.00     0.259 A 
HETATM   20  C   UNL     1      40.872 -10.134  13.462  1.00  0.00     0.019 A 
HETATM   21  O   UNL     1      40.037 -11.483  11.078  1.00  0.00    -0.267 OA
HETATM   22  N   UNL     1      42.132 -11.419  10.228  1.00  0.00    -0.309 N 
HETATM   23  H   UNL     1      41.741 -11.882   9.417  1.00  0.00     0.170 HD
HETATM   24  C   UNL     1      41.397  -9.478  14.573  1.00  0.00     0.001 A 
HETATM   25  C   UNL     1      42.755  -9.159  14.618  1.00  0.00     0.002 A 
ENDBRANCH   2  14
TORSDOF 4
ENDMDL
MODEL 6
REMARK VINA RESULT:      -7.6      3.027      6.495
REMARK  4 active torsions:
REMARK  status: ('A' for Active; 'I' for Inactive)
REMARK    1  A    between atoms: C_2  and  N_3 
REMARK    2  A    between atoms: C_2  and  C_14 
REMARK    3  A    between atoms: N_3  and  C_6 
REMARK    4  A    between atoms: C_6  and  C_7 
ROOT
HETATM    1  C   UNL     1      41.996 -14.463   4.217  1.00  0.00     0.048 C 
HETATM    2  C   UNL     1      41.238 -15.773   4.385  1.00  0.00     0.251 C 
ENDROOT
BRANCH   2   3
HETATM    3  N   UNL     1      40.179 -15.848   3.313  1.00  0.00    -0.060 N 
HETATM    4  H   UNL     1      40.394 -16.558   2.605  1.00  0.00     0.278 HD
HETATM    5  H   UNL     1      39.314 -16.156   3.788  1.00  0.00     0.278 HD
BRANCH   3   6
HETATM    6  C   UNL     1      39.865 -14.556   2.640  1.00  0.00     0.271 C 
BRANCH   6   7
HETATM    7  C   UNL     1      40.104 -14.657   1.160  1.00  0.00    -0.033 A 
HETATM    8  C   UNL     1      39.339 -13.891   0.264  1.00  0.00     0.010 A 
HETATM    9  C   UNL     1      39.537 -14.012  -1.115  1.00  0.00     0.024 A 
HETATM   10  C   UNL     1      40.496 -14.895  -1.605  1.00  0.00     0.034 A 
HETATM   11 CL   UNL     1      40.736 -15.043  -3.300  1.00  0.00    -0.084 Cl
HETATM   12  C   UNL     1      41.258 -15.662  -0.728  1.00  0.00     0.024 A 
HETATM   13  C   UNL     1      41.062 -15.547   0.652  1.00  0.00     0.010 A 
ENDBRANCH   6   7
ENDBRANCH   3   6
ENDBRANCH   2   3
BRANCH   2  14
HETATM   14  C   UNL     1      42.203 -16.956   4.249  1.00  0.00     0.138 A 
HETATM   15  N   UNL     1      42.079 -17.738   3.220  1.00  0.00    -0.232 NA
HETATM   16  C   UNL     1      42.984 -18.814   3.109  1.00  0.00     0.074 A 
HETATM   17  C   UNL     1      43.976 -19.066   4.063  1.00  0.00     0.061 A 
HETATM   18  C   UNL     1      42.887 -19.667   2.008  1.00  0.00     0.032 A 
HETATM   19  C   UNL     1      44.061 -18.146   5.208  1.00  0.00     0.259 A 
HETATM   20  C   UNL     1      44.856 -20.143   3.937  1.00  0.00     0.019 A 
HETATM   21  O   UNL     1      44.879 -18.275   6.108  1.00  0.00    -0.267 OA
HETATM   22  N   UNL     1      43.151 -17.118   5.218  1.00  0.00    -0.309 N 
HETATM   23  H   UNL     1      43.247 -16.501   6.015  1.00  0.00     0.170 HD
HETATM   24  C   UNL     1      44.746 -20.987   2.834  1.00  0.00     0.001 A 
HETATM   25  C   UNL     1      43.765 -20.748   1.870  1.00  0.00     0.002 A 
ENDBRANCH   2  14
TORSDOF 4
ENDMDL
MODEL 7
REMARK VINA RESULT:      -7.6      3.533      4.582
REMARK  4 active torsions:
REMARK  status: ('A' for Active; 'I' for Inactive)
REMARK    1  A    between atoms: C_2  and  N_3 
REMARK    2  A    between atoms: C_2  and  C_14 
REMARK    3  A    between atoms: N_3  and  C_6 
REMARK    4  A    between atoms: C_6  and  C_7 
ROOT
HETATM    1  C   UNL     1      40.587 -17.170   2.360  1.00  0.00     0.048 C 
HETATM    2  C   UNL     1      41.266 -15.838   2.648  1.00  0.00     0.251 C 
ENDROOT
BRANCH   2   3
HETATM    3  N   UNL     1      42.621 -16.116   3.251  1.00  0.00    -0.060 N 
HETATM    4  H   UNL     1      43.092 -15.258   3.558  1.00  0.00     0.278 HD
HETATM    5  H   UNL     1      42.445 -16.679   4.100  1.00  0.00     0.278 HD
BRANCH   3   6
HETATM    6  C   UNL     1      43.546 -16.909   2.393  1.00  0.00     0.271 C 
BRANCH   6   7
HETATM    7  C   UNL     1      43.954 -18.179   3.084  1.00  0.00    -0.033 A 
HETATM    8  C   UNL     1      44.122 -19.365   2.348  1.00  0.00     0.010 A 
HETATM    9  C   UNL     1      44.466 -20.555   2.996  1.00  0.00     0.024 A 
HETATM   10  C   UNL     1      44.642 -20.569   4.378  1.00  0.00     0.034 A 
HETATM   11 CL   UNL     1      45.063 -22.033   5.172  1.00  0.00    -0.084 Cl
HETATM   12  C   UNL     1      44.476 -19.402   5.119  1.00  0.00     0.024 A 
HETATM   13  C   UNL     1      44.129 -18.210   4.476  1.00  0.00     0.010 A 
ENDBRANCH   6   7
ENDBRANCH   3   6
ENDBRANCH   2   3
BRANCH   2  14
HETATM   14  C   UNL     1      41.427 -15.041   1.347  1.00  0.00     0.138 A 
HETATM   15  N   UNL     1      41.091 -15.611   0.230  1.00  0.00    -0.232 NA
HETATM   16  C   UNL     1      41.236 -14.857  -0.953  1.00  0.00     0.074 A 
HETATM   17  C   UNL     1      41.738 -13.550  -0.957  1.00  0.00     0.061 A 
HETATM   18  C   UNL     1      40.872 -15.434  -2.171  1.00  0.00     0.032 A 
HETATM   19  C   UNL     1      42.105 -12.964   0.342  1.00  0.00     0.259 A 
HETATM   20  C   UNL     1      41.881 -12.825  -2.141  1.00  0.00     0.019 A 
HETATM   21  O   UNL     1      42.564 -11.836   0.459  1.00  0.00    -0.267 OA
HETATM   22  N   UNL     1      41.909 -13.768   1.438  1.00  0.00    -0.309 N 
HETATM   23  H   UNL     1      42.163 -13.327   2.313  1.00  0.00     0.170 HD
HETATM   24  C   UNL     1      41.516 -13.415  -3.349  1.00  0.00     0.001 A 
HETATM   25  C   UNL     1      41.010 -14.716  -3.364  1.00  0.00     0.002 A 
ENDBRANCH   2  14
TORSDOF 4
ENDMDL
MODEL 8
REMARK VINA RESULT:      -7.6      2.619      5.727
REMARK  4 active torsions:
REMARK  status: ('A' for Active; 'I' for Inactive)
REMARK    1  A    between atoms: C_2  and  N_3 
REMARK    2  A    between atoms: C_2  and  C_14 
REMARK    3  A    between atoms: N_3  and  C_6 
REMARK    4  A    between atoms: C_6  and  C_7 
ROOT
HETATM    1  C   UNL     1      44.566 -15.470   6.791  1.00  0.00     0.048 C 
HETATM    2  C   UNL     1      43.468 -16.386   7.313  1.00  0.00     0.251 C 
ENDROOT
BRANCH   2   3
HETATM    3  N   UNL     1      42.143 -15.880   6.797  1.00  0.00    -0.060 N 
HETATM    4  H   UNL     1      41.572 -16.631   6.393  1.00  0.00     0.278 HD
HETATM    5  H   UNL     1      41.630 -15.530   7.624  1.00  0.00     0.278 HD
BRANCH   3   6
HETATM    6  C   UNL     1      42.229 -14.749   5.832  1.00  0.00     0.271 C 
BRANCH   6   7
HETATM    7  C   UNL     1      42.033 -15.235   4.424  1.00  0.00    -0.033 A 
HETATM    8  C   UNL     1      41.046 -16.193   4.135  1.00  0.00     0.010 A 
HETATM    9  C   UNL     1      40.888 -16.674   2.832  1.00  0.00     0.024 A 
HETATM   10  C   UNL     1      41.712 -16.203   1.813  1.00  0.00     0.034 A 
HETATM   11 CL   UNL     1      41.517 -16.796   0.212  1.00  0.00    -0.084 Cl
HETATM   12  C   UNL     1      42.696 -15.256   2.086  1.00  0.00     0.024 A 
HETATM   13  C   UNL     1      42.860 -14.775   3.388  1.00  0.00     0.010 A 
ENDBRANCH   6   7
ENDBRANCH   3   6
ENDBRANCH   2   3
BRANCH   2  14
HETATM   14  C   UNL     1      43.706 -17.820   6.823  1.00  0.00     0.138 A 
HETATM   15  N   UNL     1      44.061 -17.997   5.587  1.00  0.00    -0.232 NA
HETATM   16  C   UNL     1      44.285 -19.323   5.159  1.00  0.00     0.074 A 
HETATM   17  C   UNL     1      44.122 -20.425   6.006  1.00  0.00     0.061 A 
HETATM   18  C   UNL     1      44.682 -19.549   3.840  1.00  0.00     0.032 A 
HETATM   19  C   UNL     1      43.714 -20.156   7.393  1.00  0.00     0.259 A 
HETATM   20  C   UNL     1      44.342 -21.730   5.559  1.00  0.00     0.019 A 
HETATM   21  O   UNL     1      43.529 -21.041   8.218  1.00  0.00    -0.267 OA
HETATM   22  N   UNL     1      43.539 -18.834   7.720  1.00  0.00    -0.309 N 
HETATM   23  H   UNL     1      43.268 -18.688   8.685  1.00  0.00     0.170 HD
HETATM   24  C   UNL     1      44.734 -21.940   4.240  1.00  0.00     0.001 A 
HETATM   25  C   UNL     1      44.906 -20.852   3.382  1.00  0.00     0.002 A 
ENDBRANCH   2  14
TORSDOF 4
ENDMDL
MODEL 9
REMARK VINA RESULT:      -7.5      4.133      7.580
REMARK  4 active torsions:
REMARK  status: ('A' for Active; 'I' for Inactive)
REMARK    1  A    between atoms: C_2  and  N_3 
REMARK    2  A    between atoms: C_2  and  C_14 
REMARK    3  A    between atoms: N_3  and  C_6 
REMARK    4  A    between atoms: C_6  and  C_7 
ROOT
HETATM    1  C   UNL     1      41.744 -14.386   1.979  1.00  0.00     0.048 C 
HETATM    2  C   UNL     1      41.473 -15.778   1.425  1.00  0.00     0.251 C 
ENDROOT
BRANCH   2   3
HETATM    3  N   UNL     1      41.882 -15.799  -0.027  1.00  0.00    -0.060 N 
HETATM    4  H   UNL     1      42.856 -16.100  -0.151  1.00  0.00     0.278 HD
HETATM    5  H   UNL     1      41.291 -16.516  -0.480  1.00  0.00     0.278 HD
BRANCH   3   6
HETATM    6  C   UNL     1      41.660 -14.525  -0.767  1.00  0.00     0.271 C 
BRANCH   6   7
HETATM    7  C   UNL     1      40.423 -14.613  -1.614  1.00  0.00    -0.033 A 
HETATM    8  C   UNL     1      40.434 -15.343  -2.815  1.00  0.00     0.010 A 
HETATM    9  C   UNL     1      39.294 -15.394  -3.622  1.00  0.00     0.024 A 
HETATM   10  C   UNL     1      38.139 -14.717  -3.237  1.00  0.00     0.034 A 
HETATM   11 CL   UNL     1      36.739 -14.779  -4.232  1.00  0.00    -0.084 Cl
HETATM   12  C   UNL     1      38.115 -13.986  -2.052  1.00  0.00     0.024 A 
HETATM   13  C   UNL     1      39.254 -13.930  -1.243  1.00  0.00     0.010 A 
ENDBRANCH   6   7
ENDBRANCH   3   6
ENDBRANCH   2   3
BRANCH   2  14
HETATM   14  C   UNL     1      42.280 -16.819   2.210  1.00  0.00     0.138 A 
HETATM   15  N   UNL     1      42.503 -17.972   1.656  1.00  0.00    -0.232 NA
HETATM   16  C   UNL     1      43.257 -18.911   2.391  1.00  0.00     0.074 A 
HETATM   17  C   UNL     1      43.744 -18.646   3.677  1.00  0.00     0.061 A 
HETATM   18  C   UNL     1      43.528 -20.156   1.820  1.00  0.00     0.032 A 
HETATM   19  C   UNL     1      43.452 -17.323   4.250  1.00  0.00     0.259 A 
HETATM   20  C   UNL     1      44.481 -19.594   4.390  1.00  0.00     0.019 A 
HETATM   21  O   UNL     1      43.815 -16.986   5.368  1.00  0.00    -0.267 OA
HETATM   22  N   UNL     1      42.729 -16.471   3.451  1.00  0.00    -0.309 N 
HETATM   23  H   UNL     1      42.557 -15.568   3.875  1.00  0.00     0.170 HD
HETATM   24  C   UNL     1      44.740 -20.833   3.808  1.00  0.00     0.001 A 
HETATM   25  C   UNL     1      44.267 -21.113   2.525  1.00  0.00     0.002 A 
ENDBRANCH   2  14
TORSDOF 4
ENDMDL
MODEL 10
REMARK VINA RESULT:      -7.4      3.962      5.380
REMARK  4 active torsions:
REMARK  status: ('A' for Active; 'I' for Inactive)
REMARK    1  A    between atoms: C_2  and  N_3 
REMARK    2  A    between atoms: C_2  and  C_14 
REMARK    3  A    between atoms: N_3  and  C_6 
REMARK    4  A    between atoms: C_6  and  C_7 
ROOT
HETATM    1  C   UNL     1      41.651 -15.279   2.663  1.00  0.00     0.048 C 
HETATM    2  C   UNL     1      42.199 -15.786   1.336  1.00  0.00     0.251 C 
ENDROOT
BRANCH   2   3
HETATM    3  N   UNL     1      42.174 -17.295   1.359  1.00  0.00    -0.060 N 
HETATM    4  H   UNL     1      41.831 -17.663   2.254  1.00  0.00     0.278 HD
HETATM    5  H   UNL     1      41.489 -17.580   0.639  1.00  0.00     0.278 HD
BRANCH   3   6
HETATM    6  C   UNL     1      43.463 -17.956   1.014  1.00  0.00     0.271 C 
BRANCH   6   7
HETATM    7  C   UNL     1      43.859 -18.938   2.080  1.00  0.00    -0.033 A 
HETATM    8  C   UNL     1      44.026 -20.297   1.767  1.00  0.00     0.010 A 
HETATM    9  C   UNL     1      44.358 -21.217   2.766  1.00  0.00     0.024 A 
HETATM   10  C   UNL     1      44.524 -20.786   4.080  1.00  0.00     0.034 A 
HETATM   11 CL   UNL     1      44.931 -21.918   5.307  1.00  0.00    -0.084 Cl
HETATM   12  C   UNL     1      44.359 -19.442   4.405  1.00  0.00     0.024 A 
HETATM   13  C   UNL     1      44.023 -18.519   3.410  1.00  0.00     0.010 A 
ENDBRANCH   6   7
ENDBRANCH   3   6
ENDBRANCH   2   3
BRANCH   2  14
HETATM   14  C   UNL     1      41.335 -15.267   0.181  1.00  0.00     0.138 A 
HETATM   15  N   UNL     1      40.330 -14.496   0.461  1.00  0.00    -0.232 NA
HETATM   16  C   UNL     1      39.554 -14.020  -0.617  1.00  0.00     0.074 A 
HETATM   17  C   UNL     1      39.823 -14.364  -1.947  1.00  0.00     0.061 A 
HETATM   18  C   UNL     1      38.474 -13.177  -0.353  1.00  0.00     0.032 A 
HETATM   19  C   UNL     1      40.974 -15.246  -2.197  1.00  0.00     0.259 A 
HETATM   20  C   UNL     1      39.037 -13.888  -2.999  1.00  0.00     0.019 A 
HETATM   21  O   UNL     1      41.295 -15.622  -3.316  1.00  0.00    -0.267 OA
HETATM   22  N   UNL     1      41.678 -15.640  -1.087  1.00  0.00    -0.309 N 
HETATM   23  H   UNL     1      42.468 -16.237  -1.299  1.00  0.00     0.170 HD
HETATM   24  C   UNL     1      37.961 -13.050  -2.719  1.00  0.00     0.001 A 
HETATM   25  C   UNL     1      37.680 -12.694  -1.399  1.00  0.00     0.002 A 
ENDBRANCH   2  14
TORSDOF 4
ENDMDL
