MODEL 1
REMARK VINA RESULT:      -7.8      0.000      0.000
REMARK  5 active torsions:
REMARK  status: ('A' for Active; 'I' for Inactive)
REMARK    1  A    between atoms: C_2  and  C_3 
REMARK    2  A    between atoms: C_3  and  N_4 
REMARK    3  A    between atoms: C_7  and  C_8 
REMARK    4  A    between atoms: C_8  and  O_9 
REMARK    5  A    between atoms: N_13  and  C_15 
ROOT
HETATM    1  N   UNL     1      42.140 -17.057   2.591  1.00  0.00    -0.067 N 
HETATM    2  H   UNL     1      41.763 -17.727   3.276  1.00  0.00     0.280 HD
HETATM    3  C   UNL     1      41.678 -15.707   3.072  1.00  0.00     0.242 C 
HETATM    4  C   UNL     1      41.949 -14.601   2.023  1.00  0.00     0.044 C 
HETATM    5  C   UNL     1      41.311 -14.912   0.612  1.00  0.00    -0.029 C 
HETATM    6  C   UNL     1      39.751 -14.904   0.603  1.00  0.00     0.037 C 
HETATM    7  C   UNL     1      39.082 -13.554   0.332  1.00  0.00     0.236 C 
HETATM    8  N   UNL     1      39.613 -12.929  -0.936  1.00  0.00    -0.067 N 
HETATM    9  H   UNL     1      39.177 -11.996  -0.980  1.00  0.00     0.280 HD
HETATM   10  C   UNL     1      41.090 -12.659  -0.753  1.00  0.00     0.236 C 
HETATM   11  C   UNL     1      41.856 -13.957  -0.503  1.00  0.00     0.037 C 
HETATM   12  C   UNL     1      41.814 -16.352   0.230  1.00  0.00     0.037 C 
HETATM   13  C   UNL     1      41.545 -17.434   1.272  1.00  0.00     0.236 C 
ENDROOT
BRANCH   4  14
HETATM   14  C   UNL     1      41.593 -13.251   2.660  1.00  0.00     0.171 C 
BRANCH  14  15
HETATM   15  O   UNL     1      42.755 -12.440   2.637  1.00  0.00    -0.400 OA
HETATM   16  H   UNL     1      43.430 -12.861   2.069  1.00  0.00     0.209 HD
ENDBRANCH  14  15
ENDBRANCH   4  14
BRANCH   1  17
HETATM   17  C   UNL     1      43.644 -17.292   2.687  1.00  0.00     0.273 C 
BRANCH  17  18
HETATM   18  C   UNL     1      43.995 -18.606   3.337  1.00  0.00    -0.033 A 
HETATM   19  C   UNL     1      44.168 -18.691   4.729  1.00  0.00     0.010 A 
HETATM   20  C   UNL     1      44.552 -19.899   5.319  1.00  0.00     0.024 A 
HETATM   21  C   UNL     1      44.760 -21.026   4.529  1.00  0.00     0.034 A 
HETATM   22  C   UNL     1      44.579 -20.959   3.150  1.00  0.00     0.024 A 
HETATM   23 CL   UNL     1      45.248 -22.503   5.257  1.00  0.00    -0.084 Cl
HETATM   24  C   UNL     1      44.198 -19.754   2.554  1.00  0.00     0.010 A 
ENDBRANCH  17  18
ENDBRANCH   1  17
BRANCH   8  25
HETATM   25  C   UNL     1      39.208 -13.624  -2.266  1.00  0.00     0.192 C 
HETATM   26  C   UNL     1      37.690 -13.572  -2.495  1.00  0.00     0.059 C 
HETATM   27  C   UNL     1      37.219 -12.165  -2.831  1.00  0.00     0.169 C 
HETATM   28  O   UNL     1      37.933 -11.666  -3.953  1.00  0.00    -0.391 OA
HETATM   29  C   UNL     1      39.341 -11.599  -3.779  1.00  0.00     0.169 C 
HETATM   30  C   UNL     1      39.900 -12.981  -3.477  1.00  0.00     0.059 C 
ENDBRANCH   8  25
TORSDOF 5
ENDMDL
MODEL 2
REMARK VINA RESULT:      -7.6      3.716      8.791
REMARK  5 active torsions:
REMARK  status: ('A' for Active; 'I' for Inactive)
REMARK    1  A    between atoms: C_2  and  C_3 
REMARK    2  A    between atoms: C_3  and  N_4 
REMARK    3  A    between atoms: C_7  and  C_8 
REMARK    4  A    between atoms: C_8  and  O_9 
REMARK    5  A    between atoms: N_13  and  C_15 
ROOT
HETATM    1  N   UNL     1      41.799 -13.360   2.662  1.00  0.00    -0.067 N 
HETATM    2  H   UNL     1      41.360 -12.572   3.159  1.00  0.00     0.280 HD
HETATM    3  C   UNL     1      40.764 -14.454   2.676  1.00  0.00     0.242 C 
HETATM    4  C   UNL     1      41.347 -15.801   2.184  1.00  0.00     0.044 C 
HETATM    5  C   UNL     1      42.621 -16.261   2.998  1.00  0.00    -0.029 C 
HETATM    6  C   UNL     1      42.326 -16.631   4.485  1.00  0.00     0.037 C 
HETATM    7  C   UNL     1      41.933 -18.085   4.757  1.00  0.00     0.236 C 
HETATM    8  N   UNL     1      42.946 -19.040   4.175  1.00  0.00    -0.067 N 
HETATM    9  H   UNL     1      42.549 -19.980   4.325  1.00  0.00     0.280 HD
HETATM   10  C   UNL     1      42.962 -18.862   2.673  1.00  0.00     0.236 C 
HETATM   11  C   UNL     1      43.374 -17.440   2.294  1.00  0.00     0.037 C 
HETATM   12  C   UNL     1      43.608 -15.038   2.964  1.00  0.00     0.037 C 
HETATM   13  C   UNL     1      43.022 -13.714   3.447  1.00  0.00     0.236 C 
ENDROOT
BRANCH   4  14
HETATM   14  C   UNL     1      40.192 -16.806   2.084  1.00  0.00     0.171 C 
BRANCH  14  15
HETATM   15  O   UNL     1      38.983 -16.071   1.999  1.00  0.00    -0.400 OA
HETATM   16  H   UNL     1      38.234 -16.692   1.908  1.00  0.00     0.209 HD
ENDBRANCH  14  15
ENDBRANCH   4  14
BRANCH   1  17
HETATM   17  C   UNL     1      42.089 -12.769   1.288  1.00  0.00     0.273 C 
BRANCH  17  18
HETATM   18  C   UNL     1      41.050 -13.133   0.258  1.00  0.00    -0.033 A 
HETATM   19  C   UNL     1      39.753 -12.599   0.332  1.00  0.00     0.010 A 
HETATM   20  C   UNL     1      38.776 -12.986  -0.591  1.00  0.00     0.024 A 
HETATM   21  C   UNL     1      39.088 -13.901  -1.593  1.00  0.00     0.034 A 
HETATM   22  C   UNL     1      40.374 -14.428  -1.687  1.00  0.00     0.024 A 
HETATM   23 CL   UNL     1      37.881 -14.387  -2.715  1.00  0.00    -0.084 Cl
HETATM   24  C   UNL     1      41.352 -14.046  -0.766  1.00  0.00     0.010 A 
ENDBRANCH  17  18
ENDBRANCH   1  17
BRANCH   8  25
HETATM   25  C   UNL     1      44.337 -19.075   4.869  1.00  0.00     0.192 C 
HETATM   26  C   UNL     1      44.209 -19.315   6.382  1.00  0.00     0.059 C 
HETATM   27  C   UNL     1      43.774 -20.739   6.692  1.00  0.00     0.169 C 
HETATM   28  O   UNL     1      44.667 -21.665   6.091  1.00  0.00    -0.391 OA
HETATM   29  C   UNL     1      44.766 -21.563   4.677  1.00  0.00     0.169 C 
HETATM   30  C   UNL     1      45.238 -20.172   4.282  1.00  0.00     0.059 C 
ENDBRANCH   8  25
TORSDOF 5
ENDMDL
MODEL 3
REMARK VINA RESULT:      -7.6      3.952      6.089
REMARK  5 active torsions:
REMARK  status: ('A' for Active; 'I' for Inactive)
REMARK    1  A    between atoms: C_2  and  C_3 
REMARK    2  A    between atoms: C_3  and  N_4 
REMARK    3  A    between atoms: C_7  and  C_8 
REMARK    4  A    between atoms: C_8  and  O_9 
REMARK    5  A    between atoms: N_13  and  C_15 
ROOT
HETATM    1  N   UNL     1      43.044 -15.944   4.138  1.00  0.00    -0.067 N 
HETATM    2  H   UNL     1      43.856 -16.173   3.548  1.00  0.00     0.280 HD
HETATM    3  C   UNL     1      42.016 -15.391   3.186  1.00  0.00     0.242 C 
HETATM    4  C   UNL     1      40.817 -14.765   3.939  1.00  0.00     0.044 C 
HETATM    5  C   UNL     1      41.245 -13.647   4.970  1.00  0.00    -0.029 C 
HETATM    6  C   UNL     1      41.838 -12.364   4.309  1.00  0.00     0.037 C 
HETATM    7  C   UNL     1      40.833 -11.275   3.923  1.00  0.00     0.236 C 
HETATM    8  N   UNL     1      39.961 -10.899   5.097  1.00  0.00    -0.067 N 
HETATM    9  H   UNL     1      39.267 -10.238   4.717  1.00  0.00     0.280 HD
HETATM   10  C   UNL     1      39.157 -12.115   5.502  1.00  0.00     0.236 C 
HETATM   11  C   UNL     1      40.074 -13.258   5.935  1.00  0.00     0.037 C 
HETATM   12  C   UNL     1      42.348 -14.309   5.875  1.00  0.00     0.037 C 
HETATM   13  C   UNL     1      43.523 -14.926   5.124  1.00  0.00     0.236 C 
ENDROOT
BRANCH   4  14
HETATM   14  C   UNL     1      39.759 -14.375   2.898  1.00  0.00     0.171 C 
BRANCH  14  15
HETATM   15  O   UNL     1      39.131 -15.564   2.450  1.00  0.00    -0.400 OA
HETATM   16  H   UNL     1      38.215 -15.593   2.792  1.00  0.00     0.209 HD
ENDBRANCH  14  15
ENDBRANCH   4  14
BRANCH   1  17
HETATM   17  C   UNL     1      42.687 -17.291   4.755  1.00  0.00     0.273 C 
BRANCH  17  18
HETATM   18  C   UNL     1      43.238 -18.460   3.978  1.00  0.00    -0.033 A 
HETATM   19  C   UNL     1      42.781 -18.734   2.678  1.00  0.00     0.010 A 
HETATM   20  C   UNL     1      43.252 -19.853   1.985  1.00  0.00     0.024 A 
HETATM   21  C   UNL     1      44.182 -20.700   2.580  1.00  0.00     0.034 A 
HETATM   22  C   UNL     1      44.654 -20.434   3.863  1.00  0.00     0.024 A 
HETATM   23 CL   UNL     1      44.745 -22.084   1.732  1.00  0.00    -0.084 Cl
HETATM   24  C   UNL     1      44.185 -19.318   4.560  1.00  0.00     0.010 A 
ENDBRANCH  17  18
ENDBRANCH   1  17
BRANCH   8  25
HETATM   25  C   UNL     1      40.659 -10.130   6.253  1.00  0.00     0.192 C 
HETATM   26  C   UNL     1      41.443  -8.914   5.734  1.00  0.00     0.059 C 
HETATM   27  C   UNL     1      40.515  -7.806   5.261  1.00  0.00     0.169 C 
HETATM   28  O   UNL     1      39.618  -7.442   6.300  1.00  0.00    -0.391 OA
HETATM   29  C   UNL     1      38.792  -8.499   6.769  1.00  0.00     0.169 C 
HETATM   30  C   UNL     1      39.648  -9.638   7.301  1.00  0.00     0.059 C 
ENDBRANCH   8  25
TORSDOF 5
ENDMDL
MODEL 4
REMARK VINA RESULT:      -7.5      3.056      3.509
REMARK  5 active torsions:
REMARK  status: ('A' for Active; 'I' for Inactive)
REMARK    1  A    between atoms: C_2  and  C_3 
REMARK    2  A    between atoms: C_3  and  N_4 
REMARK    3  A    between atoms: C_7  and  C_8 
REMARK    4  A    between atoms: C_8  and  O_9 
REMARK    5  A    between atoms: N_13  and  C_15 
ROOT
HETATM    1  N   UNL     1      42.039 -17.774   1.480  1.00  0.00    -0.067 N 
HETATM    2  H   UNL     1      41.538 -18.646   1.259  1.00  0.00     0.280 HD
HETATM    3  C   UNL     1      41.599 -17.414   2.874  1.00  0.00     0.242 C 
HETATM    4  C   UNL     1      42.067 -15.994   3.274  1.00  0.00     0.044 C 
HETATM    5  C   UNL     1      41.599 -14.876   2.261  1.00  0.00    -0.029 C 
HETATM    6  C   UNL     1      40.056 -14.645   2.237  1.00  0.00     0.037 C 
HETATM    7  C   UNL     1      39.508 -13.622   3.235  1.00  0.00     0.236 C 
HETATM    8  N   UNL     1      40.234 -12.303   3.115  1.00  0.00    -0.067 N 
HETATM    9  H   UNL     1      39.863 -11.721   3.881  1.00  0.00     0.280 HD
HETATM   10  C   UNL     1      41.688 -12.525   3.466  1.00  0.00     0.236 C 
HETATM   11  C   UNL     1      42.338 -13.517   2.503  1.00  0.00     0.037 C 
HETATM   12  C   UNL     1      42.062 -15.372   0.843  1.00  0.00     0.037 C 
HETATM   13  C   UNL     1      41.597 -16.774   0.459  1.00  0.00     0.236 C 
ENDROOT
BRANCH   4  14
HETATM   14  C   UNL     1      41.712 -15.780   4.752  1.00  0.00     0.171 C 
BRANCH  14  15
HETATM   15  O   UNL     1      40.661 -16.672   5.080  1.00  0.00    -0.400 OA
HETATM   16  H   UNL     1      40.528 -17.299   4.341  1.00  0.00     0.209 HD
ENDBRANCH  14  15
ENDBRANCH   4  14
BRANCH   1  17
HETATM   17  C   UNL     1      43.501 -18.188   1.356  1.00  0.00     0.273 C 
BRANCH  17  18
HETATM   18  C   UNL     1      43.882 -19.298   2.302  1.00  0.00    -0.033 A 
HETATM   19  C   UNL     1      44.352 -19.006   3.594  1.00  0.00     0.010 A 
HETATM   20  C   UNL     1      44.759 -20.037   4.446  1.00  0.00     0.024 A 
HETATM   21  C   UNL     1      44.697 -21.360   4.019  1.00  0.00     0.034 A 
HETATM   22  C   UNL     1      44.221 -21.665   2.746  1.00  0.00     0.024 A 
HETATM   23 CL   UNL     1      45.215 -22.622   5.063  1.00  0.00    -0.084 Cl
HETATM   24  C   UNL     1      43.815 -20.639   1.890  1.00  0.00     0.010 A 
ENDBRANCH  17  18
ENDBRANCH   1  17
BRANCH   8  25
HETATM   25  C   UNL     1      39.964 -11.485   1.821  1.00  0.00     0.192 C 
HETATM   26  C   UNL     1      38.460 -11.285   1.580  1.00  0.00     0.059 C 
HETATM   27  C   UNL     1      37.854 -10.314   2.583  1.00  0.00     0.169 C 
HETATM   28  O   UNL     1      38.556  -9.080   2.554  1.00  0.00    -0.391 OA
HETATM   29  C   UNL     1      39.940  -9.176   2.860  1.00  0.00     0.169 C 
HETATM   30  C   UNL     1      40.632 -10.103   1.872  1.00  0.00     0.059 C 
ENDBRANCH   8  25
TORSDOF 5
ENDMDL
MODEL 5
REMARK VINA RESULT:      -7.3      1.856      2.079
REMARK  5 active torsions:
REMARK  status: ('A' for Active; 'I' for Inactive)
REMARK    1  A    between atoms: C_2  and  C_3 
REMARK    2  A    between atoms: C_3  and  N_4 
REMARK    3  A    between atoms: C_7  and  C_8 
REMARK    4  A    between atoms: C_8  and  O_9 
REMARK    5  A    between atoms: N_13  and  C_15 
ROOT
HETATM    1  N   UNL     1      41.981 -17.256   1.860  1.00  0.00    -0.067 N 
HETATM    2  H   UNL     1      41.743 -18.257   1.829  1.00  0.00     0.280 HD
HETATM    3  C   UNL     1      41.048 -16.665   2.884  1.00  0.00     0.242 C 
HETATM    4  C   UNL     1      41.101 -15.117   2.881  1.00  0.00     0.044 C 
HETATM    5  C   UNL     1      40.807 -14.487   1.463  1.00  0.00    -0.029 C 
HETATM    6  C   UNL     1      39.344 -14.699   0.963  1.00  0.00     0.037 C 
HETATM    7  C   UNL     1      38.326 -13.632   1.374  1.00  0.00     0.236 C 
HETATM    8  N   UNL     1      38.808 -12.250   1.003  1.00  0.00    -0.067 N 
HETATM    9  H   UNL     1      38.108 -11.605   1.400  1.00  0.00     0.280 HD
HETATM   10  C   UNL     1      40.079 -11.965   1.771  1.00  0.00     0.236 C 
HETATM   11  C   UNL     1      41.175 -12.966   1.408  1.00  0.00     0.037 C 
HETATM   12  C   UNL     1      41.793 -15.205   0.469  1.00  0.00     0.037 C 
HETATM   13  C   UNL     1      41.735 -16.729   0.482  1.00  0.00     0.236 C 
ENDROOT
BRANCH   4  14
HETATM   14  C   UNL     1      40.245 -14.615   4.051  1.00  0.00     0.171 C 
BRANCH  14  15
HETATM   15  O   UNL     1      40.150 -15.662   5.001  1.00  0.00    -0.400 OA
HETATM   16  H   UNL     1      40.733 -16.399   4.728  1.00  0.00     0.209 HD
ENDBRANCH  14  15
ENDBRANCH   4  14
BRANCH   1  17
HETATM   17  C   UNL     1      43.451 -17.275   2.267  1.00  0.00     0.273 C 
BRANCH  17  18
HETATM   18  C   UNL     1      43.843 -18.532   3.000  1.00  0.00    -0.033 A 
HETATM   19  C   UNL     1      44.074 -18.510   4.386  1.00  0.00     0.010 A 
HETATM   20  C   UNL     1      44.495 -19.666   5.050  1.00  0.00     0.024 A 
HETATM   21  C   UNL     1      44.684 -20.848   4.340  1.00  0.00     0.034 A 
HETATM   22  C   UNL     1      44.446 -20.888   2.968  1.00  0.00     0.024 A 
HETATM   23 CL   UNL     1      45.218 -22.262   5.157  1.00  0.00    -0.084 Cl
HETATM   24  C   UNL     1      44.027 -19.736   2.299  1.00  0.00     0.010 A 
ENDBRANCH  17  18
ENDBRANCH   1  17
BRANCH   8  25
HETATM   25  C   UNL     1      38.843 -11.920  -0.516  1.00  0.00     0.192 C 
HETATM   26  C   UNL     1      37.487 -12.188  -1.187  1.00  0.00     0.059 C 
HETATM   27  C   UNL     1      36.439 -11.169  -0.765  1.00  0.00     0.169 C 
HETATM   28  O   UNL     1      36.901  -9.853  -1.032  1.00  0.00    -0.391 OA
HETATM   29  C   UNL     1      38.108  -9.501  -0.370  1.00  0.00     0.169 C 
HETATM   30  C   UNL     1      39.224 -10.453  -0.771  1.00  0.00     0.059 C 
ENDBRANCH   8  25
TORSDOF 5
ENDMDL
MODEL 6
REMARK VINA RESULT:      -7.3      3.833      8.898
REMARK  5 active torsions:
REMARK  status: ('A' for Active; 'I' for Inactive)
REMARK    1  A    between atoms: C_2  and  C_3 
REMARK    2  A    between atoms: C_3  and  N_4 
REMARK    3  A    between atoms: C_7  and  C_8 
REMARK    4  A    between atoms: C_8  and  O_9 
REMARK    5  A    between atoms: N_13  and  C_15 
ROOT
HETATM    1  N   UNL     1      41.007 -13.150   1.321  1.00  0.00    -0.067 N 
HETATM    2  H   UNL     1      40.335 -12.373   1.392  1.00  0.00     0.280 HD
HETATM    3  C   UNL     1      40.210 -14.386   1.643  1.00  0.00     0.242 C 
HETATM    4  C   UNL     1      41.122 -15.625   1.822  1.00  0.00     0.044 C 
HETATM    5  C   UNL     1      42.248 -15.416   2.910  1.00  0.00    -0.029 C 
HETATM    6  C   UNL     1      41.707 -15.277   4.367  1.00  0.00     0.037 C 
HETATM    7  C   UNL     1      41.534 -16.579   5.153  1.00  0.00     0.236 C 
HETATM    8  N   UNL     1      42.806 -17.391   5.147  1.00  0.00    -0.067 N 
HETATM    9  H   UNL     1      42.563 -18.278   5.613  1.00  0.00     0.280 HD
HETATM   10  C   UNL     1      43.118 -17.778   3.718  1.00  0.00     0.236 C 
HETATM   11  C   UNL     1      43.338 -16.539   2.851  1.00  0.00     0.037 C 
HETATM   12  C   UNL     1      42.980 -14.083   2.510  1.00  0.00     0.037 C 
HETATM   13  C   UNL     1      42.072 -12.869   2.333  1.00  0.00     0.236 C 
ENDROOT
BRANCH   4  14
HETATM   14  C   UNL     1      40.219 -16.854   1.989  1.00  0.00     0.171 C 
BRANCH  14  15
HETATM   15  O   UNL     1      40.531 -17.767   0.951  1.00  0.00    -0.400 OA
HETATM   16  H   UNL     1      40.089 -17.482   0.127  1.00  0.00     0.209 HD
ENDBRANCH  14  15
ENDBRANCH   4  14
BRANCH   1  17
HETATM   17  C   UNL     1      41.480 -13.050  -0.126  1.00  0.00     0.273 C 
BRANCH  17  18
HETATM   18  C   UNL     1      40.440 -13.505  -1.118  1.00  0.00    -0.033 A 
HETATM   19  C   UNL     1      39.177 -12.891  -1.162  1.00  0.00     0.010 A 
HETATM   20  C   UNL     1      38.197 -13.356  -2.044  1.00  0.00     0.024 A 
HETATM   21  C   UNL     1      38.471 -14.429  -2.888  1.00  0.00     0.034 A 
HETATM   22  C   UNL     1      39.723 -15.038  -2.864  1.00  0.00     0.024 A 
HETATM   23 CL   UNL     1      37.258 -15.009  -3.957  1.00  0.00    -0.084 Cl
HETATM   24  C   UNL     1      40.705 -14.579  -1.984  1.00  0.00     0.010 A 
ENDBRANCH  17  18
ENDBRANCH   1  17
BRANCH   8  25
HETATM   25  C   UNL     1      43.993 -16.816   5.970  1.00  0.00     0.192 C 
HETATM   26  C   UNL     1      43.532 -16.287   7.337  1.00  0.00     0.059 C 
HETATM   27  C   UNL     1      43.142 -17.418   8.276  1.00  0.00     0.169 C 
HETATM   28  O   UNL     1      44.217 -18.336   8.408  1.00  0.00    -0.391 OA
HETATM   29  C   UNL     1      44.638 -18.938   7.191  1.00  0.00     0.169 C 
HETATM   30  C   UNL     1      45.086 -17.870   6.205  1.00  0.00     0.059 C 
ENDBRANCH   8  25
TORSDOF 5
ENDMDL
MODEL 7
REMARK VINA RESULT:      -7.2      1.814      2.399
REMARK  5 active torsions:
REMARK  status: ('A' for Active; 'I' for Inactive)
REMARK    1  A    between atoms: C_2  and  C_3 
REMARK    2  A    between atoms: C_3  and  N_4 
REMARK    3  A    between atoms: C_7  and  C_8 
REMARK    4  A    between atoms: C_8  and  O_9 
REMARK    5  A    between atoms: N_13  and  C_15 
ROOT
HETATM    1  N   UNL     1      41.950 -17.695   2.314  1.00  0.00    -0.067 N 
HETATM    2  H   UNL     1      41.767 -18.701   2.189  1.00  0.00     0.280 HD
HETATM    3  C   UNL     1      40.604 -17.034   2.178  1.00  0.00     0.242 C 
HETATM    4  C   UNL     1      40.728 -15.493   2.095  1.00  0.00     0.044 C 
HETATM    5  C   UNL     1      41.682 -15.008   0.933  1.00  0.00    -0.029 C 
HETATM    6  C   UNL     1      41.140 -15.303  -0.500  1.00  0.00     0.037 C 
HETATM    7  C   UNL     1      40.244 -14.229  -1.122  1.00  0.00     0.236 C 
HETATM    8  N   UNL     1      40.914 -12.876  -1.088  1.00  0.00    -0.067 N 
HETATM    9  H   UNL     1      40.204 -12.215  -1.436  1.00  0.00     0.280 HD
HETATM   10  C   UNL     1      41.130 -12.487   0.358  1.00  0.00     0.236 C 
HETATM   11  C   UNL     1      42.042 -13.489   1.064  1.00  0.00     0.037 C 
HETATM   12  C   UNL     1      43.030 -15.790   1.139  1.00  0.00     0.037 C 
HETATM   13  C   UNL     1      42.897 -17.308   1.223  1.00  0.00     0.236 C 
ENDROOT
BRANCH   4  14
HETATM   14  C   UNL     1      39.310 -14.905   2.117  1.00  0.00     0.171 C 
BRANCH  14  15
HETATM   15  O   UNL     1      39.275 -13.894   3.110  1.00  0.00    -0.400 OA
HETATM   16  H   UNL     1      40.121 -13.894   3.599  1.00  0.00     0.209 HD
ENDBRANCH  14  15
ENDBRANCH   4  14
BRANCH   1  17
HETATM   17  C   UNL     1      42.554 -17.637   3.713  1.00  0.00     0.273 C 
BRANCH  17  18
HETATM   18  C   UNL     1      43.356 -18.865   4.060  1.00  0.00    -0.033 A 
HETATM   19  C   UNL     1      43.834 -19.717   3.049  1.00  0.00     0.010 A 
HETATM   20  C   UNL     1      44.526 -20.885   3.379  1.00  0.00     0.024 A 
HETATM   21  C   UNL     1      44.751 -21.209   4.715  1.00  0.00     0.034 A 
HETATM   22  C   UNL     1      44.295 -20.368   5.727  1.00  0.00     0.024 A 
HETATM   23 CL   UNL     1      45.587 -22.655   5.116  1.00  0.00    -0.084 Cl
HETATM   24  C   UNL     1      43.601 -19.200   5.402  1.00  0.00     0.010 A 
ENDBRANCH  17  18
ENDBRANCH   1  17
BRANCH   8  25
HETATM   25  C   UNL     1      42.135 -12.690  -2.032  1.00  0.00     0.192 C 
HETATM   26  C   UNL     1      41.750 -12.901  -3.504  1.00  0.00     0.059 C 
HETATM   27  C   UNL     1      40.891 -11.762  -4.031  1.00  0.00     0.169 C 
HETATM   28  O   UNL     1      41.553 -10.520  -3.837  1.00  0.00    -0.391 OA
HETATM   29  C   UNL     1      41.858 -10.214  -2.484  1.00  0.00     0.169 C 
HETATM   30  C   UNL     1      42.754 -11.291  -1.891  1.00  0.00     0.059 C 
ENDBRANCH   8  25
TORSDOF 5
ENDMDL
MODEL 8
REMARK VINA RESULT:      -7.0      3.268      4.438
REMARK  5 active torsions:
REMARK  status: ('A' for Active; 'I' for Inactive)
REMARK    1  A    between atoms: C_2  and  C_3 
REMARK    2  A    between atoms: C_3  and  N_4 
REMARK    3  A    between atoms: C_7  and  C_8 
REMARK    4  A    between atoms: C_8  and  O_9 
REMARK    5  A    between atoms: N_13  and  C_15 
ROOT
HETATM    1  N   UNL     1      43.467 -16.058   4.339  1.00  0.00    -0.067 N 
HETATM    2  H   UNL     1      44.489 -16.170   4.396  1.00  0.00     0.280 HD
HETATM    3  C   UNL     1      43.186 -15.785   2.884  1.00  0.00     0.242 C 
HETATM    4  C   UNL     1      41.719 -15.347   2.657  1.00  0.00     0.044 C 
HETATM    5  C   UNL     1      41.302 -14.095   3.526  1.00  0.00    -0.029 C 
HETATM    6  C   UNL     1      42.033 -12.775   3.131  1.00  0.00     0.037 C 
HETATM    7  C   UNL     1      41.366 -11.930   2.042  1.00  0.00     0.236 C 
HETATM    8  N   UNL     1      39.923 -11.644   2.383  1.00  0.00    -0.067 N 
HETATM    9  H   UNL     1      39.542 -11.159   1.557  1.00  0.00     0.280 HD
HETATM   10  C   UNL     1      39.177 -12.958   2.440  1.00  0.00     0.236 C 
HETATM   11  C   UNL     1      39.752 -13.868   3.524  1.00  0.00     0.037 C 
HETATM   12  C   UNL     1      41.681 -14.464   5.007  1.00  0.00     0.037 C 
HETATM   13  C   UNL     1      43.128 -14.898   5.220  1.00  0.00     0.236 C 
ENDROOT
BRANCH   4  14
HETATM   14  C   UNL     1      41.487 -15.246   1.143  1.00  0.00     0.171 C 
BRANCH  14  15
HETATM   15  O   UNL     1      40.492 -16.192   0.792  1.00  0.00    -0.400 OA
HETATM   16  H   UNL     1      40.073 -16.536   1.605  1.00  0.00     0.209 HD
ENDBRANCH  14  15
ENDBRANCH   4  14
BRANCH   1  17
HETATM   17  C   UNL     1      42.954 -17.400   4.850  1.00  0.00     0.273 C 
BRANCH  17  18
HETATM   18  C   UNL     1      43.415 -18.565   4.012  1.00  0.00    -0.033 A 
HETATM   19  C   UNL     1      42.796 -18.850   2.783  1.00  0.00     0.010 A 
HETATM   20  C   UNL     1      43.188 -19.967   2.037  1.00  0.00     0.024 A 
HETATM   21  C   UNL     1      44.198 -20.800   2.509  1.00  0.00     0.034 A 
HETATM   22  C   UNL     1      44.829 -20.522   3.719  1.00  0.00     0.024 A 
HETATM   23 CL   UNL     1      44.664 -22.181   1.599  1.00  0.00    -0.084 Cl
HETATM   24  C   UNL     1      44.440 -19.410   4.469  1.00  0.00     0.010 A 
ENDBRANCH  17  18
ENDBRANCH   1  17
BRANCH   8  25
HETATM   25  C   UNL     1      39.678 -10.671   3.571  1.00  0.00     0.192 C 
HETATM   26  C   UNL     1      40.328  -9.301   3.325  1.00  0.00     0.059 C 
HETATM   27  C   UNL     1      39.599  -8.517   2.245  1.00  0.00     0.169 C 
HETATM   28  O   UNL     1      38.224  -8.389   2.577  1.00  0.00    -0.391 OA
HETATM   29  C   UNL     1      37.533  -9.621   2.730  1.00  0.00     0.169 C 
HETATM   30  C   UNL     1      38.179 -10.454   3.827  1.00  0.00     0.059 C 
ENDBRANCH   8  25
TORSDOF 5
ENDMDL
MODEL 9
REMARK VINA RESULT:      -7.0      2.628      3.470
REMARK  5 active torsions:
REMARK  status: ('A' for Active; 'I' for Inactive)
REMARK    1  A    between atoms: C_2  and  C_3 
REMARK    2  A    between atoms: C_3  and  N_4 
REMARK    3  A    between atoms: C_7  and  C_8 
REMARK    4  A    between atoms: C_8  and  O_9 
REMARK    5  A    between atoms: N_13  and  C_15 
ROOT
HETATM    1  N   UNL     1      41.560 -15.839   2.171  1.00  0.00    -0.067 N 
HETATM    2  H   UNL     1      42.344 -15.857   2.839  1.00  0.00     0.280 HD
HETATM    3  C   UNL     1      41.966 -14.838   1.121  1.00  0.00     0.242 C 
HETATM    4  C   UNL     1      40.794 -14.503   0.166  1.00  0.00     0.044 C 
HETATM    5  C   UNL     1      39.504 -13.992   0.920  1.00  0.00    -0.029 C 
HETATM    6  C   UNL     1      39.679 -12.606   1.615  1.00  0.00     0.037 C 
HETATM    7  C   UNL     1      39.366 -11.375   0.760  1.00  0.00     0.236 C 
HETATM    8  N   UNL     1      37.992 -11.477   0.143  1.00  0.00    -0.067 N 
HETATM    9  H   UNL     1      37.914 -10.659  -0.480  1.00  0.00     0.280 HD
HETATM   10  C   UNL     1      37.972 -12.673  -0.784  1.00  0.00     0.236 C 
HETATM   11  C   UNL     1      38.248 -13.965  -0.016  1.00  0.00     0.037 C 
HETATM   12  C   UNL     1      39.199 -15.076   2.018  1.00  0.00     0.037 C 
HETATM   13  C   UNL     1      40.361 -15.402   2.952  1.00  0.00     0.236 C 
ENDROOT
BRANCH   4  14
HETATM   14  C   UNL     1      41.341 -13.607  -0.953  1.00  0.00     0.171 C 
BRANCH  14  15
HETATM   15  O   UNL     1      41.831 -14.448  -1.983  1.00  0.00    -0.400 OA
HETATM   16  H   UNL     1      41.432 -14.180  -2.835  1.00  0.00     0.209 HD
ENDBRANCH  14  15
ENDBRANCH   4  14
BRANCH   1  17
HETATM   17  C   UNL     1      41.498 -17.284   1.690  1.00  0.00     0.273 C 
BRANCH  17  18
HETATM   18  C   UNL     1      42.408 -18.203   2.465  1.00  0.00    -0.033 A 
HETATM   19  C   UNL     1      42.577 -18.041   3.850  1.00  0.00     0.010 A 
HETATM   20  C   UNL     1      43.467 -18.858   4.553  1.00  0.00     0.024 A 
HETATM   21  C   UNL     1      44.189 -19.841   3.882  1.00  0.00     0.034 A 
HETATM   22  C   UNL     1      44.022 -20.022   2.512  1.00  0.00     0.024 A 
HETATM   23 CL   UNL     1      45.295 -20.831   4.747  1.00  0.00    -0.084 Cl
HETATM   24  C   UNL     1      43.135 -19.207   1.804  1.00  0.00     0.010 A 
ENDBRANCH  17  18
ENDBRANCH   1  17
BRANCH   8  25
HETATM   25  C   UNL     1      36.789 -11.355   1.120  1.00  0.00     0.192 C 
HETATM   26  C   UNL     1      36.894 -10.096   1.994  1.00  0.00     0.059 C 
HETATM   27  C   UNL     1      36.651  -8.829   1.189  1.00  0.00     0.169 C 
HETATM   28  O   UNL     1      35.395  -8.903   0.529  1.00  0.00    -0.391 OA
HETATM   29  C   UNL     1      35.259  -9.995  -0.370  1.00  0.00     0.169 C 
HETATM   30  C   UNL     1      35.449 -11.310   0.370  1.00  0.00     0.059 C 
ENDBRANCH   8  25
TORSDOF 5
ENDMDL
MODEL 10
REMARK VINA RESULT:      -6.7      2.232      3.901
REMARK  5 active torsions:
REMARK  status: ('A' for Active; 'I' for Inactive)
REMARK    1  A    between atoms: C_2  and  C_3 
REMARK    2  A    between atoms: C_3  and  N_4 
REMARK    3  A    between atoms: C_7  and  C_8 
REMARK    4  A    between atoms: C_8  and  O_9 
REMARK    5  A    between atoms: N_13  and  C_15 
ROOT
HETATM    1  N   UNL     1      41.456 -15.244   0.385  1.00  0.00    -0.067 N 
HETATM    2  H   UNL     1      42.364 -15.125   0.857  1.00  0.00     0.280 HD
HETATM    3  C   UNL     1      41.718 -14.899  -1.057  1.00  0.00     0.242 C 
HETATM    4  C   UNL     1      40.403 -14.787  -1.867  1.00  0.00     0.044 C 
HETATM    5  C   UNL     1      39.377 -13.757  -1.249  1.00  0.00    -0.029 C 
HETATM    6  C   UNL     1      39.850 -12.272  -1.313  1.00  0.00     0.037 C 
HETATM    7  C   UNL     1      39.484 -11.498  -2.582  1.00  0.00     0.236 C 
HETATM    8  N   UNL     1      38.003 -11.585  -2.863  1.00  0.00    -0.067 N 
HETATM    9  H   UNL     1      37.873 -11.119  -3.774  1.00  0.00     0.280 HD
HETATM   10  C   UNL     1      37.649 -13.034  -3.114  1.00  0.00     0.236 C 
HETATM   11  C   UNL     1      37.953 -13.892  -1.886  1.00  0.00     0.037 C 
HETATM   12  C   UNL     1      39.216 -14.176   0.258  1.00  0.00     0.037 C 
HETATM   13  C   UNL     1      40.518 -14.286   1.047  1.00  0.00     0.236 C 
ENDROOT
BRANCH   4  14
HETATM   14  C   UNL     1      40.775 -14.591  -3.343  1.00  0.00     0.171 C 
BRANCH  14  15
HETATM   15  O   UNL     1      42.162 -14.851  -3.480  1.00  0.00    -0.400 OA
HETATM   16  H   UNL     1      42.617 -14.615  -2.648  1.00  0.00     0.209 HD
ENDBRANCH  14  15
ENDBRANCH   4  14
BRANCH   1  17
HETATM   17  C   UNL     1      41.136 -16.712   0.645  1.00  0.00     0.273 C 
BRANCH  17  18
HETATM   18  C   UNL     1      42.058 -17.347   1.654  1.00  0.00    -0.033 A 
HETATM   19  C   UNL     1      43.303 -17.864   1.258  1.00  0.00     0.010 A 
HETATM   20  C   UNL     1      44.129 -18.505   2.186  1.00  0.00     0.024 A 
HETATM   21  C   UNL     1      43.722 -18.630   3.511  1.00  0.00     0.034 A 
HETATM   22  C   UNL     1      42.497 -18.111   3.921  1.00  0.00     0.024 A 
HETATM   23 CL   UNL     1      44.732 -19.434   4.645  1.00  0.00    -0.084 Cl
HETATM   24  C   UNL     1      41.667 -17.471   2.997  1.00  0.00     0.010 A 
ENDBRANCH  17  18
ENDBRANCH   1  17
BRANCH   8  25
HETATM   25  C   UNL     1      37.071 -10.817  -1.883  1.00  0.00     0.192 C 
HETATM   26  C   UNL     1      37.432  -9.326  -1.808  1.00  0.00     0.059 C 
HETATM   27  C   UNL     1      37.058  -8.591  -3.087  1.00  0.00     0.169 C 
HETATM   28  O   UNL     1      35.680  -8.781  -3.374  1.00  0.00    -0.391 OA
HETATM   29  C   UNL     1      35.290 -10.136  -3.548  1.00  0.00     0.169 C 
HETATM   30  C   UNL     1      35.595 -10.936  -2.291  1.00  0.00     0.059 C 
ENDBRANCH   8  25
TORSDOF 5
ENDMDL
