MODEL 1
REMARK VINA RESULT:      -8.9      0.000      0.000
REMARK  3 active torsions:
REMARK  status: ('A' for Active; 'I' for Inactive)
REMARK    1  A    between atoms: C_5  and  N_6 
REMARK       I    between atoms: N_6  and  C_7 
REMARK    2  A    between atoms: C_7  and  C_8 
REMARK    3  A    between atoms: C_13  and  O_14 
ROOT
HETATM    1  C   UNL     1      43.527 -17.586   8.051  1.00  0.00     0.001 A 
HETATM    2  C   UNL     1      43.738 -18.873   7.546  1.00  0.00     0.013 A 
HETATM    3  C   UNL     1      43.945 -19.019   6.185  1.00  0.00    -0.017 A 
HETATM    4  C   UNL     1      43.936 -17.893   5.331  1.00  0.00    -0.020 A 
HETATM    5  C   UNL     1      44.208 -18.321   3.898  1.00  0.00     0.153 A 
HETATM    6  C   UNL     1      44.371 -19.824   4.044  1.00  0.00    -0.020 A 
HETATM    7  C   UNL     1      44.215 -20.203   5.397  1.00  0.00    -0.017 A 
HETATM    8  C   UNL     1      44.654 -20.758   3.059  1.00  0.00     0.010 A 
HETATM    9  C   UNL     1      44.779 -22.095   3.440  1.00  0.00     0.001 A 
HETATM   10  C   UNL     1      44.625 -22.477   4.783  1.00  0.00     0.001 A 
HETATM   11  C   UNL     1      44.342 -21.530   5.772  1.00  0.00     0.013 A 
HETATM   12  C   UNL     1      43.740 -16.613   5.829  1.00  0.00     0.010 A 
HETATM   13  C   UNL     1      43.529 -16.467   7.201  1.00  0.00     0.001 A 
ENDROOT
BRANCH   5  14
HETATM   14  N   UNL     1      43.081 -18.016   3.042  1.00  0.00    -0.346 N 
HETATM   15  C   UNL     1      43.239 -17.621   1.743  1.00  0.00     0.249 C 
HETATM   16  O   UNL     1      44.336 -17.425   1.226  1.00  0.00    -0.271 OA
HETATM   17  H   UNL     1      42.172 -17.974   3.502  1.00  0.00     0.163 HD
BRANCH  15  18
HETATM   18  C   UNL     1      41.953 -17.252   0.982  1.00  0.00     0.279 C 
HETATM   19  N   UNL     1      42.091 -15.883   0.330  1.00  0.00    -0.060 N 
HETATM   20  H   UNL     1      42.876 -15.398   0.792  1.00  0.00     0.278 HD
HETATM   21  H   UNL     1      42.330 -15.955  -0.667  1.00  0.00     0.278 HD
HETATM   22  C   UNL     1      40.832 -15.124   0.613  1.00  0.00     0.264 C 
HETATM   23  C   UNL     1      40.422 -15.679   1.976  1.00  0.00     0.146 C 
HETATM   24  C   UNL     1      40.668 -17.171   1.811  1.00  0.00     0.076 C 
BRANCH  23  25
HETATM   25  O   UNL     1      41.318 -15.197   2.979  1.00  0.00    -0.394 OA
HETATM   26  H   UNL     1      40.785 -14.819   3.711  1.00  0.00     0.210 HD
ENDBRANCH  23  25
ENDBRANCH  15  18
ENDBRANCH   5  14
TORSDOF 3
ENDMDL
MODEL 2
REMARK VINA RESULT:      -8.9      1.684      3.983
REMARK  3 active torsions:
REMARK  status: ('A' for Active; 'I' for Inactive)
REMARK    1  A    between atoms: C_5  and  N_6 
REMARK       I    between atoms: N_6  and  C_7 
REMARK    2  A    between atoms: C_7  and  C_8 
REMARK    3  A    between atoms: C_13  and  O_14 
ROOT
HETATM    1  C   UNL     1      44.698 -21.558   2.627  1.00  0.00     0.001 A 
HETATM    2  C   UNL     1      44.985 -20.716   3.705  1.00  0.00     0.013 A 
HETATM    3  C   UNL     1      44.233 -19.564   3.859  1.00  0.00    -0.017 A 
HETATM    4  C   UNL     1      43.205 -19.249   2.942  1.00  0.00    -0.020 A 
HETATM    5  C   UNL     1      42.521 -17.953   3.345  1.00  0.00     0.153 A 
HETATM    6  C   UNL     1      43.287 -17.572   4.601  1.00  0.00    -0.020 A 
HETATM    7  C   UNL     1      44.282 -18.537   4.878  1.00  0.00    -0.017 A 
HETATM    8  C   UNL     1      43.095 -16.474   5.426  1.00  0.00     0.010 A 
HETATM    9  C   UNL     1      43.917 -16.343   6.546  1.00  0.00     0.001 A 
HETATM   10  C   UNL     1      44.906 -17.300   6.827  1.00  0.00     0.001 A 
HETATM   11  C   UNL     1      45.094 -18.406   5.991  1.00  0.00     0.013 A 
HETATM   12  C   UNL     1      42.907 -20.089   1.877  1.00  0.00     0.010 A 
HETATM   13  C   UNL     1      43.668 -21.249   1.723  1.00  0.00     0.001 A 
ENDROOT
BRANCH   5  14
HETATM   14  N   UNL     1      42.687 -16.940   2.325  1.00  0.00    -0.346 N 
HETATM   15  C   UNL     1      41.635 -16.466   1.591  1.00  0.00     0.249 C 
HETATM   16  O   UNL     1      40.493 -16.908   1.687  1.00  0.00    -0.271 OA
HETATM   17  H   UNL     1      43.649 -16.702   2.086  1.00  0.00     0.163 HD
BRANCH  15  18
HETATM   18  C   UNL     1      41.977 -15.451   0.487  1.00  0.00     0.279 C 
HETATM   19  N   UNL     1      41.810 -14.026   0.998  1.00  0.00    -0.060 N 
HETATM   20  H   UNL     1      41.225 -14.069   1.848  1.00  0.00     0.278 HD
HETATM   21  H   UNL     1      42.707 -13.610   1.275  1.00  0.00     0.278 HD
HETATM   22  C   UNL     1      41.066 -13.259  -0.051  1.00  0.00     0.264 C 
HETATM   23  C   UNL     1      40.180 -14.338  -0.670  1.00  0.00     0.146 C 
HETATM   24  C   UNL     1      41.132 -15.518  -0.788  1.00  0.00     0.076 C 
BRANCH  23  25
HETATM   25  O   UNL     1      39.149 -14.699   0.252  1.00  0.00    -0.394 OA
HETATM   26  H   UNL     1      39.552 -15.233   0.968  1.00  0.00     0.210 HD
ENDBRANCH  23  25
ENDBRANCH  15  18
ENDBRANCH   5  14
TORSDOF 3
ENDMDL
MODEL 3
REMARK VINA RESULT:      -8.2      2.698      3.754
REMARK  3 active torsions:
REMARK  status: ('A' for Active; 'I' for Inactive)
REMARK    1  A    between atoms: C_5  and  N_6 
REMARK       I    between atoms: N_6  and  C_7 
REMARK    2  A    between atoms: C_7  and  C_8 
REMARK    3  A    between atoms: C_13  and  O_14 
ROOT
HETATM    1  C   UNL     1      43.586 -18.769   7.667  1.00  0.00     0.001 A 
HETATM    2  C   UNL     1      43.564 -19.168   6.328  1.00  0.00     0.013 A 
HETATM    3  C   UNL     1      43.576 -18.189   5.349  1.00  0.00    -0.017 A 
HETATM    4  C   UNL     1      43.604 -16.821   5.702  1.00  0.00    -0.020 A 
HETATM    5  C   UNL     1      43.635 -15.958   4.450  1.00  0.00     0.153 A 
HETATM    6  C   UNL     1      43.620 -17.003   3.348  1.00  0.00    -0.020 A 
HETATM    7  C   UNL     1      43.588 -18.302   3.906  1.00  0.00    -0.017 A 
HETATM    8  C   UNL     1      43.652 -16.806   1.975  1.00  0.00     0.010 A 
HETATM    9  C   UNL     1      43.651 -17.933   1.151  1.00  0.00     0.001 A 
HETATM   10  C   UNL     1      43.621 -19.225   1.701  1.00  0.00     0.001 A 
HETATM   11  C   UNL     1      43.590 -19.417   3.086  1.00  0.00     0.013 A 
HETATM   12  C   UNL     1      43.639 -16.420   7.030  1.00  0.00     0.010 A 
HETATM   13  C   UNL     1      43.624 -17.408   8.015  1.00  0.00     0.001 A 
ENDROOT
BRANCH   5  14
HETATM   14  N   UNL     1      42.456 -15.121   4.368  1.00  0.00    -0.346 N 
HETATM   15  C   UNL     1      42.505 -13.839   3.895  1.00  0.00     0.249 C 
HETATM   16  O   UNL     1      43.551 -13.278   3.574  1.00  0.00    -0.271 OA
HETATM   17  H   UNL     1      41.617 -15.489   4.815  1.00  0.00     0.163 HD
BRANCH  15  18
HETATM   18  C   UNL     1      41.190 -13.044   3.944  1.00  0.00     0.279 C 
HETATM   19  N   UNL     1      41.224 -12.020   5.071  1.00  0.00    -0.060 N 
HETATM   20  H   UNL     1      41.978 -12.299   5.719  1.00  0.00     0.278 HD
HETATM   21  H   UNL     1      41.457 -11.080   4.728  1.00  0.00     0.278 HD
HETATM   22  C   UNL     1      39.918 -12.110   5.798  1.00  0.00     0.264 C 
HETATM   23  C   UNL     1      39.563 -13.587   5.636  1.00  0.00     0.146 C 
HETATM   24  C   UNL     1      39.911 -13.852   4.180  1.00  0.00     0.076 C 
BRANCH  23  25
HETATM   25  O   UNL     1      40.433 -14.381   6.445  1.00  0.00    -0.394 OA
HETATM   26  H   UNL     1      40.018 -14.489   7.327  1.00  0.00     0.210 HD
ENDBRANCH  23  25
ENDBRANCH  15  18
ENDBRANCH   5  14
TORSDOF 3
ENDMDL
MODEL 4
REMARK VINA RESULT:      -8.2      1.968      2.747
REMARK  3 active torsions:
REMARK  status: ('A' for Active; 'I' for Inactive)
REMARK    1  A    between atoms: C_5  and  N_6 
REMARK       I    between atoms: N_6  and  C_7 
REMARK    2  A    between atoms: C_7  and  C_8 
REMARK    3  A    between atoms: C_13  and  O_14 
ROOT
HETATM    1  C   UNL     1      43.930 -18.371   8.137  1.00  0.00     0.001 A 
HETATM    2  C   UNL     1      44.084 -19.061   6.930  1.00  0.00     0.013 A 
HETATM    3  C   UNL     1      43.816 -18.390   5.750  1.00  0.00    -0.017 A 
HETATM    4  C   UNL     1      43.392 -17.042   5.769  1.00  0.00    -0.020 A 
HETATM    5  C   UNL     1      43.190 -16.536   4.351  1.00  0.00     0.153 A 
HETATM    6  C   UNL     1      43.549 -17.760   3.526  1.00  0.00    -0.020 A 
HETATM    7  C   UNL     1      43.915 -18.830   4.374  1.00  0.00    -0.017 A 
HETATM    8  C   UNL     1      43.565 -17.893   2.146  1.00  0.00     0.010 A 
HETATM    9  C   UNL     1      43.954 -19.122   1.609  1.00  0.00     0.001 A 
HETATM   10  C   UNL     1      44.320 -20.188   2.448  1.00  0.00     0.001 A 
HETATM   11  C   UNL     1      44.303 -20.047   3.840  1.00  0.00     0.013 A 
HETATM   12  C   UNL     1      43.250 -16.348   6.963  1.00  0.00     0.010 A 
HETATM   13  C   UNL     1      43.518 -17.027   8.153  1.00  0.00     0.001 A 
ENDROOT
BRANCH   5  14
HETATM   14  N   UNL     1      41.809 -16.163   4.125  1.00  0.00    -0.346 N 
HETATM   15  C   UNL     1      41.463 -14.998   3.496  1.00  0.00     0.249 C 
HETATM   16  O   UNL     1      42.281 -14.153   3.143  1.00  0.00    -0.271 OA
HETATM   17  H   UNL     1      41.110 -16.744   4.586  1.00  0.00     0.163 HD
BRANCH  15  18
HETATM   18  C   UNL     1      39.957 -14.697   3.402  1.00  0.00     0.279 C 
HETATM   19  N   UNL     1      39.313 -15.524   2.297  1.00  0.00    -0.060 N 
HETATM   20  H   UNL     1      40.070 -15.857   1.679  1.00  0.00     0.278 HD
HETATM   21  H   UNL     1      38.841 -16.358   2.667  1.00  0.00     0.278 HD
HETATM   22  C   UNL     1      38.428 -14.608   1.510  1.00  0.00     0.264 C 
HETATM   23  C   UNL     1      39.162 -13.274   1.628  1.00  0.00     0.146 C 
HETATM   24  C   UNL     1      39.568 -13.249   3.093  1.00  0.00     0.076 C 
BRANCH  23  25
HETATM   25  O   UNL     1      40.357 -13.313   0.845  1.00  0.00    -0.394 OA
HETATM   26  H   UNL     1      40.637 -12.390   0.666  1.00  0.00     0.210 HD
ENDBRANCH  23  25
ENDBRANCH  15  18
ENDBRANCH   5  14
TORSDOF 3
ENDMDL
MODEL 5
REMARK VINA RESULT:      -8.2      1.605      2.217
REMARK  3 active torsions:
REMARK  status: ('A' for Active; 'I' for Inactive)
REMARK    1  A    between atoms: C_5  and  N_6 
REMARK       I    between atoms: N_6  and  C_7 
REMARK    2  A    between atoms: C_7  and  C_8 
REMARK    3  A    between atoms: C_13  and  O_14 
ROOT
HETATM    1  C   UNL     1      43.958 -16.059   7.215  1.00  0.00     0.001 A 
HETATM    2  C   UNL     1      44.157 -17.326   6.657  1.00  0.00     0.013 A 
HETATM    3  C   UNL     1      43.939 -17.488   5.300  1.00  0.00    -0.017 A 
HETATM    4  C   UNL     1      43.521 -16.398   4.503  1.00  0.00    -0.020 A 
HETATM    5  C   UNL     1      43.376 -16.833   3.054  1.00  0.00     0.153 A 
HETATM    6  C   UNL     1      43.762 -18.300   3.127  1.00  0.00    -0.020 A 
HETATM    7  C   UNL     1      44.089 -18.654   4.455  1.00  0.00    -0.017 A 
HETATM    8  C   UNL     1      43.832 -19.224   2.094  1.00  0.00     0.010 A 
HETATM    9  C   UNL     1      44.236 -20.524   2.402  1.00  0.00     0.001 A 
HETATM   10  C   UNL     1      44.563 -20.880   3.721  1.00  0.00     0.001 A 
HETATM   11  C   UNL     1      44.492 -19.944   4.758  1.00  0.00     0.013 A 
HETATM   12  C   UNL     1      43.335 -15.136   5.050  1.00  0.00     0.010 A 
HETATM   13  C   UNL     1      43.553 -14.974   6.419  1.00  0.00     0.001 A 
ENDROOT
BRANCH   5  14
HETATM   14  N   UNL     1      42.008 -16.692   2.604  1.00  0.00    -0.346 N 
HETATM   15  C   UNL     1      41.600 -15.643   1.827  1.00  0.00     0.249 C 
HETATM   16  O   UNL     1      42.336 -14.710   1.515  1.00  0.00    -0.271 OA
HETATM   17  H   UNL     1      41.335 -17.339   3.015  1.00  0.00     0.163 HD
BRANCH  15  18
HETATM   18  C   UNL     1      40.099 -15.583   1.496  1.00  0.00     0.279 C 
HETATM   19  N   UNL     1      39.879 -14.989   0.111  1.00  0.00    -0.060 N 
HETATM   20  H   UNL     1      40.745 -14.492  -0.153  1.00  0.00     0.278 HD
HETATM   21  H   UNL     1      39.724 -15.716  -0.598  1.00  0.00     0.278 HD
HETATM   22  C   UNL     1      38.773 -13.986   0.224  1.00  0.00     0.264 C 
HETATM   23  C   UNL     1      38.956 -13.468   1.650  1.00  0.00     0.146 C 
HETATM   24  C   UNL     1      39.226 -14.743   2.432  1.00  0.00     0.076 C 
BRANCH  23  25
HETATM   25  O   UNL     1      40.130 -12.656   1.718  1.00  0.00    -0.394 OA
HETATM   26  H   UNL     1      39.912 -11.843   2.222  1.00  0.00     0.210 HD
ENDBRANCH  23  25
ENDBRANCH  15  18
ENDBRANCH   5  14
TORSDOF 3
ENDMDL
MODEL 6
REMARK VINA RESULT:      -7.9      2.293      4.422
REMARK  3 active torsions:
REMARK  status: ('A' for Active; 'I' for Inactive)
REMARK    1  A    between atoms: C_5  and  N_6 
REMARK       I    between atoms: N_6  and  C_7 
REMARK    2  A    between atoms: C_7  and  C_8 
REMARK    3  A    between atoms: C_13  and  O_14 
ROOT
HETATM    1  C   UNL     1      43.923 -19.781   2.155  1.00  0.00     0.001 A 
HETATM    2  C   UNL     1      44.263 -19.646   3.504  1.00  0.00     0.013 A 
HETATM    3  C   UNL     1      43.538 -18.759   4.280  1.00  0.00    -0.017 A 
HETATM    4  C   UNL     1      42.484 -18.005   3.716  1.00  0.00    -0.020 A 
HETATM    5  C   UNL     1      41.839 -17.130   4.778  1.00  0.00     0.153 A 
HETATM    6  C   UNL     1      42.656 -17.478   6.011  1.00  0.00    -0.020 A 
HETATM    7  C   UNL     1      43.642 -18.437   5.688  1.00  0.00    -0.017 A 
HETATM    8  C   UNL     1      42.513 -16.994   7.302  1.00  0.00     0.010 A 
HETATM    9  C   UNL     1      43.376 -17.481   8.285  1.00  0.00     0.001 A 
HETATM   10  C   UNL     1      44.357 -18.436   7.970  1.00  0.00     0.001 A 
HETATM   11  C   UNL     1      44.495 -18.921   6.665  1.00  0.00     0.013 A 
HETATM   12  C   UNL     1      42.133 -18.145   2.380  1.00  0.00     0.010 A 
HETATM   13  C   UNL     1      42.867 -19.038   1.598  1.00  0.00     0.001 A 
ENDROOT
BRANCH   5  14
HETATM   14  N   UNL     1      41.987 -15.727   4.454  1.00  0.00    -0.346 N 
HETATM   15  C   UNL     1      41.057 -14.793   4.818  1.00  0.00     0.249 C 
HETATM   16  O   UNL     1      40.000 -15.076   5.378  1.00  0.00    -0.271 OA
HETATM   17  H   UNL     1      42.749 -15.495   3.818  1.00  0.00     0.163 HD
BRANCH  15  18
HETATM   18  C   UNL     1      41.308 -13.355   4.332  1.00  0.00     0.279 C 
HETATM   19  N   UNL     1      40.249 -12.938   3.321  1.00  0.00    -0.060 N 
HETATM   20  H   UNL     1      39.798 -13.799   2.972  1.00  0.00     0.278 HD
HETATM   21  H   UNL     1      39.511 -12.368   3.752  1.00  0.00     0.278 HD
HETATM   22  C   UNL     1      40.956 -12.277   2.179  1.00  0.00     0.264 C 
HETATM   23  C   UNL     1      42.293 -13.015   2.160  1.00  0.00     0.146 C 
HETATM   24  C   UNL     1      42.647 -13.093   3.636  1.00  0.00     0.076 C 
BRANCH  23  25
HETATM   25  O   UNL     1      42.099 -14.349   1.686  1.00  0.00    -0.394 OA
HETATM   26  H   UNL     1      42.841 -14.572   1.085  1.00  0.00     0.210 HD
ENDBRANCH  23  25
ENDBRANCH  15  18
ENDBRANCH   5  14
TORSDOF 3
ENDMDL
MODEL 7
REMARK VINA RESULT:      -7.8      2.659      4.114
REMARK  3 active torsions:
REMARK  status: ('A' for Active; 'I' for Inactive)
REMARK    1  A    between atoms: C_5  and  N_6 
REMARK       I    between atoms: N_6  and  C_7 
REMARK    2  A    between atoms: C_7  and  C_8 
REMARK    3  A    between atoms: C_13  and  O_14 
ROOT
HETATM    1  C   UNL     1      40.529 -15.535   5.869  1.00  0.00     0.001 A 
HETATM    2  C   UNL     1      41.256 -16.645   5.428  1.00  0.00     0.013 A 
HETATM    3  C   UNL     1      41.838 -16.594   4.174  1.00  0.00    -0.017 A 
HETATM    4  C   UNL     1      41.694 -15.447   3.360  1.00  0.00    -0.020 A 
HETATM    5  C   UNL     1      42.443 -15.636   2.051  1.00  0.00     0.153 A 
HETATM    6  C   UNL     1      43.027 -17.028   2.222  1.00  0.00    -0.020 A 
HETATM    7  C   UNL     1      42.658 -17.563   3.477  1.00  0.00    -0.017 A 
HETATM    8  C   UNL     1      43.831 -17.738   1.341  1.00  0.00     0.010 A 
HETATM    9  C   UNL     1      44.269 -19.005   1.729  1.00  0.00     0.001 A 
HETATM   10  C   UNL     1      43.905 -19.540   2.976  1.00  0.00     0.001 A 
HETATM   11  C   UNL     1      43.096 -18.819   3.860  1.00  0.00     0.013 A 
HETATM   12  C   UNL     1      40.985 -14.338   3.798  1.00  0.00     0.010 A 
HETATM   13  C   UNL     1      40.396 -14.392   5.063  1.00  0.00     0.001 A 
ENDROOT
BRANCH   5  14
HETATM   14  N   UNL     1      41.535 -15.605   0.924  1.00  0.00    -0.346 N 
HETATM   15  C   UNL     1      41.456 -14.530   0.082  1.00  0.00     0.249 C 
HETATM   16  O   UNL     1      42.088 -13.491   0.254  1.00  0.00    -0.271 OA
HETATM   17  H   UNL     1      40.857 -16.365   0.877  1.00  0.00     0.163 HD
BRANCH  15  18
HETATM   18  C   UNL     1      40.387 -14.606  -1.021  1.00  0.00     0.279 C 
HETATM   19  N   UNL     1      40.522 -15.902  -1.810  1.00  0.00    -0.060 N 
HETATM   20  H   UNL     1      41.466 -16.278  -1.628  1.00  0.00     0.278 HD
HETATM   21  H   UNL     1      39.851 -16.614  -1.495  1.00  0.00     0.278 HD
HETATM   22  C   UNL     1      40.422 -15.554  -3.263  1.00  0.00     0.264 C 
HETATM   23  C   UNL     1      41.028 -14.153  -3.299  1.00  0.00     0.146 C 
HETATM   24  C   UNL     1      40.412 -13.496  -2.075  1.00  0.00     0.076 C 
BRANCH  23  25
HETATM   25  O   UNL     1      42.439 -14.235  -3.087  1.00  0.00    -0.394 OA
HETATM   26  H   UNL     1      42.875 -14.336  -3.960  1.00  0.00     0.210 HD
ENDBRANCH  23  25
ENDBRANCH  15  18
ENDBRANCH   5  14
TORSDOF 3
ENDMDL
MODEL 8
REMARK VINA RESULT:      -7.8      3.325      5.202
REMARK  3 active torsions:
REMARK  status: ('A' for Active; 'I' for Inactive)
REMARK    1  A    between atoms: C_5  and  N_6 
REMARK       I    between atoms: N_6  and  C_7 
REMARK    2  A    between atoms: C_7  and  C_8 
REMARK    3  A    between atoms: C_13  and  O_14 
ROOT
HETATM    1  C   UNL     1      43.561 -18.774   1.619  1.00  0.00     0.001 A 
HETATM    2  C   UNL     1      44.010 -18.962   2.930  1.00  0.00     0.013 A 
HETATM    3  C   UNL     1      43.389 -18.256   3.946  1.00  0.00    -0.017 A 
HETATM    4  C   UNL     1      42.331 -17.364   3.659  1.00  0.00    -0.020 A 
HETATM    5  C   UNL     1      41.811 -16.738   4.943  1.00  0.00     0.153 A 
HETATM    6  C   UNL     1      42.704 -17.382   5.990  1.00  0.00    -0.020 A 
HETATM    7  C   UNL     1      43.616 -18.269   5.376  1.00  0.00    -0.017 A 
HETATM    8  C   UNL     1      42.683 -17.202   7.365  1.00  0.00     0.010 A 
HETATM    9  C   UNL     1      43.596 -17.926   8.134  1.00  0.00     0.001 A 
HETATM   10  C   UNL     1      44.504 -18.810   7.529  1.00  0.00     0.001 A 
HETATM   11  C   UNL     1      44.519 -18.987   6.141  1.00  0.00     0.013 A 
HETATM   12  C   UNL     1      41.872 -17.184   2.361  1.00  0.00     0.010 A 
HETATM   13  C   UNL     1      42.501 -17.895   1.338  1.00  0.00     0.001 A 
ENDROOT
BRANCH   5  14
HETATM   14  N   UNL     1      42.000 -15.302   4.933  1.00  0.00    -0.346 N 
HETATM   15  C   UNL     1      41.080 -14.443   5.468  1.00  0.00     0.249 C 
HETATM   16  O   UNL     1      40.002 -14.811   5.928  1.00  0.00    -0.271 OA
HETATM   17  H   UNL     1      42.784 -14.960   4.379  1.00  0.00     0.163 HD
BRANCH  15  18
HETATM   18  C   UNL     1      41.377 -12.942   5.310  1.00  0.00     0.279 C 
HETATM   19  N   UNL     1      41.908 -12.361   6.614  1.00  0.00    -0.060 N 
HETATM   20  H   UNL     1      41.661 -13.020   7.370  1.00  0.00     0.278 HD
HETATM   21  H   UNL     1      42.932 -12.281   6.609  1.00  0.00     0.278 HD
HETATM   22  C   UNL     1      41.186 -11.071   6.855  1.00  0.00     0.264 C 
HETATM   23  C   UNL     1      39.822 -11.344   6.224  1.00  0.00     0.146 C 
HETATM   24  C   UNL     1      40.194 -12.048   4.928  1.00  0.00     0.076 C 
BRANCH  23  25
HETATM   25  O   UNL     1      39.096 -12.272   7.032  1.00  0.00    -0.394 OA
HETATM   26  H   UNL     1      38.532 -12.816   6.443  1.00  0.00     0.210 HD
ENDBRANCH  23  25
ENDBRANCH  15  18
ENDBRANCH   5  14
TORSDOF 3
ENDMDL
MODEL 9
REMARK VINA RESULT:      -7.5      2.265      4.869
REMARK  3 active torsions:
REMARK  status: ('A' for Active; 'I' for Inactive)
REMARK    1  A    between atoms: C_5  and  N_6 
REMARK       I    between atoms: N_6  and  C_7 
REMARK    2  A    between atoms: C_7  and  C_8 
REMARK    3  A    between atoms: C_13  and  O_14 
ROOT
HETATM    1  C   UNL     1      44.359 -19.952   3.135  1.00  0.00     0.001 A 
HETATM    2  C   UNL     1      44.308 -18.887   4.039  1.00  0.00     0.013 A 
HETATM    3  C   UNL     1      43.412 -17.860   3.797  1.00  0.00    -0.017 A 
HETATM    4  C   UNL     1      42.573 -17.891   2.659  1.00  0.00    -0.020 A 
HETATM    5  C   UNL     1      41.673 -16.667   2.639  1.00  0.00     0.153 A 
HETATM    6  C   UNL     1      42.103 -15.939   3.902  1.00  0.00    -0.020 A 
HETATM    7  C   UNL     1      43.122 -16.665   4.560  1.00  0.00    -0.017 A 
HETATM    8  C   UNL     1      41.612 -14.750   4.419  1.00  0.00     0.010 A 
HETATM    9  C   UNL     1      42.155 -14.282   5.617  1.00  0.00     0.001 A 
HETATM   10  C   UNL     1      43.166 -15.000   6.276  1.00  0.00     0.001 A 
HETATM   11  C   UNL     1      43.656 -16.200   5.750  1.00  0.00     0.013 A 
HETATM   12  C   UNL     1      42.610 -18.952   1.766  1.00  0.00     0.010 A 
HETATM   13  C   UNL     1      43.517 -19.985   2.010  1.00  0.00     0.001 A 
ENDROOT
BRANCH   5  14
HETATM   14  N   UNL     1      41.933 -15.850   1.472  1.00  0.00    -0.346 N 
HETATM   15  C   UNL     1      40.959 -15.095   0.880  1.00  0.00     0.249 C 
HETATM   16  O   UNL     1      39.785 -15.105   1.241  1.00  0.00    -0.271 OA
HETATM   17  H   UNL     1      42.844 -15.980   1.033  1.00  0.00     0.163 HD
BRANCH  15  18
HETATM   18  C   UNL     1      41.364 -14.344  -0.400  1.00  0.00     0.279 C 
HETATM   19  N   UNL     1      40.727 -12.961  -0.436  1.00  0.00    -0.060 N 
HETATM   20  H   UNL     1      39.945 -12.964   0.239  1.00  0.00     0.278 HD
HETATM   21  H   UNL     1      41.381 -12.230  -0.131  1.00  0.00     0.278 HD
HETATM   22  C   UNL     1      40.167 -12.761  -1.810  1.00  0.00     0.264 C 
HETATM   23  C   UNL     1      39.778 -14.184  -2.208  1.00  0.00     0.146 C 
HETATM   24  C   UNL     1      40.971 -14.997  -1.728  1.00  0.00     0.076 C 
BRANCH  23  25
HETATM   25  O   UNL     1      38.636 -14.598  -1.455  1.00  0.00    -0.394 OA
HETATM   26  H   UNL     1      38.224 -15.358  -1.917  1.00  0.00     0.210 HD
ENDBRANCH  23  25
ENDBRANCH  15  18
ENDBRANCH   5  14
TORSDOF 3
ENDMDL
MODEL 10
REMARK VINA RESULT:      -7.4      2.605      3.618
REMARK  3 active torsions:
REMARK  status: ('A' for Active; 'I' for Inactive)
REMARK    1  A    between atoms: C_5  and  N_6 
REMARK       I    between atoms: N_6  and  C_7 
REMARK    2  A    between atoms: C_7  and  C_8 
REMARK    3  A    between atoms: C_13  and  O_14 
ROOT
HETATM    1  C   UNL     1      43.756 -17.512   7.641  1.00  0.00     0.001 A 
HETATM    2  C   UNL     1      43.772 -18.239   6.447  1.00  0.00     0.013 A 
HETATM    3  C   UNL     1      43.634 -17.549   5.255  1.00  0.00    -0.017 A 
HETATM    4  C   UNL     1      43.476 -16.144   5.250  1.00  0.00    -0.020 A 
HETATM    5  C   UNL     1      43.370 -15.634   3.823  1.00  0.00     0.153 A 
HETATM    6  C   UNL     1      43.486 -16.918   3.020  1.00  0.00    -0.020 A 
HETATM    7  C   UNL     1      43.643 -18.024   3.887  1.00  0.00    -0.017 A 
HETATM    8  C   UNL     1      43.473 -17.076   1.642  1.00  0.00     0.010 A 
HETATM    9  C   UNL     1      43.618 -18.365   1.128  1.00  0.00     0.001 A 
HETATM   10  C   UNL     1      43.776 -19.467   1.985  1.00  0.00     0.001 A 
HETATM   11  C   UNL     1      43.790 -19.301   3.374  1.00  0.00     0.013 A 
HETATM   12  C   UNL     1      43.473 -15.416   6.432  1.00  0.00     0.010 A 
HETATM   13  C   UNL     1      43.609 -16.114   7.634  1.00  0.00     0.001 A 
ENDROOT
BRANCH   5  14
HETATM   14  N   UNL     1      42.086 -15.007   3.590  1.00  0.00    -0.346 N 
HETATM   15  C   UNL     1      41.970 -13.791   2.975  1.00  0.00     0.249 C 
HETATM   16  O   UNL     1      42.936 -13.109   2.642  1.00  0.00    -0.271 OA
HETATM   17  H   UNL     1      41.286 -15.454   4.036  1.00  0.00     0.163 HD
BRANCH  15  18
HETATM   18  C   UNL     1      40.548 -13.214   2.871  1.00  0.00     0.279 C 
HETATM   19  N   UNL     1      40.446 -12.247   1.698  1.00  0.00    -0.060 N 
HETATM   20  H   UNL     1      41.407 -11.974   1.439  1.00  0.00     0.278 HD
HETATM   21  H   UNL     1      40.028 -12.691   0.871  1.00  0.00     0.278 HD
HETATM   22  C   UNL     1      39.722 -11.030   2.183  1.00  0.00     0.264 C 
HETATM   23  C   UNL     1      40.142 -10.971   3.651  1.00  0.00     0.146 C 
HETATM   24  C   UNL     1      40.040 -12.425   4.081  1.00  0.00     0.076 C 
BRANCH  23  25
HETATM   25  O   UNL     1      41.513 -10.582   3.742  1.00  0.00    -0.394 OA
HETATM   26  H   UNL     1      41.676 -10.240   4.646  1.00  0.00     0.210 HD
ENDBRANCH  23  25
ENDBRANCH  15  18
ENDBRANCH   5  14
TORSDOF 3
ENDMDL
