MODEL 1
REMARK VINA RESULT:      -9.5      0.000      0.000
REMARK  9 active torsions:
REMARK  status: ('A' for Active; 'I' for Inactive)
REMARK    1  A    between atoms: C_2  and  N_3 
REMARK       I    between atoms: N_3  and  C_4 
REMARK    2  A    between atoms: C_4  and  C_5 
REMARK    3  A    between atoms: N_6  and  C_8 
REMARK    4  A    between atoms: C_8  and  C_9 
REMARK    5  A    between atoms: C_12  and  O_13 
REMARK    6  A    between atoms: O_13  and  C_14 
REMARK    7  A    between atoms: C_14  and  C_15 
REMARK    8  A    between atoms: C_24  and  S_25 
REMARK    9  A    between atoms: S_25  and  C_26 
ROOT
HETATM    1  C   UNL     1      41.554 -11.848   5.696  1.00  0.00     0.280 C 
HETATM    2  N   UNL     1      40.180 -12.459   5.377  1.00  0.00    -0.053 N 
HETATM    3  H   UNL     1      40.101 -12.553   4.355  1.00  0.00     0.281 HD
HETATM    4  C   UNL     1      39.222 -11.404   5.890  1.00  0.00     0.252 C 
HETATM    5  C   UNL     1      39.899 -10.821   7.143  1.00  0.00     0.083 C 
HETATM    6  C   UNL     1      41.353 -11.310   7.105  1.00  0.00     0.060 C 
ENDROOT
BRANCH   2   7
HETATM    7  C   UNL     1      39.933 -13.850   5.933  1.00  0.00     0.274 C 
BRANCH   7   8
HETATM    8  C   UNL     1      40.415 -14.947   5.021  1.00  0.00    -0.032 A 
HETATM    9  C   UNL     1      40.273 -14.836   3.628  1.00  0.00     0.011 A 
HETATM   10  C   UNL     1      40.714 -15.861   2.782  1.00  0.00     0.037 A 
HETATM   11  C   UNL     1      41.297 -17.005   3.322  1.00  0.00     0.069 A 
HETATM   12  C   UNL     1      41.416 -17.134   4.705  1.00  0.00     0.037 A 
HETATM   13  C   UNL     1      40.994 -16.109   5.551  1.00  0.00     0.011 A 
BRANCH  11  14
HETATM   14  O   UNL     1      41.748 -18.074   2.604  1.00  0.00    -0.347 OA
BRANCH  14  15
HETATM   15  C   UNL     1      43.141 -18.076   2.289  1.00  0.00     0.214 C 
BRANCH  15  16
HETATM   16  C   UNL     1      43.682 -19.434   2.659  1.00  0.00    -0.034 A 
HETATM   17  C   UNL     1      43.527 -20.521   1.788  1.00  0.00     0.009 A 
HETATM   18  C   UNL     1      43.993 -21.788   2.145  1.00  0.00     0.001 A 
HETATM   19  C   UNL     1      44.614 -21.981   3.377  1.00  0.00     0.000 A 
HETATM   20  C   UNL     1      44.767 -20.909   4.255  1.00  0.00     0.001 A 
HETATM   21  C   UNL     1      44.300 -19.642   3.900  1.00  0.00     0.009 A 
ENDBRANCH  15  16
ENDBRANCH  14  15
ENDBRANCH  11  14
ENDBRANCH   7   8
ENDBRANCH   2   7
BRANCH   1  22
HETATM   22  C   UNL     1      42.738 -12.800   5.467  1.00  0.00     0.249 C 
HETATM   23  N   UNL     1      43.342 -13.317   6.589  1.00  0.00    -0.355 N 
HETATM   24  H   UNL     1      43.164 -12.913   7.500  1.00  0.00     0.162 HD
HETATM   25  O   UNL     1      43.108 -13.052   4.321  1.00  0.00    -0.271 OA
BRANCH  23  26
HETATM   26  C   UNL     1      44.514 -14.188   6.499  1.00  0.00     0.076 C 
HETATM   27  C   UNL     1      44.190 -15.554   7.095  1.00  0.00     0.032 C 
HETATM   28  C   UNL     1      45.707 -13.553   7.209  1.00  0.00     0.032 C 
ENDBRANCH  23  26
ENDBRANCH   1  22
BRANCH   5  29
HETATM   29  S   UNL     1      39.118 -11.341   8.713  1.00  0.00    -0.085 SA
BRANCH  29  30
HETATM   30  C   UNL     1      40.242 -10.673   9.835  1.00  0.00     0.168 A 
HETATM   31  N   UNL     1      40.340  -9.410  10.164  1.00  0.00    -0.223 NA
HETATM   32  C   UNL     1      41.354  -9.379  11.097  1.00  0.00     0.086 A 
HETATM   33  C   UNL     1      41.861 -10.657  11.327  1.00  0.00     0.063 A 
HETATM   34  C   UNL     1      41.898  -8.293  11.797  1.00  0.00     0.034 A 
HETATM   35  N   UNL     1      41.126 -11.468  10.501  1.00  0.00    -0.333 N 
HETATM   36  C   UNL     1      42.894 -10.923  12.228  1.00  0.00     0.032 A 
HETATM   37  H   UNL     1      41.222 -12.467  10.400  1.00  0.00     0.168 HD
HETATM   38  C   UNL     1      43.423  -9.825  12.916  1.00  0.00     0.002 A 
HETATM   39  C   UNL     1      42.936  -8.532  12.706  1.00  0.00     0.002 A 
ENDBRANCH  29  30
ENDBRANCH   5  29
TORSDOF 9
ENDMDL
MODEL 2
REMARK VINA RESULT:      -9.4      2.242      6.519
REMARK  9 active torsions:
REMARK  status: ('A' for Active; 'I' for Inactive)
REMARK    1  A    between atoms: C_2  and  N_3 
REMARK       I    between atoms: N_3  and  C_4 
REMARK    2  A    between atoms: C_4  and  C_5 
REMARK    3  A    between atoms: N_6  and  C_8 
REMARK    4  A    between atoms: C_8  and  C_9 
REMARK    5  A    between atoms: C_12  and  O_13 
REMARK    6  A    between atoms: O_13  and  C_14 
REMARK    7  A    between atoms: C_14  and  C_15 
REMARK    8  A    between atoms: C_24  and  S_25 
REMARK    9  A    between atoms: S_25  and  C_26 
ROOT
HETATM    1  C   UNL     1      41.328 -11.000   5.952  1.00  0.00     0.280 C 
HETATM    2  N   UNL     1      41.681 -12.406   5.441  1.00  0.00    -0.053 N 
HETATM    3  H   UNL     1      42.643 -12.622   5.736  1.00  0.00     0.281 HD
HETATM    4  C   UNL     1      41.610 -12.238   3.937  1.00  0.00     0.252 C 
HETATM    5  C   UNL     1      40.466 -11.238   3.697  1.00  0.00     0.083 C 
HETATM    6  C   UNL     1      40.155 -10.614   5.065  1.00  0.00     0.060 C 
ENDROOT
BRANCH   2   7
HETATM    7  C   UNL     1      40.826 -13.537   5.982  1.00  0.00     0.274 C 
BRANCH   7   8
HETATM    8  C   UNL     1      41.513 -14.876   5.931  1.00  0.00    -0.032 A 
HETATM    9  C   UNL     1      42.913 -14.962   5.867  1.00  0.00     0.011 A 
HETATM   10  C   UNL     1      43.549 -16.209   5.811  1.00  0.00     0.037 A 
HETATM   11  C   UNL     1      42.791 -17.377   5.815  1.00  0.00     0.069 A 
HETATM   12  C   UNL     1      41.400 -17.298   5.850  1.00  0.00     0.037 A 
HETATM   13  C   UNL     1      40.762 -16.061   5.923  1.00  0.00     0.011 A 
BRANCH  11  14
HETATM   14  O   UNL     1      43.294 -18.643   5.746  1.00  0.00    -0.347 OA
BRANCH  14  15
HETATM   15  C   UNL     1      44.545 -18.786   5.072  1.00  0.00     0.214 C 
BRANCH  15  16
HETATM   16  C   UNL     1      44.350 -19.804   3.977  1.00  0.00    -0.034 A 
HETATM   17  C   UNL     1      43.697 -19.450   2.787  1.00  0.00     0.009 A 
HETATM   18  C   UNL     1      43.481 -20.401   1.787  1.00  0.00     0.001 A 
HETATM   19  C   UNL     1      43.911 -21.714   1.969  1.00  0.00     0.000 A 
HETATM   20  C   UNL     1      44.554 -22.079   3.150  1.00  0.00     0.001 A 
HETATM   21  C   UNL     1      44.770 -21.130   4.151  1.00  0.00     0.009 A 
ENDBRANCH  15  16
ENDBRANCH  14  15
ENDBRANCH  11  14
ENDBRANCH   7   8
ENDBRANCH   2   7
BRANCH   1  22
HETATM   22  C   UNL     1      41.121 -10.915   7.472  1.00  0.00     0.249 C 
HETATM   23  N   UNL     1      42.254 -10.880   8.250  1.00  0.00    -0.355 N 
HETATM   24  H   UNL     1      43.154 -11.129   7.857  1.00  0.00     0.162 HD
HETATM   25  O   UNL     1      39.981 -10.897   7.935  1.00  0.00    -0.271 OA
BRANCH  23  26
HETATM   26  C   UNL     1      42.184 -10.858   9.711  1.00  0.00     0.076 C 
HETATM   27  C   UNL     1      41.872  -9.445  10.193  1.00  0.00     0.032 C 
HETATM   28  C   UNL     1      43.491 -11.363  10.317  1.00  0.00     0.032 C 
ENDBRANCH  23  26
ENDBRANCH   1  22
BRANCH   5  29
HETATM   29  S   UNL     1      38.951 -12.003   3.013  1.00  0.00    -0.085 SA
BRANCH  29  30
HETATM   30  C   UNL     1      39.633 -13.411   2.291  1.00  0.00     0.168 A 
HETATM   31  N   UNL     1      40.360 -13.440   1.203  1.00  0.00    -0.223 NA
HETATM   32  C   UNL     1      40.684 -14.770   1.046  1.00  0.00     0.086 A 
HETATM   33  C   UNL     1      40.138 -15.542   2.071  1.00  0.00     0.063 A 
HETATM   34  C   UNL     1      41.446 -15.398   0.051  1.00  0.00     0.034 A 
HETATM   35  N   UNL     1      39.467 -14.640   2.855  1.00  0.00    -0.333 N 
HETATM   36  C   UNL     1      40.308 -16.924   2.165  1.00  0.00     0.032 A 
HETATM   37  H   UNL     1      38.945 -14.844   3.694  1.00  0.00     0.168 HD
HETATM   38  C   UNL     1      41.071 -17.532   1.161  1.00  0.00     0.002 A 
HETATM   39  C   UNL     1      41.631 -16.784   0.121  1.00  0.00     0.002 A 
ENDBRANCH  29  30
ENDBRANCH   5  29
TORSDOF 9
ENDMDL
MODEL 3
REMARK VINA RESULT:      -9.2      4.403      6.833
REMARK  9 active torsions:
REMARK  status: ('A' for Active; 'I' for Inactive)
REMARK    1  A    between atoms: C_2  and  N_3 
REMARK       I    between atoms: N_3  and  C_4 
REMARK    2  A    between atoms: C_4  and  C_5 
REMARK    3  A    between atoms: N_6  and  C_8 
REMARK    4  A    between atoms: C_8  and  C_9 
REMARK    5  A    between atoms: C_12  and  O_13 
REMARK    6  A    between atoms: O_13  and  C_14 
REMARK    7  A    between atoms: C_14  and  C_15 
REMARK    8  A    between atoms: C_24  and  S_25 
REMARK    9  A    between atoms: S_25  and  C_26 
ROOT
HETATM    1  C   UNL     1      38.182 -13.873   0.098  1.00  0.00     0.280 C 
HETATM    2  N   UNL     1      39.225 -14.853   0.659  1.00  0.00    -0.053 N 
HETATM    3  H   UNL     1      38.963 -15.804   0.366  1.00  0.00     0.281 HD
HETATM    4  C   UNL     1      39.058 -14.692   2.156  1.00  0.00     0.252 C 
HETATM    5  C   UNL     1      38.724 -13.205   2.366  1.00  0.00     0.083 C 
HETATM    6  C   UNL     1      38.377 -12.649   0.979  1.00  0.00     0.060 C 
ENDROOT
BRANCH   2   7
HETATM    7  C   UNL     1      40.647 -14.654   0.166  1.00  0.00     0.274 C 
BRANCH   7   8
HETATM    8  C   UNL     1      41.635 -15.589   0.813  1.00  0.00    -0.032 A 
HETATM    9  C   UNL     1      41.543 -16.977   0.618  1.00  0.00     0.011 A 
HETATM   10  C   UNL     1      42.457 -17.845   1.227  1.00  0.00     0.037 A 
HETATM   11  C   UNL     1      43.468 -17.334   2.036  1.00  0.00     0.069 A 
HETATM   12  C   UNL     1      43.549 -15.960   2.257  1.00  0.00     0.037 A 
HETATM   13  C   UNL     1      42.651 -15.089   1.639  1.00  0.00     0.011 A 
BRANCH  11  14
HETATM   14  O   UNL     1      44.403 -18.077   2.695  1.00  0.00    -0.347 OA
BRANCH  14  15
HETATM   15  C   UNL     1      44.002 -18.618   3.955  1.00  0.00     0.214 C 
BRANCH  15  16
HETATM   16  C   UNL     1      44.318 -20.092   3.931  1.00  0.00    -0.034 A 
HETATM   17  C   UNL     1      44.206 -20.823   2.739  1.00  0.00     0.009 A 
HETATM   18  C   UNL     1      44.460 -22.195   2.723  1.00  0.00     0.001 A 
HETATM   19  C   UNL     1      44.825 -22.851   3.897  1.00  0.00     0.000 A 
HETATM   20  C   UNL     1      44.932 -22.137   5.089  1.00  0.00     0.001 A 
HETATM   21  C   UNL     1      44.677 -20.765   5.108  1.00  0.00     0.009 A 
ENDBRANCH  15  16
ENDBRANCH  14  15
ENDBRANCH  11  14
ENDBRANCH   7   8
ENDBRANCH   2   7
BRANCH   1  22
HETATM   22  C   UNL     1      38.262 -13.668  -1.423  1.00  0.00     0.249 C 
HETATM   23  N   UNL     1      37.957 -14.754  -2.210  1.00  0.00    -0.355 N 
HETATM   24  H   UNL     1      37.911 -15.683  -1.808  1.00  0.00     0.162 HD
HETATM   25  O   UNL     1      38.603 -12.577  -1.877  1.00  0.00    -0.271 OA
BRANCH  23  26
HETATM   26  C   UNL     1      38.054 -14.698  -3.668  1.00  0.00     0.076 C 
HETATM   27  C   UNL     1      36.665 -14.519  -4.273  1.00  0.00     0.032 C 
HETATM   28  C   UNL     1      38.725 -15.959  -4.209  1.00  0.00     0.032 C 
ENDBRANCH  23  26
ENDBRANCH   1  22
BRANCH   5  29
HETATM   29  S   UNL     1      40.098 -12.237   3.089  1.00  0.00    -0.085 SA
BRANCH  29  30
HETATM   30  C   UNL     1      40.758 -13.416   4.158  1.00  0.00     0.168 A 
HETATM   31  N   UNL     1      40.109 -14.426   4.681  1.00  0.00    -0.223 NA
HETATM   32  C   UNL     1      41.057 -15.084   5.435  1.00  0.00     0.086 A 
HETATM   33  C   UNL     1      42.294 -14.448   5.350  1.00  0.00     0.063 A 
HETATM   34  C   UNL     1      40.935 -16.238   6.222  1.00  0.00     0.034 A 
HETATM   35  N   UNL     1      42.070 -13.379   4.522  1.00  0.00    -0.333 N 
HETATM   36  C   UNL     1      43.437 -14.900   6.012  1.00  0.00     0.032 A 
HETATM   37  H   UNL     1      42.748 -12.688   4.236  1.00  0.00     0.168 HD
HETATM   38  C   UNL     1      43.294 -16.053   6.793  1.00  0.00     0.002 A 
HETATM   39  C   UNL     1      42.066 -16.712   6.898  1.00  0.00     0.002 A 
ENDBRANCH  29  30
ENDBRANCH   5  29
TORSDOF 9
ENDMDL
MODEL 4
REMARK VINA RESULT:      -9.1      1.816      3.439
REMARK  9 active torsions:
REMARK  status: ('A' for Active; 'I' for Inactive)
REMARK    1  A    between atoms: C_2  and  N_3 
REMARK       I    between atoms: N_3  and  C_4 
REMARK    2  A    between atoms: C_4  and  C_5 
REMARK    3  A    between atoms: N_6  and  C_8 
REMARK    4  A    between atoms: C_8  and  C_9 
REMARK    5  A    between atoms: C_12  and  O_13 
REMARK    6  A    between atoms: O_13  and  C_14 
REMARK    7  A    between atoms: C_14  and  C_15 
REMARK    8  A    between atoms: C_24  and  S_25 
REMARK    9  A    between atoms: S_25  and  C_26 
ROOT
HETATM    1  C   UNL     1      39.356 -11.824   4.705  1.00  0.00     0.280 C 
HETATM    2  N   UNL     1      40.139 -12.543   5.815  1.00  0.00    -0.053 N 
HETATM    3  H   UNL     1      39.705 -13.463   5.969  1.00  0.00     0.281 HD
HETATM    4  C   UNL     1      39.915 -11.643   7.013  1.00  0.00     0.252 C 
HETATM    5  C   UNL     1      39.881 -10.215   6.442  1.00  0.00     0.083 C 
HETATM    6  C   UNL     1      39.742 -10.369   4.921  1.00  0.00     0.060 C 
ENDROOT
BRANCH   2   7
HETATM    7  C   UNL     1      41.599 -12.827   5.513  1.00  0.00     0.274 C 
BRANCH   7   8
HETATM    8  C   UNL     1      41.933 -14.295   5.530  1.00  0.00    -0.032 A 
HETATM    9  C   UNL     1      40.925 -15.258   5.705  1.00  0.00     0.011 A 
HETATM   10  C   UNL     1      41.239 -16.623   5.729  1.00  0.00     0.037 A 
HETATM   11  C   UNL     1      42.562 -17.034   5.581  1.00  0.00     0.069 A 
HETATM   12  C   UNL     1      43.570 -16.083   5.435  1.00  0.00     0.037 A 
HETATM   13  C   UNL     1      43.261 -14.724   5.393  1.00  0.00     0.011 A 
BRANCH  11  14
HETATM   14  O   UNL     1      42.992 -18.329   5.604  1.00  0.00    -0.347 OA
BRANCH  14  15
HETATM   15  C   UNL     1      44.286 -18.571   5.051  1.00  0.00     0.214 C 
BRANCH  15  16
HETATM   16  C   UNL     1      44.122 -19.599   3.961  1.00  0.00    -0.034 A 
HETATM   17  C   UNL     1      44.739 -20.854   4.070  1.00  0.00     0.009 A 
HETATM   18  C   UNL     1      44.620 -21.794   3.045  1.00  0.00     0.001 A 
HETATM   19  C   UNL     1      43.889 -21.487   1.899  1.00  0.00     0.000 A 
HETATM   20  C   UNL     1      43.278 -20.241   1.775  1.00  0.00     0.001 A 
HETATM   21  C   UNL     1      43.397 -19.299   2.799  1.00  0.00     0.009 A 
ENDBRANCH  15  16
ENDBRANCH  14  15
ENDBRANCH  11  14
ENDBRANCH   7   8
ENDBRANCH   2   7
BRANCH   1  22
HETATM   22  C   UNL     1      39.571 -12.410   3.300  1.00  0.00     0.249 C 
HETATM   23  N   UNL     1      39.064 -13.668   3.071  1.00  0.00    -0.355 N 
HETATM   24  H   UNL     1      38.777 -14.255   3.845  1.00  0.00     0.162 HD
HETATM   25  O   UNL     1      40.185 -11.762   2.454  1.00  0.00    -0.271 OA
BRANCH  23  26
HETATM   26  C   UNL     1      39.257 -14.353   1.793  1.00  0.00     0.076 C 
HETATM   27  C   UNL     1      37.937 -14.406   1.030  1.00  0.00     0.032 C 
HETATM   28  C   UNL     1      39.813 -15.757   2.017  1.00  0.00     0.032 C 
ENDBRANCH  23  26
ENDBRANCH   1  22
BRANCH   5  29
HETATM   29  S   UNL     1      41.377  -9.233   6.824  1.00  0.00    -0.085 SA
BRANCH  29  30
HETATM   30  C   UNL     1      41.776  -9.894   8.364  1.00  0.00     0.168 A 
HETATM   31  N   UNL     1      42.863 -10.565   8.653  1.00  0.00    -0.223 NA
HETATM   32  C   UNL     1      42.736 -10.856   9.994  1.00  0.00     0.086 A 
HETATM   33  C   UNL     1      41.549 -10.338  10.508  1.00  0.00     0.063 A 
HETATM   34  C   UNL     1      43.599 -11.560  10.846  1.00  0.00     0.034 A 
HETATM   35  N   UNL     1      40.953  -9.725   9.436  1.00  0.00    -0.333 N 
HETATM   36  C   UNL     1      41.163 -10.481  11.842  1.00  0.00     0.032 A 
HETATM   37  H   UNL     1      40.068  -9.241   9.437  1.00  0.00     0.168 HD
HETATM   38  C   UNL     1      42.038 -11.187  12.675  1.00  0.00     0.002 A 
HETATM   39  C   UNL     1      43.235 -11.718  12.188  1.00  0.00     0.002 A 
ENDBRANCH  29  30
ENDBRANCH   5  29
TORSDOF 9
ENDMDL
MODEL 5
REMARK VINA RESULT:      -9.0      3.219     10.087
REMARK  9 active torsions:
REMARK  status: ('A' for Active; 'I' for Inactive)
REMARK    1  A    between atoms: C_2  and  N_3 
REMARK       I    between atoms: N_3  and  C_4 
REMARK    2  A    between atoms: C_4  and  C_5 
REMARK    3  A    between atoms: N_6  and  C_8 
REMARK    4  A    between atoms: C_8  and  C_9 
REMARK    5  A    between atoms: C_12  and  O_13 
REMARK    6  A    between atoms: O_13  and  C_14 
REMARK    7  A    between atoms: C_14  and  C_15 
REMARK    8  A    between atoms: C_24  and  S_25 
REMARK    9  A    between atoms: S_25  and  C_26 
ROOT
HETATM    1  C   UNL     1      41.192 -16.484   4.502  1.00  0.00     0.280 C 
HETATM    2  N   UNL     1      41.911 -15.171   4.151  1.00  0.00    -0.053 N 
HETATM    3  H   UNL     1      41.420 -14.401   4.625  1.00  0.00     0.281 HD
HETATM    4  C   UNL     1      41.722 -15.081   2.651  1.00  0.00     0.252 C 
HETATM    5  C   UNL     1      41.785 -16.534   2.150  1.00  0.00     0.083 C 
HETATM    6  C   UNL     1      41.662 -17.419   3.398  1.00  0.00     0.060 C 
ENDROOT
BRANCH   2   7
HETATM    7  C   UNL     1      43.356 -15.071   4.605  1.00  0.00     0.274 C 
BRANCH   7   8
HETATM    8  C   UNL     1      43.555 -14.099   5.738  1.00  0.00    -0.032 A 
HETATM    9  C   UNL     1      44.669 -14.205   6.587  1.00  0.00     0.011 A 
HETATM   10  C   UNL     1      44.848 -13.305   7.645  1.00  0.00     0.037 A 
HETATM   11  C   UNL     1      43.915 -12.295   7.863  1.00  0.00     0.069 A 
HETATM   12  C   UNL     1      42.793 -12.200   7.041  1.00  0.00     0.037 A 
HETATM   13  C   UNL     1      42.619 -13.083   5.976  1.00  0.00     0.011 A 
BRANCH  11  14
HETATM   14  O   UNL     1      43.972 -11.373   8.867  1.00  0.00    -0.347 OA
BRANCH  14  15
HETATM   15  C   UNL     1      42.741 -10.728   9.197  1.00  0.00     0.214 C 
BRANCH  15  16
HETATM   16  C   UNL     1      42.669 -10.642  10.701  1.00  0.00    -0.034 A 
HETATM   17  C   UNL     1      41.560 -11.153  11.389  1.00  0.00     0.009 A 
HETATM   18  C   UNL     1      41.474 -11.041  12.778  1.00  0.00     0.001 A 
HETATM   19  C   UNL     1      42.493 -10.412  13.491  1.00  0.00     0.000 A 
HETATM   20  C   UNL     1      43.597  -9.893  12.818  1.00  0.00     0.001 A 
HETATM   21  C   UNL     1      43.684 -10.003  11.429  1.00  0.00     0.009 A 
ENDBRANCH  15  16
ENDBRANCH  14  15
ENDBRANCH  11  14
ENDBRANCH   7   8
ENDBRANCH   2   7
BRANCH   1  22
HETATM   22  C   UNL     1      41.394 -16.947   5.953  1.00  0.00     0.249 C 
HETATM   23  N   UNL     1      42.573 -17.597   6.236  1.00  0.00    -0.355 N 
HETATM   24  H   UNL     1      43.158 -17.948   5.487  1.00  0.00     0.162 HD
HETATM   25  O   UNL     1      40.515 -16.744   6.789  1.00  0.00    -0.271 OA
BRANCH  23  26
HETATM   26  C   UNL     1      42.853 -18.136   7.566  1.00  0.00     0.076 C 
HETATM   27  C   UNL     1      43.463 -17.049   8.446  1.00  0.00     0.032 C 
HETATM   28  C   UNL     1      43.783 -19.343   7.469  1.00  0.00     0.032 C 
ENDBRANCH  23  26
ENDBRANCH   1  22
BRANCH   5  29
HETATM   29  S   UNL     1      43.332 -16.941   1.260  1.00  0.00    -0.085 SA
BRANCH  29  30
HETATM   30  C   UNL     1      43.771 -18.389   2.083  1.00  0.00     0.168 A 
HETATM   31  N   UNL     1      44.247 -18.466   3.300  1.00  0.00    -0.223 NA
HETATM   32  C   UNL     1      44.418 -19.817   3.514  1.00  0.00     0.086 A 
HETATM   33  C   UNL     1      44.028 -20.553   2.396  1.00  0.00     0.063 A 
HETATM   34  C   UNL     1      44.902 -20.494   4.643  1.00  0.00     0.034 A 
HETATM   35  N   UNL     1      43.617 -19.607   1.493  1.00  0.00    -0.333 N 
HETATM   36  C   UNL     1      44.091 -21.946   2.334  1.00  0.00     0.032 A 
HETATM   37  H   UNL     1      43.268 -19.778   0.562  1.00  0.00     0.168 HD
HETATM   38  C   UNL     1      44.577 -22.603   3.471  1.00  0.00     0.002 A 
HETATM   39  C   UNL     1      44.976 -21.891   4.606  1.00  0.00     0.002 A 
ENDBRANCH  29  30
ENDBRANCH   5  29
TORSDOF 9
ENDMDL
MODEL 6
REMARK VINA RESULT:      -8.8      3.956      8.883
REMARK  9 active torsions:
REMARK  status: ('A' for Active; 'I' for Inactive)
REMARK    1  A    between atoms: C_2  and  N_3 
REMARK       I    between atoms: N_3  and  C_4 
REMARK    2  A    between atoms: C_4  and  C_5 
REMARK    3  A    between atoms: N_6  and  C_8 
REMARK    4  A    between atoms: C_8  and  C_9 
REMARK    5  A    between atoms: C_12  and  O_13 
REMARK    6  A    between atoms: O_13  and  C_14 
REMARK    7  A    between atoms: C_14  and  C_15 
REMARK    8  A    between atoms: C_24  and  S_25 
REMARK    9  A    between atoms: S_25  and  C_26 
ROOT
HETATM    1  C   UNL     1      40.713 -15.493   5.971  1.00  0.00     0.280 C 
HETATM    2  N   UNL     1      40.891 -16.240   4.639  1.00  0.00    -0.053 N 
HETATM    3  H   UNL     1      39.960 -16.393   4.230  1.00  0.00     0.281 HD
HETATM    4  C   UNL     1      41.503 -17.554   5.076  1.00  0.00     0.252 C 
HETATM    5  C   UNL     1      42.413 -17.199   6.265  1.00  0.00     0.083 C 
HETATM    6  C   UNL     1      42.029 -15.772   6.680  1.00  0.00     0.060 C 
ENDROOT
BRANCH   2   7
HETATM    7  C   UNL     1      41.686 -15.506   3.574  1.00  0.00     0.274 C 
BRANCH   7   8
HETATM    8  C   UNL     1      40.817 -14.824   2.551  1.00  0.00    -0.032 A 
HETATM    9  C   UNL     1      39.548 -15.334   2.232  1.00  0.00     0.011 A 
HETATM   10  C   UNL     1      38.745 -14.704   1.274  1.00  0.00     0.037 A 
HETATM   11  C   UNL     1      39.205 -13.560   0.626  1.00  0.00     0.069 A 
HETATM   12  C   UNL     1      40.474 -13.063   0.917  1.00  0.00     0.037 A 
HETATM   13  C   UNL     1      41.271 -13.678   1.883  1.00  0.00     0.011 A 
BRANCH  11  14
HETATM   14  O   UNL     1      38.524 -12.870  -0.334  1.00  0.00    -0.347 OA
BRANCH  14  15
HETATM   15  C   UNL     1      39.226 -12.635  -1.555  1.00  0.00     0.214 C 
BRANCH  15  16
HETATM   16  C   UNL     1      39.110 -13.887  -2.386  1.00  0.00    -0.034 A 
HETATM   17  C   UNL     1      40.222 -14.720  -2.576  1.00  0.00     0.009 A 
HETATM   18  C   UNL     1      40.127 -15.859  -3.377  1.00  0.00     0.001 A 
HETATM   19  C   UNL     1      38.920 -16.175  -3.999  1.00  0.00     0.000 A 
HETATM   20  C   UNL     1      37.810 -15.352  -3.825  1.00  0.00     0.001 A 
HETATM   21  C   UNL     1      37.904 -14.211  -3.025  1.00  0.00     0.009 A 
ENDBRANCH  15  16
ENDBRANCH  14  15
ENDBRANCH  11  14
ENDBRANCH   7   8
ENDBRANCH   2   7
BRANCH   1  22
HETATM   22  C   UNL     1      40.291 -14.024   5.819  1.00  0.00     0.249 C 
HETATM   23  N   UNL     1      41.229 -13.073   6.151  1.00  0.00    -0.355 N 
HETATM   24  H   UNL     1      42.055 -13.330   6.678  1.00  0.00     0.162 HD
HETATM   25  O   UNL     1      39.156 -13.749   5.433  1.00  0.00    -0.271 OA
BRANCH  23  26
HETATM   26  C   UNL     1      40.924 -11.643   6.104  1.00  0.00     0.076 C 
HETATM   27  C   UNL     1      41.296 -11.080   4.736  1.00  0.00     0.032 C 
HETATM   28  C   UNL     1      41.663 -10.903   7.216  1.00  0.00     0.032 C 
ENDBRANCH  23  26
ENDBRANCH   1  22
BRANCH   5  29
HETATM   29  S   UNL     1      44.199 -17.264   5.872  1.00  0.00    -0.085 SA
BRANCH  29  30
HETATM   30  C   UNL     1      44.220 -18.636   4.830  1.00  0.00     0.168 A 
HETATM   31  N   UNL     1      43.937 -18.633   3.552  1.00  0.00    -0.223 NA
HETATM   32  C   UNL     1      44.116 -19.943   3.161  1.00  0.00     0.086 A 
HETATM   33  C   UNL     1      44.519 -20.735   4.235  1.00  0.00     0.063 A 
HETATM   34  C   UNL     1      43.954 -20.534   1.900  1.00  0.00     0.034 A 
HETATM   35  N   UNL     1      44.577 -19.866   5.295  1.00  0.00    -0.333 N 
HETATM   36  C   UNL     1      44.775 -22.102   4.127  1.00  0.00     0.032 A 
HETATM   37  H   UNL     1      44.832 -20.093   6.244  1.00  0.00     0.168 HD
HETATM   38  C   UNL     1      44.608 -22.673   2.860  1.00  0.00     0.002 A 
HETATM   39  C   UNL     1      44.204 -21.905   1.765  1.00  0.00     0.002 A 
ENDBRANCH  29  30
ENDBRANCH   5  29
TORSDOF 9
ENDMDL
MODEL 7
REMARK VINA RESULT:      -8.5      4.325      9.019
REMARK  9 active torsions:
REMARK  status: ('A' for Active; 'I' for Inactive)
REMARK    1  A    between atoms: C_2  and  N_3 
REMARK       I    between atoms: N_3  and  C_4 
REMARK    2  A    between atoms: C_4  and  C_5 
REMARK    3  A    between atoms: N_6  and  C_8 
REMARK    4  A    between atoms: C_8  and  C_9 
REMARK    5  A    between atoms: C_12  and  O_13 
REMARK    6  A    between atoms: O_13  and  C_14 
REMARK    7  A    between atoms: C_14  and  C_15 
REMARK    8  A    between atoms: C_24  and  S_25 
REMARK    9  A    between atoms: S_25  and  C_26 
ROOT
HETATM    1  C   UNL     1      39.953 -14.505   5.429  1.00  0.00     0.280 C 
HETATM    2  N   UNL     1      39.860 -14.710   3.908  1.00  0.00    -0.053 N 
HETATM    3  H   UNL     1      38.865 -14.738   3.648  1.00  0.00     0.281 HD
HETATM    4  C   UNL     1      40.499 -16.071   3.719  1.00  0.00     0.252 C 
HETATM    5  C   UNL     1      41.621 -16.138   4.769  1.00  0.00     0.083 C 
HETATM    6  C   UNL     1      41.366 -14.974   5.737  1.00  0.00     0.060 C 
ENDROOT
BRANCH   2   7
HETATM    7  C   UNL     1      40.471 -13.611   3.058  1.00  0.00     0.274 C 
BRANCH   7   8
HETATM    8  C   UNL     1      39.617 -13.231   1.877  1.00  0.00    -0.032 A 
HETATM    9  C   UNL     1      39.838 -12.026   1.190  1.00  0.00     0.011 A 
HETATM   10  C   UNL     1      39.037 -11.670   0.098  1.00  0.00     0.037 A 
HETATM   11  C   UNL     1      38.009 -12.514  -0.314  1.00  0.00     0.069 A 
HETATM   12  C   UNL     1      37.765 -13.698   0.381  1.00  0.00     0.037 A 
HETATM   13  C   UNL     1      38.571 -14.065   1.458  1.00  0.00     0.011 A 
BRANCH  11  14
HETATM   14  O   UNL     1      37.154 -12.269  -1.348  1.00  0.00    -0.347 OA
BRANCH  14  15
HETATM   15  C   UNL     1      37.758 -12.071  -2.628  1.00  0.00     0.214 C 
BRANCH  15  16
HETATM   16  C   UNL     1      38.332 -13.395  -3.063  1.00  0.00    -0.034 A 
HETATM   17  C   UNL     1      39.720 -13.579  -3.131  1.00  0.00     0.009 A 
HETATM   18  C   UNL     1      40.254 -14.792  -3.570  1.00  0.00     0.001 A 
HETATM   19  C   UNL     1      39.405 -15.830  -3.950  1.00  0.00     0.000 A 
HETATM   20  C   UNL     1      38.023 -15.657  -3.894  1.00  0.00     0.001 A 
HETATM   21  C   UNL     1      37.488 -14.444  -3.456  1.00  0.00     0.009 A 
ENDBRANCH  15  16
ENDBRANCH  14  15
ENDBRANCH  11  14
ENDBRANCH   7   8
ENDBRANCH   2   7
BRANCH   1  22
HETATM   22  C   UNL     1      39.558 -13.098   5.901  1.00  0.00     0.249 C 
HETATM   23  N   UNL     1      40.408 -12.483   6.791  1.00  0.00    -0.355 N 
HETATM   24  H   UNL     1      41.118 -13.019   7.276  1.00  0.00     0.162 HD
HETATM   25  O   UNL     1      38.517 -12.584   5.494  1.00  0.00    -0.271 OA
BRANCH  23  26
HETATM   26  C   UNL     1      40.109 -11.168   7.357  1.00  0.00     0.076 C 
HETATM   27  C   UNL     1      41.395 -10.360   7.497  1.00  0.00     0.032 C 
HETATM   28  C   UNL     1      39.408 -11.312   8.706  1.00  0.00     0.032 C 
ENDBRANCH  23  26
ENDBRANCH   1  22
BRANCH   5  29
HETATM   29  S   UNL     1      43.302 -15.991   4.062  1.00  0.00    -0.085 SA
BRANCH  29  30
HETATM   30  C   UNL     1      43.654 -17.656   3.793  1.00  0.00     0.168 A 
HETATM   31  N   UNL     1      44.251 -18.461   4.636  1.00  0.00    -0.223 NA
HETATM   32  C   UNL     1      44.281 -19.675   3.984  1.00  0.00     0.086 A 
HETATM   33  C   UNL     1      43.682 -19.583   2.729  1.00  0.00     0.063 A 
HETATM   34  C   UNL     1      44.803 -20.906   4.403  1.00  0.00     0.034 A 
HETATM   35  N   UNL     1      43.289 -18.273   2.634  1.00  0.00    -0.333 N 
HETATM   36  C   UNL     1      43.570 -20.663   1.851  1.00  0.00     0.032 A 
HETATM   37  H   UNL     1      42.819 -17.842   1.853  1.00  0.00     0.168 HD
HETATM   38  C   UNL     1      44.097 -21.883   2.288  1.00  0.00     0.002 A 
HETATM   39  C   UNL     1      44.704 -22.005   3.541  1.00  0.00     0.002 A 
ENDBRANCH  29  30
ENDBRANCH   5  29
TORSDOF 9
ENDMDL
MODEL 8
REMARK VINA RESULT:      -8.5      2.441      4.041
REMARK  9 active torsions:
REMARK  status: ('A' for Active; 'I' for Inactive)
REMARK    1  A    between atoms: C_2  and  N_3 
REMARK       I    between atoms: N_3  and  C_4 
REMARK    2  A    between atoms: C_4  and  C_5 
REMARK    3  A    between atoms: N_6  and  C_8 
REMARK    4  A    between atoms: C_8  and  C_9 
REMARK    5  A    between atoms: C_12  and  O_13 
REMARK    6  A    between atoms: O_13  and  C_14 
REMARK    7  A    between atoms: C_14  and  C_15 
REMARK    8  A    between atoms: C_24  and  S_25 
REMARK    9  A    between atoms: S_25  and  C_26 
ROOT
HETATM    1  C   UNL     1      38.822 -11.416   4.261  1.00  0.00     0.280 C 
HETATM    2  N   UNL     1      39.988 -12.371   4.562  1.00  0.00    -0.053 N 
HETATM    3  H   UNL     1      39.673 -13.332   4.370  1.00  0.00     0.281 HD
HETATM    4  C   UNL     1      40.206 -12.169   6.048  1.00  0.00     0.252 C 
HETATM    5  C   UNL     1      39.915 -10.679   6.298  1.00  0.00     0.083 C 
HETATM    6  C   UNL     1      39.216 -10.165   5.031  1.00  0.00     0.060 C 
ENDROOT
BRANCH   2   7
HETATM    7  C   UNL     1      41.234 -12.175   3.717  1.00  0.00     0.274 C 
BRANCH   7   8
HETATM    8  C   UNL     1      41.772 -13.462   3.148  1.00  0.00    -0.032 A 
HETATM    9  C   UNL     1      43.075 -13.890   3.451  1.00  0.00     0.011 A 
HETATM   10  C   UNL     1      43.577 -15.082   2.913  1.00  0.00     0.037 A 
HETATM   11  C   UNL     1      42.781 -15.853   2.070  1.00  0.00     0.069 A 
HETATM   12  C   UNL     1      41.497 -15.420   1.743  1.00  0.00     0.037 A 
HETATM   13  C   UNL     1      40.987 -14.243   2.289  1.00  0.00     0.011 A 
BRANCH  11  14
HETATM   14  O   UNL     1      43.164 -17.019   1.474  1.00  0.00    -0.347 OA
BRANCH  14  15
HETATM   15  C   UNL     1      42.358 -18.164   1.760  1.00  0.00     0.214 C 
BRANCH  15  16
HETATM   16  C   UNL     1      43.241 -19.171   2.453  1.00  0.00    -0.034 A 
HETATM   17  C   UNL     1      43.520 -20.404   1.847  1.00  0.00     0.009 A 
HETATM   18  C   UNL     1      44.306 -21.354   2.503  1.00  0.00     0.001 A 
HETATM   19  C   UNL     1      44.815 -21.082   3.772  1.00  0.00     0.000 A 
HETATM   20  C   UNL     1      44.538 -19.863   4.387  1.00  0.00     0.001 A 
HETATM   21  C   UNL     1      43.752 -18.912   3.733  1.00  0.00     0.009 A 
ENDBRANCH  15  16
ENDBRANCH  14  15
ENDBRANCH  11  14
ENDBRANCH   7   8
ENDBRANCH   2   7
BRANCH   1  22
HETATM   22  C   UNL     1      38.509 -11.254   2.766  1.00  0.00     0.249 C 
HETATM   23  N   UNL     1      38.021 -12.362   2.112  1.00  0.00    -0.355 N 
HETATM   24  H   UNL     1      38.088 -13.279   2.538  1.00  0.00     0.162 HD
HETATM   25  O   UNL     1      38.712 -10.175   2.210  1.00  0.00    -0.271 OA
BRANCH  23  26
HETATM   26  C   UNL     1      37.742 -12.347   0.677  1.00  0.00     0.076 C 
HETATM   27  C   UNL     1      36.339 -11.803   0.428  1.00  0.00     0.032 C 
HETATM   28  C   UNL     1      37.894 -13.748   0.088  1.00  0.00     0.032 C 
ENDBRANCH  23  26
ENDBRANCH   1  22
BRANCH   5  29
HETATM   29  S   UNL     1      41.413  -9.680   6.620  1.00  0.00    -0.085 SA
BRANCH  29  30
HETATM   30  C   UNL     1      41.752 -10.172   8.236  1.00  0.00     0.168 A 
HETATM   31  N   UNL     1      42.941 -10.403   8.734  1.00  0.00    -0.223 NA
HETATM   32  C   UNL     1      42.698 -10.742  10.048  1.00  0.00     0.086 A 
HETATM   33  C   UNL     1      41.334 -10.703  10.331  1.00  0.00     0.063 A 
HETATM   34  C   UNL     1      43.597 -11.093  11.066  1.00  0.00     0.034 A 
HETATM   35  N   UNL     1      40.751 -10.335   9.146  1.00  0.00    -0.333 N 
HETATM   36  C   UNL     1      40.801 -10.999  11.587  1.00  0.00     0.032 A 
HETATM   37  H   UNL     1      39.765 -10.208   8.975  1.00  0.00     0.168 HD
HETATM   38  C   UNL     1      41.715 -11.348  12.589  1.00  0.00     0.002 A 
HETATM   39  C   UNL     1      43.088 -11.395  12.335  1.00  0.00     0.002 A 
ENDBRANCH  29  30
ENDBRANCH   5  29
TORSDOF 9
ENDMDL
MODEL 9
REMARK VINA RESULT:      -8.5      3.837     10.485
REMARK  9 active torsions:
REMARK  status: ('A' for Active; 'I' for Inactive)
REMARK    1  A    between atoms: C_2  and  N_3 
REMARK       I    between atoms: N_3  and  C_4 
REMARK    2  A    between atoms: C_4  and  C_5 
REMARK    3  A    between atoms: N_6  and  C_8 
REMARK    4  A    between atoms: C_8  and  C_9 
REMARK    5  A    between atoms: C_12  and  O_13 
REMARK    6  A    between atoms: O_13  and  C_14 
REMARK    7  A    between atoms: C_14  and  C_15 
REMARK    8  A    between atoms: C_24  and  S_25 
REMARK    9  A    between atoms: S_25  and  C_26 
ROOT
HETATM    1  C   UNL     1      41.968 -16.690   3.750  1.00  0.00     0.280 C 
HETATM    2  N   UNL     1      41.955 -15.320   4.447  1.00  0.00    -0.053 N 
HETATM    3  H   UNL     1      41.721 -15.467   5.438  1.00  0.00     0.281 HD
HETATM    4  C   UNL     1      40.829 -14.598   3.735  1.00  0.00     0.252 C 
HETATM    5  C   UNL     1      40.895 -15.088   2.278  1.00  0.00     0.083 C 
HETATM    6  C   UNL     1      41.820 -16.313   2.284  1.00  0.00     0.060 C 
ENDROOT
BRANCH   2   7
HETATM    7  C   UNL     1      43.274 -14.570   4.448  1.00  0.00     0.274 C 
BRANCH   7   8
HETATM    8  C   UNL     1      43.552 -13.862   5.748  1.00  0.00    -0.032 A 
HETATM    9  C   UNL     1      44.643 -14.238   6.550  1.00  0.00     0.011 A 
HETATM   10  C   UNL     1      44.894 -13.584   7.762  1.00  0.00     0.037 A 
HETATM   11  C   UNL     1      44.058 -12.552   8.182  1.00  0.00     0.069 A 
HETATM   12  C   UNL     1      42.959 -12.193   7.405  1.00  0.00     0.037 A 
HETATM   13  C   UNL     1      42.713 -12.829   6.188  1.00  0.00     0.011 A 
BRANCH  11  14
HETATM   14  O   UNL     1      44.191 -11.854   9.347  1.00  0.00    -0.347 OA
BRANCH  14  15
HETATM   15  C   UNL     1      43.323 -10.731   9.509  1.00  0.00     0.214 C 
BRANCH  15  16
HETATM   16  C   UNL     1      42.984 -10.635  10.974  1.00  0.00    -0.034 A 
HETATM   17  C   UNL     1      41.830 -11.253  11.478  1.00  0.00     0.009 A 
HETATM   18  C   UNL     1      41.493 -11.133  12.828  1.00  0.00     0.001 A 
HETATM   19  C   UNL     1      42.303 -10.390  13.685  1.00  0.00     0.000 A 
HETATM   20  C   UNL     1      43.448  -9.765  13.195  1.00  0.00     0.001 A 
HETATM   21  C   UNL     1      43.785  -9.883  11.845  1.00  0.00     0.009 A 
ENDBRANCH  15  16
ENDBRANCH  14  15
ENDBRANCH  11  14
ENDBRANCH   7   8
ENDBRANCH   2   7
BRANCH   1  22
HETATM   22  C   UNL     1      43.160 -17.582   4.132  1.00  0.00     0.249 C 
HETATM   23  N   UNL     1      43.182 -18.067   5.418  1.00  0.00    -0.355 N 
HETATM   24  H   UNL     1      42.575 -17.672   6.127  1.00  0.00     0.162 HD
HETATM   25  O   UNL     1      44.041 -17.814   3.305  1.00  0.00    -0.271 OA
BRANCH  23  26
HETATM   26  C   UNL     1      44.293 -18.878   5.916  1.00  0.00     0.076 C 
HETATM   27  C   UNL     1      43.774 -19.918   6.903  1.00  0.00     0.032 C 
HETATM   28  C   UNL     1      45.353 -17.991   6.566  1.00  0.00     0.032 C 
ENDBRANCH  23  26
ENDBRANCH   1  22
BRANCH   5  29
HETATM   29  S   UNL     1      41.542 -13.838   1.109  1.00  0.00    -0.085 SA
BRANCH  29  30
HETATM   30  C   UNL     1      40.646 -14.263  -0.300  1.00  0.00     0.168 A 
HETATM   31  N   UNL     1      39.462 -13.807  -0.624  1.00  0.00    -0.223 NA
HETATM   32  C   UNL     1      39.182 -14.414  -1.829  1.00  0.00     0.086 A 
HETATM   33  C   UNL     1      40.229 -15.244  -2.226  1.00  0.00     0.063 A 
HETATM   34  C   UNL     1      38.049 -14.304  -2.648  1.00  0.00     0.034 A 
HETATM   35  N   UNL     1      41.156 -15.126  -1.223  1.00  0.00    -0.333 N 
HETATM   36  C   UNL     1      40.216 -15.983  -3.411  1.00  0.00     0.032 A 
HETATM   37  H   UNL     1      42.049 -15.593  -1.172  1.00  0.00     0.168 HD
HETATM   38  C   UNL     1      39.077 -15.859  -4.214  1.00  0.00     0.002 A 
HETATM   39  C   UNL     1      38.011 -15.035  -3.842  1.00  0.00     0.002 A 
ENDBRANCH  29  30
ENDBRANCH   5  29
TORSDOF 9
ENDMDL
MODEL 10
REMARK VINA RESULT:      -8.3      4.425      9.159
REMARK  9 active torsions:
REMARK  status: ('A' for Active; 'I' for Inactive)
REMARK    1  A    between atoms: C_2  and  N_3 
REMARK       I    between atoms: N_3  and  C_4 
REMARK    2  A    between atoms: C_4  and  C_5 
REMARK    3  A    between atoms: N_6  and  C_8 
REMARK    4  A    between atoms: C_8  and  C_9 
REMARK    5  A    between atoms: C_12  and  O_13 
REMARK    6  A    between atoms: O_13  and  C_14 
REMARK    7  A    between atoms: C_14  and  C_15 
REMARK    8  A    between atoms: C_24  and  S_25 
REMARK    9  A    between atoms: S_25  and  C_26 
ROOT
HETATM    1  C   UNL     1      39.990 -14.448   5.518  1.00  0.00     0.280 C 
HETATM    2  N   UNL     1      39.882 -14.649   3.997  1.00  0.00    -0.053 N 
HETATM    3  H   UNL     1      38.884 -14.659   3.746  1.00  0.00     0.281 HD
HETATM    4  C   UNL     1      40.495 -16.020   3.801  1.00  0.00     0.252 C 
HETATM    5  C   UNL     1      41.624 -16.109   4.842  1.00  0.00     0.083 C 
HETATM    6  C   UNL     1      41.397 -14.942   5.814  1.00  0.00     0.060 C 
ENDROOT
BRANCH   2   7
HETATM    7  C   UNL     1      40.505 -13.560   3.144  1.00  0.00     0.274 C 
BRANCH   7   8
HETATM    8  C   UNL     1      40.282 -13.763   1.668  1.00  0.00    -0.032 A 
HETATM    9  C   UNL     1      38.997 -13.641   1.113  1.00  0.00     0.011 A 
HETATM   10  C   UNL     1      38.791 -13.839  -0.257  1.00  0.00     0.037 A 
HETATM   11  C   UNL     1      39.865 -14.161  -1.083  1.00  0.00     0.069 A 
HETATM   12  C   UNL     1      41.138 -14.310  -0.535  1.00  0.00     0.037 A 
HETATM   13  C   UNL     1      41.352 -14.098   0.827  1.00  0.00     0.011 A 
BRANCH  11  14
HETATM   14  O   UNL     1      39.786 -14.393  -2.425  1.00  0.00    -0.347 OA
BRANCH  14  15
HETATM   15  C   UNL     1      39.203 -13.352  -3.209  1.00  0.00     0.214 C 
BRANCH  15  16
HETATM   16  C   UNL     1      40.227 -12.252  -3.327  1.00  0.00    -0.034 A 
HETATM   17  C   UNL     1      41.466 -12.498  -3.937  1.00  0.00     0.009 A 
HETATM   18  C   UNL     1      42.431 -11.492  -4.014  1.00  0.00     0.001 A 
HETATM   19  C   UNL     1      42.169 -10.233  -3.478  1.00  0.00     0.000 A 
HETATM   20  C   UNL     1      40.945  -9.978  -2.862  1.00  0.00     0.001 A 
HETATM   21  C   UNL     1      39.979 -10.983  -2.784  1.00  0.00     0.009 A 
ENDBRANCH  15  16
ENDBRANCH  14  15
ENDBRANCH  11  14
ENDBRANCH   7   8
ENDBRANCH   2   7
BRANCH   1  22
HETATM   22  C   UNL     1      39.624 -13.034   5.995  1.00  0.00     0.249 C 
HETATM   23  N   UNL     1      40.526 -12.409   6.824  1.00  0.00    -0.355 N 
HETATM   24  H   UNL     1      41.265 -12.938   7.272  1.00  0.00     0.162 HD
HETATM   25  O   UNL     1      38.560 -12.525   5.645  1.00  0.00    -0.271 OA
BRANCH  23  26
HETATM   26  C   UNL     1      40.261 -11.086   7.390  1.00  0.00     0.076 C 
HETATM   27  C   UNL     1      41.573 -10.330   7.574  1.00  0.00     0.032 C 
HETATM   28  C   UNL     1      39.515 -11.211   8.716  1.00  0.00     0.032 C 
ENDBRANCH  23  26
ENDBRANCH   1  22
BRANCH   5  29
HETATM   29  S   UNL     1      43.301 -15.991   4.122  1.00  0.00    -0.085 SA
BRANCH  29  30
HETATM   30  C   UNL     1      43.558 -17.642   3.704  1.00  0.00     0.168 A 
HETATM   31  N   UNL     1      43.201 -18.215   2.582  1.00  0.00    -0.223 NA
HETATM   32  C   UNL     1      43.639 -19.515   2.709  1.00  0.00     0.086 A 
HETATM   33  C   UNL     1      44.274 -19.712   3.934  1.00  0.00     0.063 A 
HETATM   34  C   UNL     1      43.531 -20.590   1.815  1.00  0.00     0.034 A 
HETATM   35  N   UNL     1      44.207 -18.489   4.551  1.00  0.00    -0.333 N 
HETATM   36  C   UNL     1      44.819 -20.935   4.329  1.00  0.00     0.032 A 
HETATM   37  H   UNL     1      44.566 -18.257   5.465  1.00  0.00     0.168 HD
HETATM   38  C   UNL     1      44.701 -21.995   3.423  1.00  0.00     0.002 A 
HETATM   39  C   UNL     1      44.069 -21.829   2.188  1.00  0.00     0.002 A 
ENDBRANCH  29  30
ENDBRANCH   5  29
TORSDOF 9
ENDMDL
