MODEL 1
REMARK VINA RESULT:      -8.0      0.000      0.000
REMARK  6 active torsions:
REMARK  status: ('A' for Active; 'I' for Inactive)
REMARK    1  A    between atoms: C_3  and  C_4 
REMARK    2  A    between atoms: C_9  and  C_10 
REMARK    3  A    between atoms: C_10  and  O_11 
REMARK    4  A    between atoms: C_10  and  C_12 
REMARK    5  A    between atoms: C_12  and  N_13 
REMARK    6  A    between atoms: C_17  and  C_18 
ROOT
HETATM    1  C   UNL     1      42.899 -17.566   6.541  1.00  0.00     0.271 C 
ENDROOT
BRANCH   1   2
HETATM    2  C   UNL     1      44.209 -17.702   5.718  1.00  0.00     0.177 C 
BRANCH   2   3
HETATM    3  C   UNL     1      43.974 -18.214   4.312  1.00  0.00    -0.027 A 
HETATM    4  C   UNL     1      44.140 -19.569   3.977  1.00  0.00     0.025 A 
HETATM    5  C   UNL     1      43.892 -20.034   2.672  1.00  0.00     0.048 A 
HETATM    6  C   UNL     1      43.487 -19.119   1.693  1.00  0.00     0.016 A 
HETATM    7  C   UNL     1      43.325 -17.772   2.010  1.00  0.00     0.001 A 
HETATM    8  C   UNL     1      43.563 -17.322   3.310  1.00  0.00     0.010 A 
BRANCH   5   9
HETATM    9  C   UNL     1      44.082 -21.499   2.347  1.00  0.00     0.417 C 
HETATM   10  F   UNL     1      45.154 -21.751   1.553  1.00  0.00    -0.166 F 
HETATM   11  F   UNL     1      44.234 -22.261   3.461  1.00  0.00    -0.166 F 
HETATM   12  F   UNL     1      42.998 -22.003   1.691  1.00  0.00    -0.166 F 
ENDBRANCH   5   9
ENDBRANCH   2   3
BRANCH   2  13
HETATM   13  O   UNL     1      45.148 -18.521   6.412  1.00  0.00    -0.389 OA
HETATM   14  H   UNL     1      45.913 -18.646   5.816  1.00  0.00     0.210 HD
ENDBRANCH   2  13
ENDBRANCH   1   2
BRANCH   1  15
HETATM   15  N   UNL     1      42.306 -16.145   6.568  1.00  0.00    -0.068 N 
HETATM   16  H   UNL     1      42.087 -15.932   7.550  1.00  0.00     0.280 HD
HETATM   17  C   UNL     1      43.286 -15.096   6.080  1.00  0.00     0.235 C 
HETATM   18  C   UNL     1      42.642 -13.715   6.128  1.00  0.00     0.037 C 
HETATM   19  C   UNL     1      41.350 -13.644   5.302  1.00  0.00     0.025 C 
HETATM   20  C   UNL     1      40.393 -14.723   5.830  1.00  0.00     0.037 C 
HETATM   21  C   UNL     1      41.010 -16.114   5.790  1.00  0.00     0.235 C 
BRANCH  19  22
HETATM   22  C   UNL     1      41.595 -13.720   3.816  1.00  0.00    -0.018 A 
HETATM   23  C   UNL     1      42.656 -13.159   3.060  1.00  0.00     0.147 A 
HETATM   24  N   UNL     1      42.546 -13.397   1.755  1.00  0.00    -0.187 NA
HETATM   25  N   UNL     1      41.481 -14.203   1.662  1.00  0.00    -0.289 N 
HETATM   26  H   UNL     1      41.230 -14.572   0.749  1.00  0.00     0.188 HD
HETATM   27  C   UNL     1      40.865 -14.409   2.865  1.00  0.00     0.118 A 
ENDBRANCH  19  22
ENDBRANCH   1  15
TORSDOF 6
ENDMDL
MODEL 2
REMARK VINA RESULT:      -7.9      2.993      4.221
REMARK  6 active torsions:
REMARK  status: ('A' for Active; 'I' for Inactive)
REMARK    1  A    between atoms: C_3  and  C_4 
REMARK    2  A    between atoms: C_9  and  C_10 
REMARK    3  A    between atoms: C_10  and  O_11 
REMARK    4  A    between atoms: C_10  and  C_12 
REMARK    5  A    between atoms: C_12  and  N_13 
REMARK    6  A    between atoms: C_17  and  C_18 
ROOT
HETATM    1  C   UNL     1      42.285 -15.743   2.668  1.00  0.00     0.271 C 
ENDROOT
BRANCH   1   2
HETATM    2  C   UNL     1      42.529 -17.027   1.831  1.00  0.00     0.177 C 
BRANCH   2   3
HETATM    3  C   UNL     1      43.207 -18.127   2.620  1.00  0.00    -0.027 A 
HETATM    4  C   UNL     1      43.353 -19.429   2.108  1.00  0.00     0.025 A 
HETATM    5  C   UNL     1      44.008 -20.434   2.842  1.00  0.00     0.048 A 
HETATM    6  C   UNL     1      44.510 -20.126   4.113  1.00  0.00     0.016 A 
HETATM    7  C   UNL     1      44.367 -18.842   4.635  1.00  0.00     0.001 A 
HETATM    8  C   UNL     1      43.724 -17.848   3.894  1.00  0.00     0.010 A 
BRANCH   5   9
HETATM    9  C   UNL     1      44.145 -21.823   2.260  1.00  0.00     0.417 C 
HETATM   10  F   UNL     1      45.218 -21.971   1.441  1.00  0.00    -0.166 F 
HETATM   11  F   UNL     1      44.251 -22.778   3.219  1.00  0.00    -0.166 F 
HETATM   12  F   UNL     1      43.051 -22.155   1.516  1.00  0.00    -0.166 F 
ENDBRANCH   5   9
ENDBRANCH   2   3
BRANCH   2  13
HETATM   13  O   UNL     1      43.264 -16.715   0.649  1.00  0.00    -0.389 OA
HETATM   14  H   UNL     1      43.553 -15.784   0.731  1.00  0.00     0.210 HD
ENDBRANCH   2  13
ENDBRANCH   1   2
BRANCH   1  15
HETATM   15  N   UNL     1      41.377 -14.699   1.989  1.00  0.00    -0.068 N 
HETATM   16  H   UNL     1      40.836 -14.244   2.736  1.00  0.00     0.280 HD
HETATM   17  C   UNL     1      42.167 -13.621   1.274  1.00  0.00     0.235 C 
HETATM   18  C   UNL     1      41.217 -12.622   0.621  1.00  0.00     0.037 C 
HETATM   19  C   UNL     1      40.246 -13.295  -0.360  1.00  0.00     0.025 C 
HETATM   20  C   UNL     1      39.474 -14.377   0.408  1.00  0.00     0.037 C 
HETATM   21  C   UNL     1      40.399 -15.391   1.067  1.00  0.00     0.235 C 
BRANCH  19  22
HETATM   22  C   UNL     1      40.925 -13.799  -1.608  1.00  0.00    -0.018 A 
HETATM   23  C   UNL     1      40.521 -14.840  -2.482  1.00  0.00     0.147 A 
HETATM   24  N   UNL     1      41.379 -15.043  -3.479  1.00  0.00    -0.187 NA
HETATM   25  N   UNL     1      42.286 -14.070  -3.329  1.00  0.00    -0.289 N 
HETATM   26  H   UNL     1      43.024 -13.984  -4.022  1.00  0.00     0.188 HD
HETATM   27  C   UNL     1      42.070 -13.312  -2.213  1.00  0.00     0.118 A 
ENDBRANCH  19  22
ENDBRANCH   1  15
TORSDOF 6
ENDMDL
MODEL 3
REMARK VINA RESULT:      -7.8      2.722      3.873
REMARK  6 active torsions:
REMARK  status: ('A' for Active; 'I' for Inactive)
REMARK    1  A    between atoms: C_3  and  C_4 
REMARK    2  A    between atoms: C_9  and  C_10 
REMARK    3  A    between atoms: C_10  and  O_11 
REMARK    4  A    between atoms: C_10  and  C_12 
REMARK    5  A    between atoms: C_12  and  N_13 
REMARK    6  A    between atoms: C_17  and  C_18 
ROOT
HETATM    1  C   UNL     1      40.987 -17.052   2.480  1.00  0.00     0.271 C 
ENDROOT
BRANCH   1   2
HETATM    2  C   UNL     1      42.504 -16.809   2.710  1.00  0.00     0.177 C 
BRANCH   2   3
HETATM    3  C   UNL     1      43.239 -18.051   3.169  1.00  0.00    -0.027 A 
HETATM    4  C   UNL     1      43.220 -19.244   2.425  1.00  0.00     0.025 A 
HETATM    5  C   UNL     1      43.929 -20.382   2.851  1.00  0.00     0.048 A 
HETATM    6  C   UNL     1      44.653 -20.320   4.047  1.00  0.00     0.016 A 
HETATM    7  C   UNL     1      44.675 -19.146   4.798  1.00  0.00     0.001 A 
HETATM    8  C   UNL     1      43.977 -18.019   4.362  1.00  0.00     0.010 A 
BRANCH   5   9
HETATM    9  C   UNL     1      43.884 -21.648   2.025  1.00  0.00     0.417 C 
HETATM   10  F   UNL     1      44.668 -21.608   0.916  1.00  0.00    -0.166 F 
HETATM   11  F   UNL     1      44.266 -22.742   2.733  1.00  0.00    -0.166 F 
HETATM   12  F   UNL     1      42.619 -21.906   1.586  1.00  0.00    -0.166 F 
ENDBRANCH   5   9
ENDBRANCH   2   3
BRANCH   2  13
HETATM   13  O   UNL     1      42.700 -15.731   3.622  1.00  0.00    -0.389 OA
HETATM   14  H   UNL     1      43.509 -15.260   3.337  1.00  0.00     0.210 HD
ENDBRANCH   2  13
ENDBRANCH   1   2
BRANCH   1  15
HETATM   15  N   UNL     1      40.390 -16.282   1.287  1.00  0.00    -0.068 N 
HETATM   16  H   UNL     1      39.707 -16.908   0.841  1.00  0.00     0.280 HD
HETATM   17  C   UNL     1      39.651 -15.029   1.714  1.00  0.00     0.235 C 
HETATM   18  C   UNL     1      39.087 -14.312   0.493  1.00  0.00     0.037 C 
HETATM   19  C   UNL     1      40.176 -13.952  -0.528  1.00  0.00     0.025 C 
HETATM   20  C   UNL     1      40.895 -15.249  -0.927  1.00  0.00     0.037 C 
HETATM   21  C   UNL     1      41.472 -15.984   0.275  1.00  0.00     0.235 C 
BRANCH  19  22
HETATM   22  C   UNL     1      41.101 -12.865  -0.044  1.00  0.00    -0.018 A 
HETATM   23  C   UNL     1      42.211 -12.281  -0.706  1.00  0.00     0.147 A 
HETATM   24  N   UNL     1      42.829 -11.361   0.031  1.00  0.00    -0.187 NA
HETATM   25  N   UNL     1      42.067 -11.257   1.126  1.00  0.00    -0.289 N 
HETATM   26  H   UNL     1      42.312 -10.560   1.824  1.00  0.00     0.188 HD
HETATM   27  C   UNL     1      41.033 -12.150   1.138  1.00  0.00     0.118 A 
ENDBRANCH  19  22
ENDBRANCH   1  15
TORSDOF 6
ENDMDL
MODEL 4
REMARK VINA RESULT:      -7.7      3.972      5.538
REMARK  6 active torsions:
REMARK  status: ('A' for Active; 'I' for Inactive)
REMARK    1  A    between atoms: C_3  and  C_4 
REMARK    2  A    between atoms: C_9  and  C_10 
REMARK    3  A    between atoms: C_10  and  O_11 
REMARK    4  A    between atoms: C_10  and  C_12 
REMARK    5  A    between atoms: C_12  and  N_13 
REMARK    6  A    between atoms: C_17  and  C_18 
ROOT
HETATM    1  C   UNL     1      39.824 -15.607   2.001  1.00  0.00     0.271 C 
ENDROOT
BRANCH   1   2
HETATM    2  C   UNL     1      40.600 -15.386   3.328  1.00  0.00     0.177 C 
BRANCH   2   3
HETATM    3  C   UNL     1      41.433 -16.585   3.731  1.00  0.00    -0.027 A 
HETATM    4  C   UNL     1      42.060 -17.409   2.780  1.00  0.00     0.025 A 
HETATM    5  C   UNL     1      42.852 -18.504   3.171  1.00  0.00     0.048 A 
HETATM    6  C   UNL     1      43.002 -18.779   4.535  1.00  0.00     0.016 A 
HETATM    7  C   UNL     1      42.381 -17.974   5.489  1.00  0.00     0.001 A 
HETATM    8  C   UNL     1      41.605 -16.883   5.091  1.00  0.00     0.010 A 
BRANCH   5   9
HETATM    9  C   UNL     1      43.511 -19.369   2.120  1.00  0.00     0.417 C 
HETATM   10  F   UNL     1      42.786 -20.466   1.778  1.00  0.00    -0.166 F 
HETATM   11  F   UNL     1      43.757 -18.690   0.970  1.00  0.00    -0.166 F 
HETATM   12  F   UNL     1      44.720 -19.833   2.549  1.00  0.00    -0.166 F 
ENDBRANCH   5   9
ENDBRANCH   2   3
BRANCH   2  13
HETATM   13  O   UNL     1      39.703 -15.011   4.370  1.00  0.00    -0.389 OA
HETATM   14  H   UNL     1      39.956 -14.109   4.654  1.00  0.00     0.210 HD
ENDBRANCH   2  13
ENDBRANCH   1   2
BRANCH   1  15
HETATM   15  N   UNL     1      40.234 -14.661   0.856  1.00  0.00    -0.068 N 
HETATM   16  H   UNL     1      40.761 -13.888   1.283  1.00  0.00     0.280 HD
HETATM   17  C   UNL     1      41.143 -15.332  -0.154  1.00  0.00     0.235 C 
HETATM   18  C   UNL     1      41.512 -14.349  -1.260  1.00  0.00     0.037 C 
HETATM   19  C   UNL     1      40.276 -13.778  -1.970  1.00  0.00     0.025 C 
HETATM   20  C   UNL     1      39.388 -13.114  -0.909  1.00  0.00     0.037 C 
HETATM   21  C   UNL     1      39.001 -14.075   0.207  1.00  0.00     0.235 C 
BRANCH  19  22
HETATM   22  C   UNL     1      39.557 -14.800  -2.815  1.00  0.00    -0.018 A 
HETATM   23  C   UNL     1      38.253 -14.738  -3.369  1.00  0.00     0.147 A 
HETATM   24  N   UNL     1      37.922 -15.838  -4.041  1.00  0.00    -0.187 NA
HETATM   25  N   UNL     1      39.039 -16.575  -4.027  1.00  0.00    -0.289 N 
HETATM   26  H   UNL     1      39.048 -17.453  -4.538  1.00  0.00     0.188 HD
HETATM   27  C   UNL     1      40.039 -16.006  -3.289  1.00  0.00     0.118 A 
ENDBRANCH  19  22
ENDBRANCH   1  15
TORSDOF 6
ENDMDL
MODEL 5
REMARK VINA RESULT:      -7.7      2.113      3.643
REMARK  6 active torsions:
REMARK  status: ('A' for Active; 'I' for Inactive)
REMARK    1  A    between atoms: C_3  and  C_4 
REMARK    2  A    between atoms: C_9  and  C_10 
REMARK    3  A    between atoms: C_10  and  O_11 
REMARK    4  A    between atoms: C_10  and  C_12 
REMARK    5  A    between atoms: C_12  and  N_13 
REMARK    6  A    between atoms: C_17  and  C_18 
ROOT
HETATM    1  C   UNL     1      43.116 -15.639   2.587  1.00  0.00     0.271 C 
ENDROOT
BRANCH   1   2
HETATM    2  C   UNL     1      42.854 -17.022   1.931  1.00  0.00     0.177 C 
BRANCH   2   3
HETATM    3  C   UNL     1      43.445 -18.172   2.719  1.00  0.00    -0.027 A 
HETATM    4  C   UNL     1      43.563 -19.464   2.176  1.00  0.00     0.025 A 
HETATM    5  C   UNL     1      44.138 -20.516   2.912  1.00  0.00     0.048 A 
HETATM    6  C   UNL     1      44.585 -20.266   4.214  1.00  0.00     0.016 A 
HETATM    7  C   UNL     1      44.468 -18.992   4.767  1.00  0.00     0.001 A 
HETATM    8  C   UNL     1      43.906 -17.952   4.026  1.00  0.00     0.010 A 
BRANCH   5   9
HETATM    9  C   UNL     1      44.247 -21.893   2.295  1.00  0.00     0.417 C 
HETATM   10  F   UNL     1      44.390 -22.892   3.204  1.00  0.00    -0.166 F 
HETATM   11  F   UNL     1      43.167 -22.207   1.535  1.00  0.00    -0.166 F 
HETATM   12  F   UNL     1      45.327 -21.977   1.466  1.00  0.00    -0.166 F 
ENDBRANCH   5   9
ENDBRANCH   2   3
BRANCH   2  13
HETATM   13  O   UNL     1      43.323 -17.029   0.584  1.00  0.00    -0.389 OA
HETATM   14  H   UNL     1      42.533 -17.020   0.007  1.00  0.00     0.210 HD
ENDBRANCH   2  13
ENDBRANCH   1   2
BRANCH   1  15
HETATM   15  N   UNL     1      42.001 -14.602   2.358  1.00  0.00    -0.068 N 
HETATM   16  H   UNL     1      41.947 -14.442   1.344  1.00  0.00     0.280 HD
HETATM   17  C   UNL     1      40.643 -15.097   2.817  1.00  0.00     0.235 C 
HETATM   18  C   UNL     1      39.585 -14.028   2.567  1.00  0.00     0.037 C 
HETATM   19  C   UNL     1      39.918 -12.701   3.264  1.00  0.00     0.025 C 
HETATM   20  C   UNL     1      41.298 -12.244   2.771  1.00  0.00     0.037 C 
HETATM   21  C   UNL     1      42.376 -13.292   3.012  1.00  0.00     0.235 C 
BRANCH  19  22
HETATM   22  C   UNL     1      39.801 -12.780   4.765  1.00  0.00    -0.018 A 
HETATM   23  C   UNL     1      39.678 -11.723   5.704  1.00  0.00     0.147 A 
HETATM   24  N   UNL     1      39.628 -12.152   6.964  1.00  0.00    -0.187 NA
HETATM   25  N   UNL     1      39.606 -13.486   6.852  1.00  0.00    -0.289 N 
HETATM   26  H   UNL     1      39.508 -14.042   7.696  1.00  0.00     0.188 HD
HETATM   27  C   UNL     1      39.728 -13.910   5.558  1.00  0.00     0.118 A 
ENDBRANCH  19  22
ENDBRANCH   1  15
TORSDOF 6
ENDMDL
MODEL 6
REMARK VINA RESULT:      -7.6      2.336      4.148
REMARK  6 active torsions:
REMARK  status: ('A' for Active; 'I' for Inactive)
REMARK    1  A    between atoms: C_3  and  C_4 
REMARK    2  A    between atoms: C_9  and  C_10 
REMARK    3  A    between atoms: C_10  and  O_11 
REMARK    4  A    between atoms: C_10  and  C_12 
REMARK    5  A    between atoms: C_12  and  N_13 
REMARK    6  A    between atoms: C_17  and  C_18 
ROOT
HETATM    1  C   UNL     1      42.151 -16.035   1.439  1.00  0.00     0.271 C 
ENDROOT
BRANCH   1   2
HETATM    2  C   UNL     1      41.470 -17.331   1.956  1.00  0.00     0.177 C 
BRANCH   2   3
HETATM    3  C   UNL     1      42.464 -18.389   2.387  1.00  0.00    -0.027 A 
HETATM    4  C   UNL     1      42.942 -18.466   3.707  1.00  0.00     0.025 A 
HETATM    5  C   UNL     1      43.846 -19.471   4.099  1.00  0.00     0.048 A 
HETATM    6  C   UNL     1      44.282 -20.399   3.146  1.00  0.00     0.016 A 
HETATM    7  C   UNL     1      43.821 -20.330   1.832  1.00  0.00     0.001 A 
HETATM    8  C   UNL     1      42.917 -19.335   1.455  1.00  0.00     0.010 A 
BRANCH   5   9
HETATM    9  C   UNL     1      44.339 -19.523   5.528  1.00  0.00     0.417 C 
HETATM   10  F   UNL     1      45.206 -18.527   5.845  1.00  0.00    -0.166 F 
HETATM   11  F   UNL     1      43.325 -19.459   6.429  1.00  0.00    -0.166 F 
HETATM   12  F   UNL     1      44.995 -20.692   5.781  1.00  0.00    -0.166 F 
ENDBRANCH   5   9
ENDBRANCH   2   3
BRANCH   2  13
HETATM   13  O   UNL     1      40.570 -17.842   0.976  1.00  0.00    -0.389 OA
HETATM   14  H   UNL     1      40.832 -17.454   0.117  1.00  0.00     0.210 HD
ENDBRANCH   2  13
ENDBRANCH   1   2
BRANCH   1  15
HETATM   15  N   UNL     1      42.196 -14.884   2.462  1.00  0.00    -0.068 N 
HETATM   16  H   UNL     1      42.015 -14.016   1.942  1.00  0.00     0.280 HD
HETATM   17  C   UNL     1      41.125 -15.012   3.528  1.00  0.00     0.235 C 
HETATM   18  C   UNL     1      41.222 -13.849   4.509  1.00  0.00     0.037 C 
HETATM   19  C   UNL     1      42.606 -13.755   5.169  1.00  0.00     0.025 C 
HETATM   20  C   UNL     1      43.653 -13.631   4.054  1.00  0.00     0.037 C 
HETATM   21  C   UNL     1      43.581 -14.782   3.060  1.00  0.00     0.235 C 
BRANCH  19  22
HETATM   22  C   UNL     1      42.874 -14.881   6.136  1.00  0.00    -0.018 A 
HETATM   23  C   UNL     1      44.017 -15.105   6.945  1.00  0.00     0.147 A 
HETATM   24  N   UNL     1      43.933 -16.223   7.663  1.00  0.00    -0.187 NA
HETATM   25  N   UNL     1      42.698 -16.676   7.416  1.00  0.00    -0.289 N 
HETATM   26  H   UNL     1      42.377 -17.504   7.908  1.00  0.00     0.188 HD
HETATM   27  C   UNL     1      42.032 -15.919   6.492  1.00  0.00     0.118 A 
ENDBRANCH  19  22
ENDBRANCH   1  15
TORSDOF 6
ENDMDL
MODEL 7
REMARK VINA RESULT:      -7.6      3.906      5.326
REMARK  6 active torsions:
REMARK  status: ('A' for Active; 'I' for Inactive)
REMARK    1  A    between atoms: C_3  and  C_4 
REMARK    2  A    between atoms: C_9  and  C_10 
REMARK    3  A    between atoms: C_10  and  O_11 
REMARK    4  A    between atoms: C_10  and  C_12 
REMARK    5  A    between atoms: C_12  and  N_13 
REMARK    6  A    between atoms: C_17  and  C_18 
ROOT
HETATM    1  C   UNL     1      40.367 -16.430   1.793  1.00  0.00     0.271 C 
ENDROOT
BRANCH   1   2
HETATM    2  C   UNL     1      41.308 -16.465   3.027  1.00  0.00     0.177 C 
BRANCH   2   3
HETATM    3  C   UNL     1      42.286 -17.621   2.992  1.00  0.00    -0.027 A 
HETATM    4  C   UNL     1      42.958 -18.062   4.146  1.00  0.00     0.025 A 
HETATM    5  C   UNL     1      43.844 -19.154   4.103  1.00  0.00     0.048 A 
HETATM    6  C   UNL     1      44.066 -19.798   2.880  1.00  0.00     0.016 A 
HETATM    7  C   UNL     1      43.411 -19.367   1.727  1.00  0.00     0.001 A 
HETATM    8  C   UNL     1      42.526 -18.289   1.782  1.00  0.00     0.010 A 
BRANCH   5   9
HETATM    9  C   UNL     1      44.550 -19.600   5.364  1.00  0.00     0.417 C 
HETATM   10  F   UNL     1      45.378 -18.662   5.891  1.00  0.00    -0.166 F 
HETATM   11  F   UNL     1      43.681 -19.950   6.347  1.00  0.00    -0.166 F 
HETATM   12  F   UNL     1      45.321 -20.701   5.134  1.00  0.00    -0.166 F 
ENDBRANCH   5   9
ENDBRANCH   2   3
BRANCH   2  13
HETATM   13  O   UNL     1      40.545 -16.475   4.232  1.00  0.00    -0.389 OA
HETATM   14  H   UNL     1      40.115 -15.599   4.303  1.00  0.00     0.210 HD
ENDBRANCH   2  13
ENDBRANCH   1   2
BRANCH   1  15
HETATM   15  N   UNL     1      40.588 -15.228   0.855  1.00  0.00    -0.068 N 
HETATM   16  H   UNL     1      41.221 -14.582   1.344  1.00  0.00     0.280 HD
HETATM   17  C   UNL     1      41.254 -15.623  -0.449  1.00  0.00     0.235 C 
HETATM   18  C   UNL     1      41.443 -14.395  -1.333  1.00  0.00     0.037 C 
HETATM   19  C   UNL     1      40.119 -13.673  -1.622  1.00  0.00     0.025 C 
HETATM   20  C   UNL     1      39.484 -13.298  -0.276  1.00  0.00     0.037 C 
HETATM   21  C   UNL     1      39.279 -14.507   0.627  1.00  0.00     0.235 C 
BRANCH  19  22
HETATM   22  C   UNL     1      39.207 -14.458  -2.530  1.00  0.00    -0.018 A 
HETATM   23  C   UNL     1      39.549 -15.363  -3.567  1.00  0.00     0.147 A 
HETATM   24  N   UNL     1      38.484 -15.860  -4.193  1.00  0.00    -0.187 NA
HETATM   25  N   UNL     1      37.446 -15.374  -3.503  1.00  0.00    -0.289 N 
HETATM   26  H   UNL     1      36.509 -15.669  -3.764  1.00  0.00     0.188 HD
HETATM   27  C   UNL     1      37.825 -14.514  -2.511  1.00  0.00     0.118 A 
ENDBRANCH  19  22
ENDBRANCH   1  15
TORSDOF 6
ENDMDL
MODEL 8
REMARK VINA RESULT:      -7.5      1.597      2.326
REMARK  6 active torsions:
REMARK  status: ('A' for Active; 'I' for Inactive)
REMARK    1  A    between atoms: C_3  and  C_4 
REMARK    2  A    between atoms: C_9  and  C_10 
REMARK    3  A    between atoms: C_10  and  O_11 
REMARK    4  A    between atoms: C_10  and  C_12 
REMARK    5  A    between atoms: C_12  and  N_13 
REMARK    6  A    between atoms: C_17  and  C_18 
ROOT
HETATM    1  C   UNL     1      42.152 -17.066   6.937  1.00  0.00     0.271 C 
ENDROOT
BRANCH   1   2
HETATM    2  C   UNL     1      43.652 -17.436   6.785  1.00  0.00     0.177 C 
BRANCH   2   3
HETATM    3  C   UNL     1      43.896 -18.496   5.731  1.00  0.00    -0.027 A 
HETATM    4  C   UNL     1      43.590 -18.282   4.376  1.00  0.00     0.025 A 
HETATM    5  C   UNL     1      43.847 -19.267   3.405  1.00  0.00     0.048 A 
HETATM    6  C   UNL     1      44.403 -20.487   3.808  1.00  0.00     0.016 A 
HETATM    7  C   UNL     1      44.705 -20.715   5.149  1.00  0.00     0.001 A 
HETATM    8  C   UNL     1      44.457 -19.727   6.104  1.00  0.00     0.010 A 
BRANCH   5   9
HETATM    9  C   UNL     1      43.504 -19.001   1.956  1.00  0.00     0.417 C 
HETATM   10  F   UNL     1      42.220 -18.607   1.758  1.00  0.00    -0.166 F 
HETATM   11  F   UNL     1      44.295 -18.046   1.403  1.00  0.00    -0.166 F 
HETATM   12  F   UNL     1      43.678 -20.120   1.195  1.00  0.00    -0.166 F 
ENDBRANCH   5   9
ENDBRANCH   2   3
BRANCH   2  13
HETATM   13  O   UNL     1      44.196 -17.828   8.043  1.00  0.00    -0.389 OA
HETATM   14  H   UNL     1      45.097 -17.450   8.095  1.00  0.00     0.210 HD
ENDBRANCH   2  13
ENDBRANCH   1   2
BRANCH   1  15
HETATM   15  N   UNL     1      41.775 -15.680   6.380  1.00  0.00    -0.068 N 
HETATM   16  H   UNL     1      41.778 -15.029   7.176  1.00  0.00     0.280 HD
HETATM   17  C   UNL     1      42.780 -15.168   5.367  1.00  0.00     0.235 C 
HETATM   18  C   UNL     1      42.353 -13.798   4.852  1.00  0.00     0.037 C 
HETATM   19  C   UNL     1      40.950 -13.819   4.229  1.00  0.00     0.025 C 
HETATM   20  C   UNL     1      39.972 -14.345   5.289  1.00  0.00     0.037 C 
HETATM   21  C   UNL     1      40.373 -15.716   5.819  1.00  0.00     0.235 C 
BRANCH  19  22
HETATM   22  C   UNL     1      40.897 -14.570   2.923  1.00  0.00    -0.018 A 
HETATM   23  C   UNL     1      41.955 -14.878   2.031  1.00  0.00     0.147 A 
HETATM   24  N   UNL     1      41.546 -15.533   0.946  1.00  0.00    -0.187 NA
HETATM   25  N   UNL     1      40.245 -15.755   1.173  1.00  0.00    -0.289 N 
HETATM   26  H   UNL     1      39.721 -16.301   0.497  1.00  0.00     0.188 HD
HETATM   27  C   UNL     1      39.805 -15.181   2.333  1.00  0.00     0.118 A 
ENDBRANCH  19  22
ENDBRANCH   1  15
TORSDOF 6
ENDMDL
MODEL 9
REMARK VINA RESULT:      -7.4      2.946      4.371
REMARK  6 active torsions:
REMARK  status: ('A' for Active; 'I' for Inactive)
REMARK    1  A    between atoms: C_3  and  C_4 
REMARK    2  A    between atoms: C_9  and  C_10 
REMARK    3  A    between atoms: C_10  and  O_11 
REMARK    4  A    between atoms: C_10  and  C_12 
REMARK    5  A    between atoms: C_12  and  N_13 
REMARK    6  A    between atoms: C_17  and  C_18 
ROOT
HETATM    1  C   UNL     1      43.286 -15.900   2.114  1.00  0.00     0.271 C 
ENDROOT
BRANCH   1   2
HETATM    2  C   UNL     1      43.151 -17.398   1.726  1.00  0.00     0.177 C 
BRANCH   2   3
HETATM    3  C   UNL     1      43.741 -18.332   2.762  1.00  0.00    -0.027 A 
HETATM    4  C   UNL     1      43.910 -17.944   4.103  1.00  0.00     0.025 A 
HETATM    5  C   UNL     1      44.435 -18.832   5.060  1.00  0.00     0.048 A 
HETATM    6  C   UNL     1      44.807 -20.120   4.656  1.00  0.00     0.016 A 
HETATM    7  C   UNL     1      44.650 -20.515   3.329  1.00  0.00     0.001 A 
HETATM    8  C   UNL     1      44.119 -19.631   2.389  1.00  0.00     0.010 A 
BRANCH   5   9
HETATM    9  C   UNL     1      44.604 -18.380   6.493  1.00  0.00     0.417 C 
HETATM   10  F   UNL     1      43.836 -17.310   6.825  1.00  0.00    -0.166 F 
HETATM   11  F   UNL     1      44.311 -19.362   7.384  1.00  0.00    -0.166 F 
HETATM   12  F   UNL     1      45.893 -18.014   6.746  1.00  0.00    -0.166 F 
ENDBRANCH   5   9
ENDBRANCH   2   3
BRANCH   2  13
HETATM   13  O   UNL     1      43.722 -17.630   0.441  1.00  0.00    -0.389 OA
HETATM   14  H   UNL     1      44.579 -18.078   0.587  1.00  0.00     0.210 HD
ENDBRANCH   2  13
ENDBRANCH   1   2
BRANCH   1  15
HETATM   15  N   UNL     1      41.994 -15.077   1.945  1.00  0.00    -0.068 N 
HETATM   16  H   UNL     1      41.761 -15.092   0.943  1.00  0.00     0.280 HD
HETATM   17  C   UNL     1      40.821 -15.676   2.697  1.00  0.00     0.235 C 
HETATM   18  C   UNL     1      39.577 -14.818   2.493  1.00  0.00     0.037 C 
HETATM   19  C   UNL     1      39.791 -13.363   2.934  1.00  0.00     0.025 C 
HETATM   20  C   UNL     1      40.987 -12.804   2.150  1.00  0.00     0.037 C 
HETATM   21  C   UNL     1      42.245 -13.640   2.338  1.00  0.00     0.235 C 
BRANCH  19  22
HETATM   22  C   UNL     1      39.918 -13.213   4.429  1.00  0.00    -0.018 A 
HETATM   23  C   UNL     1      40.237 -12.055   5.183  1.00  0.00     0.147 A 
HETATM   24  N   UNL     1      40.295 -12.289   6.492  1.00  0.00    -0.187 NA
HETATM   25  N   UNL     1      39.908 -13.564   6.612  1.00  0.00    -0.289 N 
HETATM   26  H   UNL     1      39.816 -13.958   7.544  1.00  0.00     0.188 HD
HETATM   27  C   UNL     1      39.691 -14.167   5.404  1.00  0.00     0.118 A 
ENDBRANCH  19  22
ENDBRANCH   1  15
TORSDOF 6
ENDMDL
MODEL 10
REMARK VINA RESULT:      -7.3      2.105      3.123
REMARK  6 active torsions:
REMARK  status: ('A' for Active; 'I' for Inactive)
REMARK    1  A    between atoms: C_3  and  C_4 
REMARK    2  A    between atoms: C_9  and  C_10 
REMARK    3  A    between atoms: C_10  and  O_11 
REMARK    4  A    between atoms: C_10  and  C_12 
REMARK    5  A    between atoms: C_12  and  N_13 
REMARK    6  A    between atoms: C_17  and  C_18 
ROOT
HETATM    1  C   UNL     1      43.146 -16.212   4.508  1.00  0.00     0.271 C 
ENDROOT
BRANCH   1   2
HETATM    2  C   UNL     1      43.224 -16.963   5.865  1.00  0.00     0.177 C 
BRANCH   2   3
HETATM    3  C   UNL     1      43.598 -18.423   5.711  1.00  0.00    -0.027 A 
HETATM    4  C   UNL     1      43.867 -18.994   4.455  1.00  0.00     0.025 A 
HETATM    5  C   UNL     1      44.240 -20.345   4.331  1.00  0.00     0.048 A 
HETATM    6  C   UNL     1      44.327 -21.132   5.486  1.00  0.00     0.016 A 
HETATM    7  C   UNL     1      44.057 -20.580   6.737  1.00  0.00     0.001 A 
HETATM    8  C   UNL     1      43.698 -19.236   6.851  1.00  0.00     0.010 A 
BRANCH   5   9
HETATM    9  C   UNL     1      44.521 -20.925   2.963  1.00  0.00     0.417 C 
HETATM   10  F   UNL     1      45.665 -20.464   2.396  1.00  0.00    -0.166 F 
HETATM   11  F   UNL     1      44.614 -22.280   2.984  1.00  0.00    -0.166 F 
HETATM   12  F   UNL     1      43.518 -20.630   2.087  1.00  0.00    -0.166 F 
ENDBRANCH   5   9
ENDBRANCH   2   3
BRANCH   2  13
HETATM   13  O   UNL     1      41.999 -16.820   6.581  1.00  0.00    -0.389 OA
HETATM   14  H   UNL     1      41.324 -17.337   6.097  1.00  0.00     0.210 HD
ENDBRANCH   2  13
ENDBRANCH   1   2
BRANCH   1  15
HETATM   15  N   UNL     1      41.727 -16.103   3.918  1.00  0.00    -0.068 N 
HETATM   16  H   UNL     1      41.081 -16.476   4.626  1.00  0.00     0.280 HD
HETATM   17  C   UNL     1      41.322 -14.669   3.639  1.00  0.00     0.235 C 
HETATM   18  C   UNL     1      39.914 -14.627   3.056  1.00  0.00     0.037 C 
HETATM   19  C   UNL     1      39.786 -15.464   1.775  1.00  0.00     0.025 C 
HETATM   20  C   UNL     1      40.208 -16.902   2.108  1.00  0.00     0.037 C 
HETATM   21  C   UNL     1      41.614 -16.974   2.688  1.00  0.00     0.235 C 
BRANCH  19  22
HETATM   22  C   UNL     1      40.525 -14.866   0.605  1.00  0.00    -0.018 A 
HETATM   23  C   UNL     1      40.698 -13.500   0.267  1.00  0.00     0.147 A 
HETATM   24  N   UNL     1      41.386 -13.327  -0.860  1.00  0.00    -0.187 NA
HETATM   25  N   UNL     1      41.759 -14.565  -1.205  1.00  0.00    -0.289 N 
HETATM   26  H   UNL     1      42.357 -14.683  -2.018  1.00  0.00     0.188 HD
HETATM   27  C   UNL     1      41.252 -15.523  -0.371  1.00  0.00     0.118 A 
ENDBRANCH  19  22
ENDBRANCH   1  15
TORSDOF 6
ENDMDL
