MODEL 1
REMARK VINA RESULT:      -8.7      0.000      0.000
REMARK  8 active torsions:
REMARK  status: ('A' for Active; 'I' for Inactive)
REMARK    1  A    between atoms: C_5  and  O_6 
REMARK    2  A    between atoms: O_6  and  C_7 
REMARK    3  A    between atoms: C_7  and  C_8 
REMARK    4  A    between atoms: C_12  and  S_13 
REMARK    5  A    between atoms: S_13  and  C_14 
REMARK    6  A    between atoms: C_14  and  C_15 
REMARK       I    between atoms: C_15  and  N_16 
REMARK    7  A    between atoms: N_16  and  C_17 
REMARK    8  A    between atoms: C_20  and  C_21 
REMARK       I    between atoms: C_21  and  N_22 
ROOT
HETATM    1  S   UNL     1      40.456 -13.276   5.471  1.00  0.00    -0.081 SA
ENDROOT
BRANCH   1   2
HETATM    2  C   UNL     1      40.915 -14.884   5.862  1.00  0.00     0.185 A 
HETATM    3  N   UNL     1      40.008 -15.865   6.100  1.00  0.00    -0.254 N 
HETATM    4  N   UNL     1      40.623 -17.039   6.335  1.00  0.00    -0.155 NA
HETATM    5  H   UNL     1      38.997 -15.809   6.114  1.00  0.00     0.191 HD
HETATM    6  C   UNL     1      41.915 -16.701   6.180  1.00  0.00     0.172 A 
HETATM    7  N   UNL     1      42.128 -15.366   5.916  1.00  0.00    -0.204 NA
BRANCH   6   8
HETATM    8  C   UNL     1      43.046 -17.676   6.280  1.00  0.00     0.258 C 
BRANCH   8   9
HETATM    9  O   UNL     1      43.957 -17.524   5.185  1.00  0.00    -0.344 OA
BRANCH   9  10
HETATM   10  C   UNL     1      43.964 -18.511   4.239  1.00  0.00     0.069 A 
HETATM   11  C   UNL     1      44.622 -19.680   4.625  1.00  0.00     0.037 A 
HETATM   12  C   UNL     1      44.697 -20.776   3.761  1.00  0.00     0.009 A 
HETATM   13  C   UNL     1      44.116 -20.713   2.491  1.00  0.00    -0.062 A 
HETATM   14  C   UNL     1      44.159 -21.896   1.571  1.00  0.00     0.048 C 
HETATM   15  C   UNL     1      43.443 -19.546   2.113  1.00  0.00     0.009 A 
HETATM   16  C   UNL     1      43.371 -18.448   2.979  1.00  0.00     0.037 A 
ENDBRANCH   9  10
ENDBRANCH   8   9
ENDBRANCH   6   8
ENDBRANCH   1   2
BRANCH   1  17
HETATM   17  C   UNL     1      41.953 -12.690   4.619  1.00  0.00     0.185 C 
BRANCH  17  18
HETATM   18  C   UNL     1      42.236 -13.286   3.242  1.00  0.00     0.231 C 
HETATM   19  N   UNL     1      41.133 -13.571   2.465  1.00  0.00    -0.327 N 
HETATM   20  H   UNL     1      40.238 -13.458   2.928  1.00  0.00     0.169 HD
HETATM   21  O   UNL     1      43.408 -13.427   2.890  1.00  0.00    -0.272 OA
BRANCH  19  22
HETATM   22  C   UNL     1      41.095 -14.153   1.184  1.00  0.00     0.034 A 
HETATM   23  C   UNL     1      41.533 -15.447   0.897  1.00  0.00     0.030 A 
HETATM   24  C   UNL     1      41.444 -15.959  -0.404  1.00  0.00     0.019 A 
HETATM   25  C   UNL     1      40.910 -15.178  -1.434  1.00  0.00     0.032 A 
HETATM   26  C   UNL     1      40.489 -13.875  -1.156  1.00  0.00     0.019 A 
HETATM   27  C   UNL     1      40.578 -13.369   0.145  1.00  0.00     0.030 A 
BRANCH  25  28
HETATM   28  C   UNL     1      40.789 -15.677  -2.829  1.00  0.00     0.249 C 
HETATM   29  N   UNL     1      39.736 -16.498  -3.119  1.00  0.00    -0.366 N 
HETATM   30  H   UNL     1      38.938 -16.596  -2.508  1.00  0.00     0.159 HD
HETATM   31  H   UNL     1      39.609 -16.735  -4.095  1.00  0.00     0.159 HD
HETATM   32  O   UNL     1      41.582 -15.343  -3.702  1.00  0.00    -0.268 OA
ENDBRANCH  25  28
ENDBRANCH  19  22
ENDBRANCH  17  18
ENDBRANCH   1  17
TORSDOF 8
ENDMDL
MODEL 2
REMARK VINA RESULT:      -8.5      6.071      9.605
REMARK  8 active torsions:
REMARK  status: ('A' for Active; 'I' for Inactive)
REMARK    1  A    between atoms: C_5  and  O_6 
REMARK    2  A    between atoms: O_6  and  C_7 
REMARK    3  A    between atoms: C_7  and  C_8 
REMARK    4  A    between atoms: C_12  and  S_13 
REMARK    5  A    between atoms: S_13  and  C_14 
REMARK    6  A    between atoms: C_14  and  C_15 
REMARK       I    between atoms: C_15  and  N_16 
REMARK    7  A    between atoms: N_16  and  C_17 
REMARK    8  A    between atoms: C_20  and  C_21 
REMARK       I    between atoms: C_21  and  N_22 
ROOT
HETATM    1  S   UNL     1      44.787 -14.479   6.807  1.00  0.00    -0.081 SA
ENDROOT
BRANCH   1   2
HETATM    2  C   UNL     1      44.476 -13.179   7.887  1.00  0.00     0.185 A 
HETATM    3  N   UNL     1      43.490 -12.272   7.672  1.00  0.00    -0.254 N 
HETATM    4  N   UNL     1      43.423 -11.388   8.685  1.00  0.00    -0.155 NA
HETATM    5  H   UNL     1      42.847 -12.200   6.892  1.00  0.00     0.191 HD
HETATM    6  C   UNL     1      44.382 -11.850   9.507  1.00  0.00     0.172 A 
HETATM    7  N   UNL     1      45.070 -12.941   9.025  1.00  0.00    -0.204 NA
BRANCH   6   8
HETATM    8  C   UNL     1      44.692 -11.247  10.842  1.00  0.00     0.258 C 
BRANCH   8   9
HETATM    9  O   UNL     1      43.873 -10.100  11.092  1.00  0.00    -0.344 OA
BRANCH   9  10
HETATM   10  C   UNL     1      43.184 -10.073  12.273  1.00  0.00     0.069 A 
HETATM   11  C   UNL     1      43.737  -9.241  13.249  1.00  0.00     0.037 A 
HETATM   12  C   UNL     1      43.131  -9.108  14.501  1.00  0.00     0.009 A 
HETATM   13  C   UNL     1      41.961  -9.813  14.796  1.00  0.00    -0.062 A 
HETATM   14  C   UNL     1      41.283  -9.647  16.123  1.00  0.00     0.048 C 
HETATM   15  C   UNL     1      41.400 -10.633  13.811  1.00  0.00     0.009 A 
HETATM   16  C   UNL     1      42.010 -10.768  12.559  1.00  0.00     0.037 A 
ENDBRANCH   9  10
ENDBRANCH   8   9
ENDBRANCH   6   8
ENDBRANCH   1   2
BRANCH   1  17
HETATM   17  C   UNL     1      43.094 -14.926   6.314  1.00  0.00     0.185 C 
BRANCH  17  18
HETATM   18  C   UNL     1      42.906 -16.302   5.678  1.00  0.00     0.231 C 
HETATM   19  N   UNL     1      44.060 -17.000   5.389  1.00  0.00    -0.327 N 
HETATM   20  H   UNL     1      44.922 -16.485   5.527  1.00  0.00     0.169 HD
HETATM   21  O   UNL     1      41.760 -16.723   5.511  1.00  0.00    -0.272 OA
BRANCH  19  22
HETATM   22  C   UNL     1      44.186 -18.260   4.775  1.00  0.00     0.034 A 
HETATM   23  C   UNL     1      44.619 -19.413   5.431  1.00  0.00     0.030 A 
HETATM   24  C   UNL     1      44.699 -20.636   4.751  1.00  0.00     0.019 A 
HETATM   25  C   UNL     1      44.341 -20.715   3.401  1.00  0.00     0.032 A 
HETATM   26  C   UNL     1      43.927 -19.559   2.734  1.00  0.00     0.019 A 
HETATM   27  C   UNL     1      43.846 -18.342   3.418  1.00  0.00     0.030 A 
BRANCH  25  28
HETATM   28  C   UNL     1      44.404 -21.989   2.636  1.00  0.00     0.249 C 
HETATM   29  N   UNL     1      44.055 -21.952   1.315  1.00  0.00    -0.366 N 
HETATM   30  H   UNL     1      43.977 -21.088   0.797  1.00  0.00     0.159 HD
HETATM   31  H   UNL     1      44.211 -22.802   0.788  1.00  0.00     0.159 HD
HETATM   32  O   UNL     1      44.785 -23.031   3.155  1.00  0.00    -0.268 OA
ENDBRANCH  25  28
ENDBRANCH  19  22
ENDBRANCH  17  18
ENDBRANCH   1  17
TORSDOF 8
ENDMDL
MODEL 3
REMARK VINA RESULT:      -8.4      4.788      8.651
REMARK  8 active torsions:
REMARK  status: ('A' for Active; 'I' for Inactive)
REMARK    1  A    between atoms: C_5  and  O_6 
REMARK    2  A    between atoms: O_6  and  C_7 
REMARK    3  A    between atoms: C_7  and  C_8 
REMARK    4  A    between atoms: C_12  and  S_13 
REMARK    5  A    between atoms: S_13  and  C_14 
REMARK    6  A    between atoms: C_14  and  C_15 
REMARK       I    between atoms: C_15  and  N_16 
REMARK    7  A    between atoms: N_16  and  C_17 
REMARK    8  A    between atoms: C_20  and  C_21 
REMARK       I    between atoms: C_21  and  N_22 
ROOT
HETATM    1  S   UNL     1      40.188 -14.188   4.848  1.00  0.00    -0.081 SA
ENDROOT
BRANCH   1   2
HETATM    2  C   UNL     1      40.089 -12.910   5.993  1.00  0.00     0.185 A 
HETATM    3  N   UNL     1      39.190 -12.909   7.009  1.00  0.00    -0.254 N 
HETATM    4  N   UNL     1      39.351 -11.824   7.789  1.00  0.00    -0.155 NA
HETATM    5  H   UNL     1      38.471 -13.589   7.227  1.00  0.00     0.191 HD
HETATM    6  C   UNL     1      40.404 -11.226   7.203  1.00  0.00     0.172 A 
HETATM    7  N   UNL     1      40.863 -11.861   6.071  1.00  0.00    -0.204 NA
BRANCH   6   8
HETATM    8  C   UNL     1      41.042  -9.975   7.721  1.00  0.00     0.258 C 
BRANCH   8   9
HETATM    9  O   UNL     1      42.330 -10.248   8.284  1.00  0.00    -0.344 OA
BRANCH   9  10
HETATM   10  C   UNL     1      42.495  -9.991   9.616  1.00  0.00     0.069 A 
HETATM   11  C   UNL     1      43.633 -10.568  10.183  1.00  0.00     0.037 A 
HETATM   12  C   UNL     1      43.933 -10.379  11.534  1.00  0.00     0.009 A 
HETATM   13  C   UNL     1      43.090  -9.610  12.342  1.00  0.00    -0.062 A 
HETATM   14  C   UNL     1      43.424  -9.369  13.784  1.00  0.00     0.048 C 
HETATM   15  C   UNL     1      41.960  -9.018  11.768  1.00  0.00     0.009 A 
HETATM   16  C   UNL     1      41.659  -9.211  10.415  1.00  0.00     0.037 A 
ENDBRANCH   9  10
ENDBRANCH   8   9
ENDBRANCH   6   8
ENDBRANCH   1   2
BRANCH   1  17
HETATM   17  C   UNL     1      41.846 -14.842   5.209  1.00  0.00     0.185 C 
BRANCH  17  18
HETATM   18  C   UNL     1      42.040 -16.348   5.045  1.00  0.00     0.231 C 
HETATM   19  N   UNL     1      43.099 -16.742   4.254  1.00  0.00    -0.327 N 
HETATM   20  H   UNL     1      43.579 -15.992   3.771  1.00  0.00     0.169 HD
HETATM   21  O   UNL     1      41.289 -17.110   5.657  1.00  0.00    -0.272 OA
BRANCH  19  22
HETATM   22  C   UNL     1      43.487 -18.049   3.904  1.00  0.00     0.034 A 
HETATM   23  C   UNL     1      44.305 -18.862   4.691  1.00  0.00     0.030 A 
HETATM   24  C   UNL     1      44.630 -20.161   4.279  1.00  0.00     0.019 A 
HETATM   25  C   UNL     1      44.135 -20.661   3.071  1.00  0.00     0.032 A 
HETATM   26  C   UNL     1      43.333 -19.844   2.269  1.00  0.00     0.019 A 
HETATM   27  C   UNL     1      43.008 -18.549   2.687  1.00  0.00     0.030 A 
BRANCH  25  28
HETATM   28  C   UNL     1      44.446 -22.034   2.591  1.00  0.00     0.249 C 
HETATM   29  N   UNL     1      44.782 -22.971   3.528  1.00  0.00    -0.366 N 
HETATM   30  H   UNL     1      44.614 -22.838   4.515  1.00  0.00     0.159 HD
HETATM   31  H   UNL     1      44.880 -23.921   3.194  1.00  0.00     0.159 HD
HETATM   32  O   UNL     1      44.374 -22.332   1.405  1.00  0.00    -0.268 OA
ENDBRANCH  25  28
ENDBRANCH  19  22
ENDBRANCH  17  18
ENDBRANCH   1  17
TORSDOF 8
ENDMDL
MODEL 4
REMARK VINA RESULT:      -8.4      2.514      4.980
REMARK  8 active torsions:
REMARK  status: ('A' for Active; 'I' for Inactive)
REMARK    1  A    between atoms: C_5  and  O_6 
REMARK    2  A    between atoms: O_6  and  C_7 
REMARK    3  A    between atoms: C_7  and  C_8 
REMARK    4  A    between atoms: C_12  and  S_13 
REMARK    5  A    between atoms: S_13  and  C_14 
REMARK    6  A    between atoms: C_14  and  C_15 
REMARK       I    between atoms: C_15  and  N_16 
REMARK    7  A    between atoms: N_16  and  C_17 
REMARK    8  A    between atoms: C_20  and  C_21 
REMARK       I    between atoms: C_21  and  N_22 
ROOT
HETATM    1  S   UNL     1      41.366 -12.276   0.423  1.00  0.00    -0.081 SA
ENDROOT
BRANCH   1   2
HETATM    2  C   UNL     1      41.839 -12.519   2.056  1.00  0.00     0.185 A 
HETATM    3  N   UNL     1      41.113 -12.051   3.103  1.00  0.00    -0.254 N 
HETATM    4  N   UNL     1      41.670 -12.415   4.273  1.00  0.00    -0.155 NA
HETATM    5  H   UNL     1      40.260 -11.503   3.095  1.00  0.00     0.191 HD
HETATM    6  C   UNL     1      42.720 -13.144   3.854  1.00  0.00     0.172 A 
HETATM    7  N   UNL     1      42.866 -13.201   2.487  1.00  0.00    -0.204 NA
BRANCH   6   8
HETATM    8  C   UNL     1      43.663 -13.847   4.780  1.00  0.00     0.258 C 
BRANCH   8   9
HETATM    9  O   UNL     1      42.952 -14.605   5.765  1.00  0.00    -0.344 OA
BRANCH   9  10
HETATM   10  C   UNL     1      43.284 -15.925   5.895  1.00  0.00     0.069 A 
HETATM   11  C   UNL     1      42.388 -16.811   5.294  1.00  0.00     0.037 A 
HETATM   12  C   UNL     1      42.608 -18.190   5.339  1.00  0.00     0.009 A 
HETATM   13  C   UNL     1      43.732 -18.703   5.994  1.00  0.00    -0.062 A 
HETATM   14  C   UNL     1      43.997 -20.179   6.015  1.00  0.00     0.048 C 
HETATM   15  C   UNL     1      44.637 -17.812   6.581  1.00  0.00     0.009 A 
HETATM   16  C   UNL     1      44.413 -16.431   6.538  1.00  0.00     0.037 A 
ENDBRANCH   9  10
ENDBRANCH   8   9
ENDBRANCH   6   8
ENDBRANCH   1   2
BRANCH   1  17
HETATM   17  C   UNL     1      40.347 -13.756   0.138  1.00  0.00     0.185 C 
BRANCH  17  18
HETATM   18  C   UNL     1      41.082 -15.093   0.076  1.00  0.00     0.231 C 
HETATM   19  N   UNL     1      41.536 -15.592   1.279  1.00  0.00    -0.327 N 
HETATM   20  H   UNL     1      41.434 -14.968   2.071  1.00  0.00     0.169 HD
HETATM   21  O   UNL     1      41.179 -15.664  -1.012  1.00  0.00    -0.272 OA
BRANCH  19  22
HETATM   22  C   UNL     1      42.268 -16.771   1.513  1.00  0.00     0.034 A 
HETATM   23  C   UNL     1      43.648 -16.810   1.720  1.00  0.00     0.030 A 
HETATM   24  C   UNL     1      44.300 -18.026   1.966  1.00  0.00     0.019 A 
HETATM   25  C   UNL     1      43.572 -19.219   2.010  1.00  0.00     0.032 A 
HETATM   26  C   UNL     1      42.193 -19.188   1.783  1.00  0.00     0.019 A 
HETATM   27  C   UNL     1      41.547 -17.972   1.540  1.00  0.00     0.030 A 
BRANCH  25  28
HETATM   28  C   UNL     1      44.216 -20.534   2.272  1.00  0.00     0.249 C 
HETATM   29  N   UNL     1      43.569 -21.655   1.833  1.00  0.00    -0.366 N 
HETATM   30  H   UNL     1      42.813 -21.619   1.163  1.00  0.00     0.159 HD
HETATM   31  H   UNL     1      44.075 -22.527   1.921  1.00  0.00     0.159 HD
HETATM   32  O   UNL     1      45.303 -20.617   2.831  1.00  0.00    -0.268 OA
ENDBRANCH  25  28
ENDBRANCH  19  22
ENDBRANCH  17  18
ENDBRANCH   1  17
TORSDOF 8
ENDMDL
MODEL 5
REMARK VINA RESULT:      -8.3      2.520      7.117
REMARK  8 active torsions:
REMARK  status: ('A' for Active; 'I' for Inactive)
REMARK    1  A    between atoms: C_5  and  O_6 
REMARK    2  A    between atoms: O_6  and  C_7 
REMARK    3  A    between atoms: C_7  and  C_8 
REMARK    4  A    between atoms: C_12  and  S_13 
REMARK    5  A    between atoms: S_13  and  C_14 
REMARK    6  A    between atoms: C_14  and  C_15 
REMARK       I    between atoms: C_15  and  N_16 
REMARK    7  A    between atoms: N_16  and  C_17 
REMARK    8  A    between atoms: C_20  and  C_21 
REMARK       I    between atoms: C_21  and  N_22 
ROOT
HETATM    1  S   UNL     1      41.024 -14.017   5.180  1.00  0.00    -0.081 SA
ENDROOT
BRANCH   1   2
HETATM    2  C   UNL     1      40.849 -14.756   3.639  1.00  0.00     0.185 A 
HETATM    3  N   UNL     1      39.664 -15.250   3.197  1.00  0.00    -0.254 N 
HETATM    4  N   UNL     1      39.783 -15.731   1.946  1.00  0.00    -0.155 NA
HETATM    5  H   UNL     1      38.771 -15.288   3.674  1.00  0.00     0.191 HD
HETATM    6  C   UNL     1      41.071 -15.454   1.673  1.00  0.00     0.172 A 
HETATM    7  N   UNL     1      41.763 -14.877   2.714  1.00  0.00    -0.204 NA
BRANCH   6   8
HETATM    8  C   UNL     1      41.719 -15.738   0.354  1.00  0.00     0.258 C 
BRANCH   8   9
HETATM    9  O   UNL     1      41.545 -14.643  -0.553  1.00  0.00    -0.344 OA
BRANCH   9  10
HETATM   10  C   UNL     1      40.563 -14.767  -1.496  1.00  0.00     0.069 A 
HETATM   11  C   UNL     1      39.411 -14.023  -1.237  1.00  0.00     0.037 A 
HETATM   12  C   UNL     1      38.331 -14.046  -2.122  1.00  0.00     0.009 A 
HETATM   13  C   UNL     1      38.388 -14.823  -3.283  1.00  0.00    -0.062 A 
HETATM   14  C   UNL     1      37.249 -14.824  -4.259  1.00  0.00     0.048 C 
HETATM   15  C   UNL     1      39.550 -15.555  -3.549  1.00  0.00     0.009 A 
HETATM   16  C   UNL     1      40.630 -15.533  -2.659  1.00  0.00     0.037 A 
ENDBRANCH   9  10
ENDBRANCH   8   9
ENDBRANCH   6   8
ENDBRANCH   1   2
BRANCH   1  17
HETATM   17  C   UNL     1      42.566 -14.791   5.756  1.00  0.00     0.185 C 
BRANCH  17  18
HETATM   18  C   UNL     1      42.679 -16.305   5.588  1.00  0.00     0.231 C 
HETATM   19  N   UNL     1      43.571 -16.745   4.633  1.00  0.00    -0.327 N 
HETATM   20  H   UNL     1      43.983 -16.018   4.060  1.00  0.00     0.169 HD
HETATM   21  O   UNL     1      42.021 -17.033   6.334  1.00  0.00    -0.272 OA
BRANCH  19  22
HETATM   22  C   UNL     1      43.849 -18.068   4.243  1.00  0.00     0.034 A 
HETATM   23  C   UNL     1      44.539 -18.990   5.033  1.00  0.00     0.030 A 
HETATM   24  C   UNL     1      44.759 -20.297   4.578  1.00  0.00     0.019 A 
HETATM   25  C   UNL     1      44.284 -20.697   3.325  1.00  0.00     0.032 A 
HETATM   26  C   UNL     1      43.611 -19.772   2.522  1.00  0.00     0.019 A 
HETATM   27  C   UNL     1      43.391 -18.469   2.981  1.00  0.00     0.030 A 
BRANCH  25  28
HETATM   28  C   UNL     1      44.487 -22.073   2.800  1.00  0.00     0.249 C 
HETATM   29  N   UNL     1      44.839 -23.046   3.692  1.00  0.00    -0.366 N 
HETATM   30  H   UNL     1      44.750 -22.926   4.691  1.00  0.00     0.159 HD
HETATM   31  H   UNL     1      44.862 -23.993   3.335  1.00  0.00     0.159 HD
HETATM   32  O   UNL     1      44.314 -22.341   1.616  1.00  0.00    -0.268 OA
ENDBRANCH  25  28
ENDBRANCH  19  22
ENDBRANCH  17  18
ENDBRANCH   1  17
TORSDOF 8
ENDMDL
MODEL 6
REMARK VINA RESULT:      -8.3      2.680      5.838
REMARK  8 active torsions:
REMARK  status: ('A' for Active; 'I' for Inactive)
REMARK    1  A    between atoms: C_5  and  O_6 
REMARK    2  A    between atoms: O_6  and  C_7 
REMARK    3  A    between atoms: C_7  and  C_8 
REMARK    4  A    between atoms: C_12  and  S_13 
REMARK    5  A    between atoms: S_13  and  C_14 
REMARK    6  A    between atoms: C_14  and  C_15 
REMARK       I    between atoms: C_15  and  N_16 
REMARK    7  A    between atoms: N_16  and  C_17 
REMARK    8  A    between atoms: C_20  and  C_21 
REMARK       I    between atoms: C_21  and  N_22 
ROOT
HETATM    1  S   UNL     1      39.655 -12.490   2.813  1.00  0.00    -0.081 SA
ENDROOT
BRANCH   1   2
HETATM    2  C   UNL     1      40.151 -14.100   2.477  1.00  0.00     0.185 A 
HETATM    3  N   UNL     1      39.279 -15.140   2.439  1.00  0.00    -0.254 N 
HETATM    4  N   UNL     1      39.910 -16.282   2.110  1.00  0.00    -0.155 NA
HETATM    5  H   UNL     1      38.281 -15.143   2.616  1.00  0.00     0.191 HD
HETATM    6  C   UNL     1      41.168 -15.847   1.918  1.00  0.00     0.172 A 
HETATM    7  N   UNL     1      41.353 -14.506   2.168  1.00  0.00    -0.204 NA
BRANCH   6   8
HETATM    8  C   UNL     1      42.292 -16.730   1.470  1.00  0.00     0.258 C 
BRANCH   8   9
HETATM    9  O   UNL     1      43.103 -17.135   2.578  1.00  0.00    -0.344 OA
BRANCH   9  10
HETATM   10  C   UNL     1      43.455 -18.455   2.642  1.00  0.00     0.069 A 
HETATM   11  C   UNL     1      44.168 -18.810   3.789  1.00  0.00     0.037 A 
HETATM   12  C   UNL     1      44.584 -20.129   3.991  1.00  0.00     0.009 A 
HETATM   13  C   UNL     1      44.294 -21.113   3.042  1.00  0.00    -0.062 A 
HETATM   14  C   UNL     1      44.702 -22.538   3.269  1.00  0.00     0.048 C 
HETATM   15  C   UNL     1      43.564 -20.757   1.902  1.00  0.00     0.009 A 
HETATM   16  C   UNL     1      43.152 -19.436   1.699  1.00  0.00     0.037 A 
ENDBRANCH   9  10
ENDBRANCH   8   9
ENDBRANCH   6   8
ENDBRANCH   1   2
BRANCH   1  17
HETATM   17  C   UNL     1      40.558 -12.170   4.359  1.00  0.00     0.185 C 
BRANCH  17  18
HETATM   18  C   UNL     1      40.741 -13.355   5.304  1.00  0.00     0.231 C 
HETATM   19  N   UNL     1      41.850 -14.144   5.079  1.00  0.00    -0.327 N 
HETATM   20  H   UNL     1      42.374 -13.924   4.240  1.00  0.00     0.169 HD
HETATM   21  O   UNL     1      39.938 -13.506   6.226  1.00  0.00    -0.272 OA
BRANCH  19  22
HETATM   22  C   UNL     1      42.244 -15.309   5.764  1.00  0.00     0.034 A 
HETATM   23  C   UNL     1      41.532 -16.509   5.745  1.00  0.00     0.030 A 
HETATM   24  C   UNL     1      42.004 -17.631   6.440  1.00  0.00     0.019 A 
HETATM   25  C   UNL     1      43.200 -17.561   7.162  1.00  0.00     0.032 A 
HETATM   26  C   UNL     1      43.905 -16.356   7.201  1.00  0.00     0.019 A 
HETATM   27  C   UNL     1      43.432 -15.239   6.503  1.00  0.00     0.030 A 
BRANCH  25  28
HETATM   28  C   UNL     1      43.745 -18.724   7.911  1.00  0.00     0.249 C 
HETATM   29  N   UNL     1      44.120 -18.521   9.210  1.00  0.00    -0.366 N 
HETATM   30  H   UNL     1      43.843 -17.704   9.735  1.00  0.00     0.159 HD
HETATM   31  H   UNL     1      44.381 -19.347   9.734  1.00  0.00     0.159 HD
HETATM   32  O   UNL     1      43.827 -19.835   7.402  1.00  0.00    -0.268 OA
ENDBRANCH  25  28
ENDBRANCH  19  22
ENDBRANCH  17  18
ENDBRANCH   1  17
TORSDOF 8
ENDMDL
MODEL 7
REMARK VINA RESULT:      -8.2      2.647      5.063
REMARK  8 active torsions:
REMARK  status: ('A' for Active; 'I' for Inactive)
REMARK    1  A    between atoms: C_5  and  O_6 
REMARK    2  A    between atoms: O_6  and  C_7 
REMARK    3  A    between atoms: C_7  and  C_8 
REMARK    4  A    between atoms: C_12  and  S_13 
REMARK    5  A    between atoms: S_13  and  C_14 
REMARK    6  A    between atoms: C_14  and  C_15 
REMARK       I    between atoms: C_15  and  N_16 
REMARK    7  A    between atoms: N_16  and  C_17 
REMARK    8  A    between atoms: C_20  and  C_21 
REMARK       I    between atoms: C_21  and  N_22 
ROOT
HETATM    1  S   UNL     1      39.355 -12.924   0.543  1.00  0.00    -0.081 SA
ENDROOT
BRANCH   1   2
HETATM    2  C   UNL     1      39.450 -12.846   2.257  1.00  0.00     0.185 A 
HETATM    3  N   UNL     1      38.816 -11.889   2.981  1.00  0.00    -0.254 N 
HETATM    4  N   UNL     1      39.010 -12.077   4.298  1.00  0.00    -0.155 NA
HETATM    5  H   UNL     1      38.252 -11.111   2.656  1.00  0.00     0.191 HD
HETATM    6  C   UNL     1      39.745 -13.204   4.303  1.00  0.00     0.172 A 
HETATM    7  N   UNL     1      40.058 -13.685   3.052  1.00  0.00    -0.204 NA
BRANCH   6   8
HETATM    8  C   UNL     1      40.196 -13.896   5.551  1.00  0.00     0.258 C 
BRANCH   8   9
HETATM    9  O   UNL     1      40.145 -15.319   5.399  1.00  0.00    -0.344 OA
BRANCH   9  10
HETATM   10  C   UNL     1      41.330 -15.996   5.483  1.00  0.00     0.069 A 
HETATM   11  C   UNL     1      41.214 -17.383   5.368  1.00  0.00     0.037 A 
HETATM   12  C   UNL     1      42.345 -18.201   5.424  1.00  0.00     0.009 A 
HETATM   13  C   UNL     1      43.613 -17.639   5.602  1.00  0.00    -0.062 A 
HETATM   14  C   UNL     1      44.837 -18.506   5.625  1.00  0.00     0.048 C 
HETATM   15  C   UNL     1      43.728 -16.249   5.700  1.00  0.00     0.009 A 
HETATM   16  C   UNL     1      42.593 -15.431   5.647  1.00  0.00     0.037 A 
ENDBRANCH   9  10
ENDBRANCH   8   9
ENDBRANCH   6   8
ENDBRANCH   1   2
BRANCH   1  17
HETATM   17  C   UNL     1      41.081 -13.315   0.123  1.00  0.00     0.185 C 
BRANCH  17  18
HETATM   18  C   UNL     1      41.464 -14.793   0.104  1.00  0.00     0.231 C 
HETATM   19  N   UNL     1      41.942 -15.312   1.289  1.00  0.00    -0.327 N 
HETATM   20  H   UNL     1      42.096 -14.633   2.026  1.00  0.00     0.169 HD
HETATM   21  O   UNL     1      41.279 -15.438  -0.930  1.00  0.00    -0.272 OA
BRANCH  19  22
HETATM   22  C   UNL     1      42.398 -16.617   1.548  1.00  0.00     0.034 A 
HETATM   23  C   UNL     1      41.568 -17.736   1.633  1.00  0.00     0.030 A 
HETATM   24  C   UNL     1      42.105 -19.008   1.876  1.00  0.00     0.019 A 
HETATM   25  C   UNL     1      43.485 -19.172   2.034  1.00  0.00     0.032 A 
HETATM   26  C   UNL     1      44.318 -18.052   1.969  1.00  0.00     0.019 A 
HETATM   27  C   UNL     1      43.778 -16.785   1.724  1.00  0.00     0.030 A 
BRANCH  25  28
HETATM   28  C   UNL     1      44.103 -20.500   2.288  1.00  0.00     0.249 C 
HETATM   29  N   UNL     1      43.561 -21.583   1.655  1.00  0.00    -0.366 N 
HETATM   30  H   UNL     1      42.925 -21.495   0.876  1.00  0.00     0.159 HD
HETATM   31  H   UNL     1      44.064 -22.456   1.753  1.00  0.00     0.159 HD
HETATM   32  O   UNL     1      45.085 -20.623   3.010  1.00  0.00    -0.268 OA
ENDBRANCH  25  28
ENDBRANCH  19  22
ENDBRANCH  17  18
ENDBRANCH   1  17
TORSDOF 8
ENDMDL
MODEL 8
REMARK VINA RESULT:      -8.1      2.563      6.057
REMARK  8 active torsions:
REMARK  status: ('A' for Active; 'I' for Inactive)
REMARK    1  A    between atoms: C_5  and  O_6 
REMARK    2  A    between atoms: O_6  and  C_7 
REMARK    3  A    between atoms: C_7  and  C_8 
REMARK    4  A    between atoms: C_12  and  S_13 
REMARK    5  A    between atoms: S_13  and  C_14 
REMARK    6  A    between atoms: C_14  and  C_15 
REMARK       I    between atoms: C_15  and  N_16 
REMARK    7  A    between atoms: N_16  and  C_17 
REMARK    8  A    between atoms: C_20  and  C_21 
REMARK       I    between atoms: C_21  and  N_22 
ROOT
HETATM    1  S   UNL     1      40.191 -12.642   5.946  1.00  0.00    -0.081 SA
ENDROOT
BRANCH   1   2
HETATM    2  C   UNL     1      39.838 -13.173   4.351  1.00  0.00     0.185 A 
HETATM    3  N   UNL     1      39.260 -12.368   3.425  1.00  0.00    -0.254 N 
HETATM    4  N   UNL     1      39.135 -13.005   2.246  1.00  0.00    -0.155 NA
HETATM    5  H   UNL     1      38.941 -11.410   3.521  1.00  0.00     0.191 HD
HETATM    6  C   UNL     1      39.703 -14.193   2.523  1.00  0.00     0.172 A 
HETATM    7  N   UNL     1      40.121 -14.335   3.827  1.00  0.00    -0.204 NA
BRANCH   6   8
HETATM    8  C   UNL     1      39.880 -15.283   1.512  1.00  0.00     0.258 C 
BRANCH   8   9
HETATM    9  O   UNL     1      41.240 -15.361   1.070  1.00  0.00    -0.344 OA
BRANCH   9  10
HETATM   10  C   UNL     1      41.921 -16.512   1.352  1.00  0.00     0.069 A 
HETATM   11  C   UNL     1      43.303 -16.353   1.478  1.00  0.00     0.037 A 
HETATM   12  C   UNL     1      44.123 -17.443   1.776  1.00  0.00     0.009 A 
HETATM   13  C   UNL     1      43.570 -18.715   1.947  1.00  0.00    -0.062 A 
HETATM   14  C   UNL     1      44.438 -19.885   2.305  1.00  0.00     0.048 C 
HETATM   15  C   UNL     1      42.184 -18.869   1.838  1.00  0.00     0.009 A 
HETATM   16  C   UNL     1      41.364 -17.777   1.536  1.00  0.00     0.037 A 
ENDBRANCH   9  10
ENDBRANCH   8   9
ENDBRANCH   6   8
ENDBRANCH   1   2
BRANCH   1  17
HETATM   17  C   UNL     1      42.007 -12.549   5.882  1.00  0.00     0.185 C 
BRANCH  17  18
HETATM   18  C   UNL     1      42.760 -13.875   5.821  1.00  0.00     0.231 C 
HETATM   19  N   UNL     1      42.123 -14.961   6.383  1.00  0.00    -0.327 N 
HETATM   20  H   UNL     1      41.265 -14.750   6.880  1.00  0.00     0.169 HD
HETATM   21  O   UNL     1      43.846 -13.912   5.240  1.00  0.00    -0.272 OA
BRANCH  19  22
HETATM   22  C   UNL     1      42.592 -16.283   6.501  1.00  0.00     0.034 A 
HETATM   23  C   UNL     1      43.169 -16.811   7.658  1.00  0.00     0.030 A 
HETATM   24  C   UNL     1      43.595 -18.146   7.699  1.00  0.00     0.019 A 
HETATM   25  C   UNL     1      43.444 -18.968   6.578  1.00  0.00     0.032 A 
HETATM   26  C   UNL     1      42.886 -18.439   5.412  1.00  0.00     0.019 A 
HETATM   27  C   UNL     1      42.460 -17.107   5.376  1.00  0.00     0.030 A 
BRANCH  25  28
HETATM   28  C   UNL     1      43.874 -20.391   6.573  1.00  0.00     0.249 C 
HETATM   29  N   UNL     1      43.497 -21.171   7.630  1.00  0.00    -0.366 N 
HETATM   30  H   UNL     1      42.774 -20.895   8.279  1.00  0.00     0.159 HD
HETATM   31  H   UNL     1      43.703 -22.159   7.553  1.00  0.00     0.159 HD
HETATM   32  O   UNL     1      44.516 -20.865   5.643  1.00  0.00    -0.268 OA
ENDBRANCH  25  28
ENDBRANCH  19  22
ENDBRANCH  17  18
ENDBRANCH   1  17
TORSDOF 8
ENDMDL
MODEL 9
REMARK VINA RESULT:      -8.0      2.407      6.298
REMARK  8 active torsions:
REMARK  status: ('A' for Active; 'I' for Inactive)
REMARK    1  A    between atoms: C_5  and  O_6 
REMARK    2  A    between atoms: O_6  and  C_7 
REMARK    3  A    between atoms: C_7  and  C_8 
REMARK    4  A    between atoms: C_12  and  S_13 
REMARK    5  A    between atoms: S_13  and  C_14 
REMARK    6  A    between atoms: C_14  and  C_15 
REMARK       I    between atoms: C_15  and  N_16 
REMARK    7  A    between atoms: N_16  and  C_17 
REMARK    8  A    between atoms: C_20  and  C_21 
REMARK       I    between atoms: C_21  and  N_22 
ROOT
HETATM    1  S   UNL     1      40.407 -11.021   3.469  1.00  0.00    -0.081 SA
ENDROOT
BRANCH   1   2
HETATM    2  C   UNL     1      41.073 -11.901   2.153  1.00  0.00     0.185 A 
HETATM    3  N   UNL     1      42.057 -11.402   1.363  1.00  0.00    -0.254 N 
HETATM    4  N   UNL     1      42.433 -12.303   0.438  1.00  0.00    -0.155 NA
HETATM    5  H   UNL     1      42.504 -10.493   1.398  1.00  0.00     0.191 HD
HETATM    6  C   UNL     1      41.656 -13.354   0.756  1.00  0.00     0.172 A 
HETATM    7  N   UNL     1      40.782 -13.123   1.794  1.00  0.00    -0.204 NA
BRANCH   6   8
HETATM    8  C   UNL     1      41.718 -14.675   0.055  1.00  0.00     0.258 C 
BRANCH   8   9
HETATM    9  O   UNL     1      40.987 -15.675   0.773  1.00  0.00    -0.344 OA
BRANCH   9  10
HETATM   10  C   UNL     1      41.715 -16.587   1.486  1.00  0.00     0.069 A 
HETATM   11  C   UNL     1      42.984 -16.851   0.966  1.00  0.00     0.037 A 
HETATM   12  C   UNL     1      43.842 -17.754   1.599  1.00  0.00     0.009 A 
HETATM   13  C   UNL     1      43.436 -18.412   2.763  1.00  0.00    -0.062 A 
HETATM   14  C   UNL     1      44.364 -19.354   3.471  1.00  0.00     0.048 C 
HETATM   15  C   UNL     1      42.171 -18.133   3.292  1.00  0.00     0.009 A 
HETATM   16  C   UNL     1      41.313 -17.231   2.655  1.00  0.00     0.037 A 
ENDBRANCH   9  10
ENDBRANCH   8   9
ENDBRANCH   6   8
ENDBRANCH   1   2
BRANCH   1  17
HETATM   17  C   UNL     1      39.355 -12.292   4.234  1.00  0.00     0.185 C 
BRANCH  17  18
HETATM   18  C   UNL     1      40.021 -13.211   5.255  1.00  0.00     0.231 C 
HETATM   19  N   UNL     1      40.924 -14.124   4.753  1.00  0.00    -0.327 N 
HETATM   20  H   UNL     1      40.975 -14.170   3.742  1.00  0.00     0.169 HD
HETATM   21  O   UNL     1      39.761 -13.052   6.449  1.00  0.00    -0.272 OA
BRANCH  19  22
HETATM   22  C   UNL     1      41.651 -15.106   5.451  1.00  0.00     0.034 A 
HETATM   23  C   UNL     1      41.069 -16.104   6.235  1.00  0.00     0.030 A 
HETATM   24  C   UNL     1      41.864 -17.058   6.884  1.00  0.00     0.019 A 
HETATM   25  C   UNL     1      43.256 -17.023   6.752  1.00  0.00     0.032 A 
HETATM   26  C   UNL     1      43.844 -16.013   5.986  1.00  0.00     0.019 A 
HETATM   27  C   UNL     1      43.047 -15.065   5.337  1.00  0.00     0.030 A 
BRANCH  25  28
HETATM   28  C   UNL     1      44.142 -18.015   7.416  1.00  0.00     0.249 C 
HETATM   29  N   UNL     1      43.835 -18.382   8.696  1.00  0.00    -0.366 N 
HETATM   30  H   UNL     1      42.937 -18.190   9.116  1.00  0.00     0.159 HD
HETATM   31  H   UNL     1      44.383 -19.138   9.087  1.00  0.00     0.159 HD
HETATM   32  O   UNL     1      45.097 -18.515   6.833  1.00  0.00    -0.268 OA
ENDBRANCH  25  28
ENDBRANCH  19  22
ENDBRANCH  17  18
ENDBRANCH   1  17
TORSDOF 8
ENDMDL
MODEL 10
REMARK VINA RESULT:      -7.9      5.237      8.796
REMARK  8 active torsions:
REMARK  status: ('A' for Active; 'I' for Inactive)
REMARK    1  A    between atoms: C_5  and  O_6 
REMARK    2  A    between atoms: O_6  and  C_7 
REMARK    3  A    between atoms: C_7  and  C_8 
REMARK    4  A    between atoms: C_12  and  S_13 
REMARK    5  A    between atoms: S_13  and  C_14 
REMARK    6  A    between atoms: C_14  and  C_15 
REMARK       I    between atoms: C_15  and  N_16 
REMARK    7  A    between atoms: N_16  and  C_17 
REMARK    8  A    between atoms: C_20  and  C_21 
REMARK       I    between atoms: C_21  and  N_22 
ROOT
HETATM    1  S   UNL     1      40.056 -12.441   6.261  1.00  0.00    -0.081 SA
ENDROOT
BRANCH   1   2
HETATM    2  C   UNL     1      40.745 -13.689   5.303  1.00  0.00     0.185 A 
HETATM    3  N   UNL     1      40.129 -14.189   4.202  1.00  0.00    -0.254 N 
HETATM    4  N   UNL     1      40.896 -15.120   3.605  1.00  0.00    -0.155 NA
HETATM    5  H   UNL     1      39.225 -13.949   3.812  1.00  0.00     0.191 HD
HETATM    6  C   UNL     1      41.992 -15.104   4.384  1.00  0.00     0.172 A 
HETATM    7  N   UNL     1      41.914 -14.249   5.460  1.00  0.00    -0.204 NA
BRANCH   6   8
HETATM    8  C   UNL     1      43.209 -15.935   4.122  1.00  0.00     0.258 C 
BRANCH   8   9
HETATM    9  O   UNL     1      43.148 -17.177   4.833  1.00  0.00    -0.344 OA
BRANCH   9  10
HETATM   10  C   UNL     1      43.476 -18.308   4.139  1.00  0.00     0.069 A 
HETATM   11  C   UNL     1      42.816 -18.452   2.917  1.00  0.00     0.037 A 
HETATM   12  C   UNL     1      43.062 -19.556   2.098  1.00  0.00     0.009 A 
HETATM   13  C   UNL     1      43.973 -20.539   2.495  1.00  0.00    -0.062 A 
HETATM   14  C   UNL     1      44.272 -21.708   1.604  1.00  0.00     0.048 C 
HETATM   15  C   UNL     1      44.646 -20.385   3.712  1.00  0.00     0.009 A 
HETATM   16  C   UNL     1      44.395 -19.280   4.533  1.00  0.00     0.037 A 
ENDBRANCH   9  10
ENDBRANCH   8   9
ENDBRANCH   6   8
ENDBRANCH   1   2
BRANCH   1  17
HETATM   17  C   UNL     1      41.362 -11.178   6.168  1.00  0.00     0.185 C 
BRANCH  17  18
HETATM   18  C   UNL     1      41.738 -10.482   7.474  1.00  0.00     0.231 C 
HETATM   19  N   UNL     1      41.896 -11.300   8.573  1.00  0.00    -0.327 N 
HETATM   20  H   UNL     1      41.640 -12.270   8.431  1.00  0.00     0.169 HD
HETATM   21  O   UNL     1      41.926  -9.265   7.461  1.00  0.00    -0.272 OA
BRANCH  19  22
HETATM   22  C   UNL     1      42.202 -10.931   9.897  1.00  0.00     0.034 A 
HETATM   23  C   UNL     1      43.497 -10.725  10.375  1.00  0.00     0.030 A 
HETATM   24  C   UNL     1      43.716 -10.340  11.705  1.00  0.00     0.019 A 
HETATM   25  C   UNL     1      42.634 -10.154  12.571  1.00  0.00     0.032 A 
HETATM   26  C   UNL     1      41.336 -10.380  12.103  1.00  0.00     0.019 A 
HETATM   27  C   UNL     1      41.123 -10.761  10.774  1.00  0.00     0.030 A 
BRANCH  25  28
HETATM   28  C   UNL     1      42.812  -9.742  13.988  1.00  0.00     0.249 C 
HETATM   29  N   UNL     1      43.460  -8.563  14.228  1.00  0.00    -0.366 N 
HETATM   30  H   UNL     1      43.618  -7.873  13.508  1.00  0.00     0.159 HD
HETATM   31  H   UNL     1      43.472  -8.247  15.190  1.00  0.00     0.159 HD
HETATM   32  O   UNL     1      42.368 -10.412  14.913  1.00  0.00    -0.268 OA
ENDBRANCH  25  28
ENDBRANCH  19  22
ENDBRANCH  17  18
ENDBRANCH   1  17
TORSDOF 8
ENDMDL
