MODEL 1
REMARK VINA RESULT:      -9.3      0.000      0.000
REMARK  5 active torsions:
REMARK  status: ('A' for Active; 'I' for Inactive)
REMARK    1  A    between atoms: C_7  and  C_8 
REMARK    2  A    between atoms: N_9  and  N_10 
REMARK       I    between atoms: N_10  and  C_11 
REMARK    3  A    between atoms: C_11  and  C_12 
REMARK    4  A    between atoms: C_12  and  N_13 
REMARK       I    between atoms: N_13  and  C_14 
REMARK    5  A    between atoms: C_14  and  C_15 
ROOT
HETATM    1  N   UNL     1      43.690 -14.088   6.921  1.00  0.00    -0.246 N 
HETATM    2  C   UNL     1      44.398 -13.184   7.698  1.00  0.00     0.255 C 
HETATM    3  O   UNL     1      45.486 -13.399   8.230  1.00  0.00    -0.270 OA
HETATM    4  H   UNL     1      42.733 -13.858   6.645  1.00  0.00     0.192 HD
ENDROOT
BRANCH   1   5
HETATM    5  N   UNL     1      44.194 -15.330   6.669  1.00  0.00    -0.184 NA
HETATM    6  C   UNL     1      43.364 -16.163   6.130  1.00  0.00     0.153 C 
BRANCH   6   7
HETATM    7  C   UNL     1      43.774 -17.526   5.841  1.00  0.00     0.018 A 
HETATM    8  C   UNL     1      44.111 -18.511   6.760  1.00  0.00     0.018 A 
HETATM    9  C   UNL     1      44.161 -18.487   8.247  1.00  0.00     0.069 C 
HETATM   10  N   UNL     1      44.419 -19.649   6.057  1.00  0.00    -0.358 N 
HETATM   11  H   UNL     1      44.697 -20.528   6.473  1.00  0.00     0.166 HD
HETATM   12  C   UNL     1      44.298 -19.436   4.707  1.00  0.00     0.043 A 
HETATM   13  C   UNL     1      43.897 -18.110   4.535  1.00  0.00     0.004 A 
HETATM   14  C   UNL     1      44.512 -20.310   3.634  1.00  0.00     0.030 A 
HETATM   15  C   UNL     1      43.708 -17.636   3.220  1.00  0.00     0.014 A 
HETATM   16  C   UNL     1      43.921 -18.495   2.135  1.00  0.00     0.001 A 
HETATM   17  C   UNL     1      44.315 -19.814   2.344  1.00  0.00     0.002 A 
ENDBRANCH   6   7
ENDBRANCH   1   5
BRANCH   2  18
HETATM   18  C   UNL     1      43.630 -11.886   7.957  1.00  0.00     0.227 C 
BRANCH  18  19
HETATM   19  N   UNL     1      43.170 -11.716   9.331  1.00  0.00    -0.348 N 
HETATM   20  C   UNL     1      43.788 -10.847  10.202  1.00  0.00     0.252 C 
HETATM   21  O   UNL     1      44.849 -10.302   9.908  1.00  0.00    -0.268 OA
HETATM   22  H   UNL     1      42.436 -12.334   9.644  1.00  0.00     0.163 HD
BRANCH  20  23
HETATM   23  C   UNL     1      43.175 -10.633  11.546  1.00  0.00     0.035 A 
HETATM   24  C   UNL     1      41.971 -11.294  11.820  1.00  0.00     0.059 A 
HETATM   25  C   UNL     1      41.364 -11.141  13.062  1.00  0.00     0.117 A 
HETATM   26  F   UNL     1      40.214 -11.780  13.316  1.00  0.00    -0.206 F 
HETATM   27  C   UNL     1      41.932 -10.340  14.044  1.00  0.00     0.042 A 
HETATM   28  C   UNL     1      43.133  -9.684  13.784  1.00  0.00     0.004 A 
HETATM   29  C   UNL     1      43.758  -9.833  12.541  1.00  0.00     0.017 A 
ENDBRANCH  20  23
ENDBRANCH  18  19
ENDBRANCH   2  18
TORSDOF 5
ENDMDL
MODEL 2
REMARK VINA RESULT:      -9.1      1.973      3.020
REMARK  5 active torsions:
REMARK  status: ('A' for Active; 'I' for Inactive)
REMARK    1  A    between atoms: C_7  and  C_8 
REMARK    2  A    between atoms: N_9  and  N_10 
REMARK       I    between atoms: N_10  and  C_11 
REMARK    3  A    between atoms: C_11  and  C_12 
REMARK    4  A    between atoms: C_12  and  N_13 
REMARK       I    between atoms: N_13  and  C_14 
REMARK    5  A    between atoms: C_14  and  C_15 
ROOT
HETATM    1  N   UNL     1      43.890 -15.642   6.462  1.00  0.00    -0.246 N 
HETATM    2  C   UNL     1      44.225 -14.310   6.278  1.00  0.00     0.255 C 
HETATM    3  O   UNL     1      44.064 -13.671   5.239  1.00  0.00    -0.270 OA
HETATM    4  H   UNL     1      44.195 -16.114   7.316  1.00  0.00     0.192 HD
ENDROOT
BRANCH   1   5
HETATM    5  N   UNL     1      43.312 -16.357   5.455  1.00  0.00    -0.184 NA
HETATM    6  C   UNL     1      44.109 -17.148   4.812  1.00  0.00     0.153 C 
BRANCH   6   7
HETATM    7  C   UNL     1      43.618 -17.941   3.699  1.00  0.00     0.018 A 
HETATM    8  C   UNL     1      42.782 -17.517   2.676  1.00  0.00     0.018 A 
HETATM    9  C   UNL     1      42.152 -16.195   2.409  1.00  0.00     0.069 C 
HETATM   10  N   UNL     1      42.584 -18.580   1.830  1.00  0.00    -0.358 N 
HETATM   11  H   UNL     1      42.017 -18.557   0.993  1.00  0.00     0.166 HD
HETATM   12  C   UNL     1      43.264 -19.687   2.274  1.00  0.00     0.043 A 
HETATM   13  C   UNL     1      43.922 -19.321   3.448  1.00  0.00     0.004 A 
HETATM   14  C   UNL     1      43.344 -20.974   1.726  1.00  0.00     0.030 A 
HETATM   15  C   UNL     1      44.695 -20.298   4.111  1.00  0.00     0.014 A 
HETATM   16  C   UNL     1      44.782 -21.591   3.581  1.00  0.00     0.001 A 
HETATM   17  C   UNL     1      44.117 -21.920   2.403  1.00  0.00     0.002 A 
ENDBRANCH   6   7
ENDBRANCH   1   5
BRANCH   2  18
HETATM   18  C   UNL     1      44.956 -13.703   7.478  1.00  0.00     0.227 C 
BRANCH  18  19
HETATM   19  N   UNL     1      44.155 -12.780   8.275  1.00  0.00    -0.348 N 
HETATM   20  C   UNL     1      44.618 -12.252   9.459  1.00  0.00     0.252 C 
HETATM   21  O   UNL     1      45.656 -12.660   9.972  1.00  0.00    -0.268 OA
HETATM   22  H   UNL     1      43.207 -12.620   7.967  1.00  0.00     0.163 HD
BRANCH  20  23
HETATM   23  C   UNL     1      43.793 -11.214  10.143  1.00  0.00     0.035 A 
HETATM   24  C   UNL     1      44.161 -10.849  11.445  1.00  0.00     0.059 A 
HETATM   25  C   UNL     1      43.435  -9.876  12.122  1.00  0.00     0.117 A 
HETATM   26  F   UNL     1      43.797  -9.532  13.366  1.00  0.00    -0.206 F 
HETATM   27  C   UNL     1      42.343  -9.254  11.532  1.00  0.00     0.042 A 
HETATM   28  C   UNL     1      41.973  -9.604  10.236  1.00  0.00     0.004 A 
HETATM   29  C   UNL     1      42.698 -10.577   9.538  1.00  0.00     0.017 A 
ENDBRANCH  20  23
ENDBRANCH  18  19
ENDBRANCH   2  18
TORSDOF 5
ENDMDL
MODEL 3
REMARK VINA RESULT:      -8.9      6.602      9.026
REMARK  5 active torsions:
REMARK  status: ('A' for Active; 'I' for Inactive)
REMARK    1  A    between atoms: C_7  and  C_8 
REMARK    2  A    between atoms: N_9  and  N_10 
REMARK       I    between atoms: N_10  and  C_11 
REMARK    3  A    between atoms: C_11  and  C_12 
REMARK    4  A    between atoms: C_12  and  N_13 
REMARK       I    between atoms: N_13  and  C_14 
REMARK    5  A    between atoms: C_14  and  C_15 
ROOT
HETATM    1  N   UNL     1      42.769 -15.165   2.548  1.00  0.00    -0.246 N 
HETATM    2  C   UNL     1      43.109 -13.881   2.942  1.00  0.00     0.255 C 
HETATM    3  O   UNL     1      44.085 -13.578   3.628  1.00  0.00    -0.270 OA
HETATM    4  H   UNL     1      41.864 -15.320   2.100  1.00  0.00     0.192 HD
ENDROOT
BRANCH   1   5
HETATM    5  N   UNL     1      43.551 -16.227   2.898  1.00  0.00    -0.184 NA
HETATM    6  C   UNL     1      42.951 -17.154   3.572  1.00  0.00     0.153 C 
BRANCH   6   7
HETATM    7  C   UNL     1      43.683 -18.322   4.027  1.00  0.00     0.018 A 
HETATM    8  C   UNL     1      44.384 -18.457   5.219  1.00  0.00     0.018 A 
HETATM    9  C   UNL     1      44.601 -17.505   6.342  1.00  0.00     0.069 C 
HETATM   10  N   UNL     1      44.909 -19.726   5.253  1.00  0.00    -0.358 N 
HETATM   11  H   UNL     1      45.465 -20.101   6.009  1.00  0.00     0.166 HD
HETATM   12  C   UNL     1      44.575 -20.421   4.117  1.00  0.00     0.043 A 
HETATM   13  C   UNL     1      43.808 -19.568   3.324  1.00  0.00     0.004 A 
HETATM   14  C   UNL     1      44.894 -21.730   3.737  1.00  0.00     0.030 A 
HETATM   15  C   UNL     1      43.342 -20.050   2.083  1.00  0.00     0.014 A 
HETATM   16  C   UNL     1      43.654 -21.355   1.685  1.00  0.00     0.001 A 
HETATM   17  C   UNL     1      44.418 -22.182   2.505  1.00  0.00     0.002 A 
ENDBRANCH   6   7
ENDBRANCH   1   5
BRANCH   2  18
HETATM   18  C   UNL     1      42.063 -12.835   2.547  1.00  0.00     0.227 C 
BRANCH  18  19
HETATM   19  N   UNL     1      42.350 -12.128   1.303  1.00  0.00    -0.348 N 
HETATM   20  C   UNL     1      42.027 -12.658   0.074  1.00  0.00     0.252 C 
HETATM   21  O   UNL     1      41.632 -13.817  -0.032  1.00  0.00    -0.268 OA
HETATM   22  H   UNL     1      42.882 -11.274   1.379  1.00  0.00     0.163 HD
BRANCH  20  23
HETATM   23  C   UNL     1      42.232 -11.815  -1.139  1.00  0.00     0.035 A 
HETATM   24  C   UNL     1      42.920 -10.605  -0.978  1.00  0.00     0.059 A 
HETATM   25  C   UNL     1      43.151  -9.788  -2.078  1.00  0.00     0.117 A 
HETATM   26  F   UNL     1      43.813  -8.634  -1.914  1.00  0.00    -0.206 F 
HETATM   27  C   UNL     1      42.710 -10.148  -3.345  1.00  0.00     0.042 A 
HETATM   28  C   UNL     1      42.031 -11.352  -3.517  1.00  0.00     0.004 A 
HETATM   29  C   UNL     1      41.797 -12.189  -2.420  1.00  0.00     0.017 A 
ENDBRANCH  20  23
ENDBRANCH  18  19
ENDBRANCH   2  18
TORSDOF 5
ENDMDL
MODEL 4
REMARK VINA RESULT:      -8.8      6.642      9.234
REMARK  5 active torsions:
REMARK  status: ('A' for Active; 'I' for Inactive)
REMARK    1  A    between atoms: C_7  and  C_8 
REMARK    2  A    between atoms: N_9  and  N_10 
REMARK       I    between atoms: N_10  and  C_11 
REMARK    3  A    between atoms: C_11  and  C_12 
REMARK    4  A    between atoms: C_12  and  N_13 
REMARK       I    between atoms: N_13  and  C_14 
REMARK    5  A    between atoms: C_14  and  C_15 
ROOT
HETATM    1  N   UNL     1      42.852 -15.104   2.534  1.00  0.00    -0.246 N 
HETATM    2  C   UNL     1      43.112 -13.829   3.012  1.00  0.00     0.255 C 
HETATM    3  O   UNL     1      43.996 -13.534   3.816  1.00  0.00    -0.270 OA
HETATM    4  H   UNL     1      42.007 -15.259   1.980  1.00  0.00     0.192 HD
ENDROOT
BRANCH   1   5
HETATM    5  N   UNL     1      43.614 -16.162   2.932  1.00  0.00    -0.184 NA
HETATM    6  C   UNL     1      42.972 -17.106   3.541  1.00  0.00     0.153 C 
BRANCH   6   7
HETATM    7  C   UNL     1      43.678 -18.273   4.038  1.00  0.00     0.018 A 
HETATM    8  C   UNL     1      44.347 -18.392   5.249  1.00  0.00     0.018 A 
HETATM    9  C   UNL     1      44.549 -17.418   6.357  1.00  0.00     0.069 C 
HETATM   10  N   UNL     1      44.855 -19.665   5.323  1.00  0.00    -0.358 N 
HETATM   11  H   UNL     1      45.388 -20.032   6.099  1.00  0.00     0.166 HD
HETATM   12  C   UNL     1      44.540 -20.380   4.193  1.00  0.00     0.043 A 
HETATM   13  C   UNL     1      43.803 -19.535   3.364  1.00  0.00     0.004 A 
HETATM   14  C   UNL     1      44.851 -21.701   3.849  1.00  0.00     0.030 A 
HETATM   15  C   UNL     1      43.361 -20.038   2.122  1.00  0.00     0.014 A 
HETATM   16  C   UNL     1      43.667 -21.355   1.759  1.00  0.00     0.001 A 
HETATM   17  C   UNL     1      44.399 -22.173   2.615  1.00  0.00     0.002 A 
ENDBRANCH   6   7
ENDBRANCH   1   5
BRANCH   2  18
HETATM   18  C   UNL     1      42.093 -12.790   2.538  1.00  0.00     0.227 C 
BRANCH  18  19
HETATM   19  N   UNL     1      41.520 -13.057   1.222  1.00  0.00    -0.348 N 
HETATM   20  C   UNL     1      42.007 -12.457   0.083  1.00  0.00     0.252 C 
HETATM   21  O   UNL     1      42.836 -11.552   0.147  1.00  0.00    -0.268 OA
HETATM   22  H   UNL     1      40.689 -13.629   1.197  1.00  0.00     0.163 HD
BRANCH  20  23
HETATM   23  C   UNL     1      41.456 -12.884  -1.236  1.00  0.00     0.035 A 
HETATM   24  C   UNL     1      41.534 -14.245  -1.560  1.00  0.00     0.059 A 
HETATM   25  C   UNL     1      41.022 -14.699  -2.770  1.00  0.00     0.117 A 
HETATM   26  F   UNL     1      41.099 -16.003  -3.069  1.00  0.00    -0.206 F 
HETATM   27  C   UNL     1      40.430 -13.825  -3.672  1.00  0.00     0.042 A 
HETATM   28  C   UNL     1      40.340 -12.471  -3.356  1.00  0.00     0.004 A 
HETATM   29  C   UNL     1      40.845 -12.000  -2.139  1.00  0.00     0.017 A 
ENDBRANCH  20  23
ENDBRANCH  18  19
ENDBRANCH   2  18
TORSDOF 5
ENDMDL
MODEL 5
REMARK VINA RESULT:      -8.8      6.820      9.098
REMARK  5 active torsions:
REMARK  status: ('A' for Active; 'I' for Inactive)
REMARK    1  A    between atoms: C_7  and  C_8 
REMARK    2  A    between atoms: N_9  and  N_10 
REMARK       I    between atoms: N_10  and  C_11 
REMARK    3  A    between atoms: C_11  and  C_12 
REMARK    4  A    between atoms: C_12  and  N_13 
REMARK       I    between atoms: N_13  and  C_14 
REMARK    5  A    between atoms: C_14  and  C_15 
ROOT
HETATM    1  N   UNL     1      41.935 -15.639   3.116  1.00  0.00    -0.246 N 
HETATM    2  C   UNL     1      40.992 -14.852   3.760  1.00  0.00     0.255 C 
HETATM    3  O   UNL     1      40.391 -15.156   4.789  1.00  0.00    -0.270 OA
HETATM    4  H   UNL     1      42.269 -15.352   2.193  1.00  0.00     0.192 HD
ENDROOT
BRANCH   1   5
HETATM    5  N   UNL     1      42.287 -16.854   3.625  1.00  0.00    -0.184 NA
HETATM    6  C   UNL     1      43.558 -17.095   3.646  1.00  0.00     0.153 C 
BRANCH   6   7
HETATM    7  C   UNL     1      44.056 -18.367   4.139  1.00  0.00     0.018 A 
HETATM    8  C   UNL     1      44.610 -18.621   5.386  1.00  0.00     0.018 A 
HETATM    9  C   UNL     1      44.861 -17.725   6.548  1.00  0.00     0.069 C 
HETATM   10  N   UNL     1      44.930 -19.955   5.438  1.00  0.00    -0.358 N 
HETATM   11  H   UNL     1      45.347 -20.420   6.232  1.00  0.00     0.166 HD
HETATM   12  C   UNL     1      44.605 -20.579   4.258  1.00  0.00     0.043 A 
HETATM   13  C   UNL     1      44.056 -19.609   3.419  1.00  0.00     0.004 A 
HETATM   14  C   UNL     1      44.755 -21.918   3.877  1.00  0.00     0.030 A 
HETATM   15  C   UNL     1      43.643 -20.001   2.128  1.00  0.00     0.014 A 
HETATM   16  C   UNL     1      43.790 -21.335   1.728  1.00  0.00     0.001 A 
HETATM   17  C   UNL     1      44.336 -22.278   2.595  1.00  0.00     0.002 A 
ENDBRANCH   6   7
ENDBRANCH   1   5
BRANCH   2  18
HETATM   18  C   UNL     1      40.650 -13.574   2.989  1.00  0.00     0.227 C 
BRANCH  18  19
HETATM   19  N   UNL     1      40.641 -13.724   1.538  1.00  0.00    -0.348 N 
HETATM   20  C   UNL     1      41.646 -13.212   0.748  1.00  0.00     0.252 C 
HETATM   21  O   UNL     1      42.506 -12.470   1.218  1.00  0.00    -0.268 OA
HETATM   22  H   UNL     1      39.816 -14.138   1.129  1.00  0.00     0.163 HD
BRANCH  20  23
HETATM   23  C   UNL     1      41.631 -13.523  -0.711  1.00  0.00     0.035 A 
HETATM   24  C   UNL     1      41.073 -14.746  -1.106  1.00  0.00     0.059 A 
HETATM   25  C   UNL     1      41.021 -15.079  -2.454  1.00  0.00     0.117 A 
HETATM   26  F   UNL     1      40.483 -16.250  -2.822  1.00  0.00    -0.206 F 
HETATM   27  C   UNL     1      41.514 -14.219  -3.426  1.00  0.00     0.042 A 
HETATM   28  C   UNL     1      42.064 -12.998  -3.045  1.00  0.00     0.004 A 
HETATM   29  C   UNL     1      42.119 -12.645  -1.691  1.00  0.00     0.017 A 
ENDBRANCH  20  23
ENDBRANCH  18  19
ENDBRANCH   2  18
TORSDOF 5
ENDMDL
MODEL 6
REMARK VINA RESULT:      -8.8      2.277      2.644
REMARK  5 active torsions:
REMARK  status: ('A' for Active; 'I' for Inactive)
REMARK    1  A    between atoms: C_7  and  C_8 
REMARK    2  A    between atoms: N_9  and  N_10 
REMARK       I    between atoms: N_10  and  C_11 
REMARK    3  A    between atoms: C_11  and  C_12 
REMARK    4  A    between atoms: C_12  and  N_13 
REMARK       I    between atoms: N_13  and  C_14 
REMARK    5  A    between atoms: C_14  and  C_15 
ROOT
HETATM    1  N   UNL     1      42.279 -14.248   6.245  1.00  0.00    -0.246 N 
HETATM    2  C   UNL     1      41.311 -13.437   5.674  1.00  0.00     0.255 C 
HETATM    3  O   UNL     1      40.494 -13.791   4.824  1.00  0.00    -0.270 OA
HETATM    4  H   UNL     1      42.995 -13.820   6.836  1.00  0.00     0.192 HD
ENDROOT
BRANCH   1   5
HETATM    5  N   UNL     1      42.377 -15.563   5.895  1.00  0.00    -0.184 NA
HETATM    6  C   UNL     1      43.575 -16.052   5.919  1.00  0.00     0.153 C 
BRANCH   6   7
HETATM    7  C   UNL     1      43.812 -17.433   5.539  1.00  0.00     0.018 A 
HETATM    8  C   UNL     1      44.063 -18.502   6.389  1.00  0.00     0.018 A 
HETATM    9  C   UNL     1      44.169 -18.571   7.872  1.00  0.00     0.069 C 
HETATM   10  N   UNL     1      44.211 -19.626   5.614  1.00  0.00    -0.358 N 
HETATM   11  H   UNL     1      44.399 -20.553   5.970  1.00  0.00     0.166 HD
HETATM   12  C   UNL     1      44.068 -19.321   4.283  1.00  0.00     0.043 A 
HETATM   13  C   UNL     1      43.820 -17.951   4.200  1.00  0.00     0.004 A 
HETATM   14  C   UNL     1      44.141 -20.150   3.157  1.00  0.00     0.030 A 
HETATM   15  C   UNL     1      43.641 -17.381   2.922  1.00  0.00     0.014 A 
HETATM   16  C   UNL     1      43.714 -18.194   1.785  1.00  0.00     0.001 A 
HETATM   17  C   UNL     1      43.958 -19.560   1.905  1.00  0.00     0.002 A 
ENDBRANCH   6   7
ENDBRANCH   1   5
BRANCH   2  18
HETATM   18  C   UNL     1      41.420 -11.974   6.109  1.00  0.00     0.227 C 
BRANCH  18  19
HETATM   19  N   UNL     1      42.083 -11.770   7.393  1.00  0.00    -0.348 N 
HETATM   20  C   UNL     1      42.172 -10.525   7.975  1.00  0.00     0.252 C 
HETATM   21  O   UNL     1      41.841  -9.513   7.362  1.00  0.00    -0.268 OA
HETATM   22  H   UNL     1      42.557 -12.567   7.791  1.00  0.00     0.163 HD
BRANCH  20  23
HETATM   23  C   UNL     1      42.746 -10.423   9.349  1.00  0.00     0.035 A 
HETATM   24  C   UNL     1      43.971 -11.060   9.587  1.00  0.00     0.059 A 
HETATM   25  C   UNL     1      44.557 -10.984  10.845  1.00  0.00     0.117 A 
HETATM   26  F   UNL     1      45.731 -11.594  11.062  1.00  0.00    -0.206 F 
HETATM   27  C   UNL     1      43.949 -10.285  11.879  1.00  0.00     0.042 A 
HETATM   28  C   UNL     1      42.735  -9.642  11.651  1.00  0.00     0.004 A 
HETATM   29  C   UNL     1      42.135  -9.704  10.388  1.00  0.00     0.017 A 
ENDBRANCH  20  23
ENDBRANCH  18  19
ENDBRANCH   2  18
TORSDOF 5
ENDMDL
MODEL 7
REMARK VINA RESULT:      -8.7      6.545     10.497
REMARK  5 active torsions:
REMARK  status: ('A' for Active; 'I' for Inactive)
REMARK    1  A    between atoms: C_7  and  C_8 
REMARK    2  A    between atoms: N_9  and  N_10 
REMARK       I    between atoms: N_10  and  C_11 
REMARK    3  A    between atoms: C_11  and  C_12 
REMARK    4  A    between atoms: C_12  and  N_13 
REMARK       I    between atoms: N_13  and  C_14 
REMARK    5  A    between atoms: C_14  and  C_15 
ROOT
HETATM    1  N   UNL     1      41.292 -14.465   1.992  1.00  0.00    -0.246 N 
HETATM    2  C   UNL     1      42.308 -14.135   2.875  1.00  0.00     0.255 C 
HETATM    3  O   UNL     1      43.191 -13.303   2.670  1.00  0.00    -0.270 OA
HETATM    4  H   UNL     1      40.696 -15.268   2.203  1.00  0.00     0.192 HD
ENDROOT
BRANCH   1   5
HETATM    5  N   UNL     1      41.192 -13.837   0.785  1.00  0.00    -0.184 NA
HETATM    6  C   UNL     1      41.738 -14.461  -0.208  1.00  0.00     0.153 C 
BRANCH   6   7
HETATM    7  C   UNL     1      41.723 -13.881  -1.539  1.00  0.00     0.018 A 
HETATM    8  C   UNL     1      41.266 -14.478  -2.706  1.00  0.00     0.018 A 
HETATM    9  C   UNL     1      40.685 -15.825  -2.954  1.00  0.00     0.069 C 
HETATM   10  N   UNL     1      41.420 -13.572  -3.727  1.00  0.00    -0.358 N 
HETATM   11  H   UNL     1      41.166 -13.738  -4.691  1.00  0.00     0.166 HD
HETATM   12  C   UNL     1      41.968 -12.403  -3.260  1.00  0.00     0.043 A 
HETATM   13  C   UNL     1      42.173 -12.563  -1.890  1.00  0.00     0.004 A 
HETATM   14  C   UNL     1      42.293 -11.226  -3.946  1.00  0.00     0.030 A 
HETATM   15  C   UNL     1      42.742 -11.491  -1.171  1.00  0.00     0.014 A 
HETATM   16  C   UNL     1      43.077 -10.308  -1.840  1.00  0.00     0.001 A 
HETATM   17  C   UNL     1      42.852 -10.180  -3.208  1.00  0.00     0.002 A 
ENDBRANCH   6   7
ENDBRANCH   1   5
BRANCH   2  18
HETATM   18  C   UNL     1      42.322 -15.013   4.129  1.00  0.00     0.227 C 
BRANCH  18  19
HETATM   19  N   UNL     1      42.966 -16.311   3.955  1.00  0.00    -0.348 N 
HETATM   20  C   UNL     1      42.291 -17.394   3.439  1.00  0.00     0.252 C 
HETATM   21  O   UNL     1      41.077 -17.357   3.257  1.00  0.00    -0.268 OA
HETATM   22  H   UNL     1      43.904 -16.404   4.318  1.00  0.00     0.163 HD
BRANCH  20  23
HETATM   23  C   UNL     1      43.058 -18.645   3.169  1.00  0.00     0.035 A 
HETATM   24  C   UNL     1      43.969 -19.070   4.145  1.00  0.00     0.059 A 
HETATM   25  C   UNL     1      44.698 -20.237   3.949  1.00  0.00     0.117 A 
HETATM   26  F   UNL     1      45.566 -20.636   4.890  1.00  0.00    -0.206 F 
HETATM   27  C   UNL     1      44.542 -20.997   2.798  1.00  0.00     0.042 A 
HETATM   28  C   UNL     1      43.633 -20.588   1.825  1.00  0.00     0.004 A 
HETATM   29  C   UNL     1      42.886 -19.419   2.010  1.00  0.00     0.017 A 
ENDBRANCH  20  23
ENDBRANCH  18  19
ENDBRANCH   2  18
TORSDOF 5
ENDMDL
MODEL 8
REMARK VINA RESULT:      -8.6      3.329      4.297
REMARK  5 active torsions:
REMARK  status: ('A' for Active; 'I' for Inactive)
REMARK    1  A    between atoms: C_7  and  C_8 
REMARK    2  A    between atoms: N_9  and  N_10 
REMARK       I    between atoms: N_10  and  C_11 
REMARK    3  A    between atoms: C_11  and  C_12 
REMARK    4  A    between atoms: C_12  and  N_13 
REMARK       I    between atoms: N_13  and  C_14 
REMARK    5  A    between atoms: C_14  and  C_15 
ROOT
HETATM    1  N   UNL     1      40.042 -13.399   6.686  1.00  0.00    -0.246 N 
HETATM    2  C   UNL     1      39.361 -12.205   6.508  1.00  0.00     0.255 C 
HETATM    3  O   UNL     1      38.711 -11.895   5.511  1.00  0.00    -0.270 OA
HETATM    4  H   UNL     1      40.665 -13.497   7.490  1.00  0.00     0.192 HD
ENDROOT
BRANCH   1   5
HETATM    5  N   UNL     1      40.011 -14.365   5.723  1.00  0.00    -0.184 NA
HETATM    6  C   UNL     1      41.100 -14.493   5.036  1.00  0.00     0.153 C 
BRANCH   6   7
HETATM    7  C   UNL     1      41.181 -15.467   3.962  1.00  0.00     0.018 A 
HETATM    8  C   UNL     1      40.403 -15.511   2.813  1.00  0.00     0.018 A 
HETATM    9  C   UNL     1      39.298 -14.631   2.344  1.00  0.00     0.069 C 
HETATM   10  N   UNL     1      40.825 -16.582   2.064  1.00  0.00    -0.358 N 
HETATM   11  H   UNL     1      40.436 -16.852   1.171  1.00  0.00     0.166 HD
HETATM   12  C   UNL     1      41.853 -17.239   2.692  1.00  0.00     0.043 A 
HETATM   13  C   UNL     1      42.101 -16.567   3.889  1.00  0.00     0.004 A 
HETATM   14  C   UNL     1      42.576 -18.370   2.292  1.00  0.00     0.030 A 
HETATM   15  C   UNL     1      43.121 -17.058   4.731  1.00  0.00     0.014 A 
HETATM   16  C   UNL     1      43.850 -18.190   4.349  1.00  0.00     0.001 A 
HETATM   17  C   UNL     1      43.581 -18.833   3.144  1.00  0.00     0.002 A 
ENDBRANCH   6   7
ENDBRANCH   1   5
BRANCH   2  18
HETATM   18  C   UNL     1      39.596 -11.206   7.644  1.00  0.00     0.227 C 
BRANCH  18  19
HETATM   19  N   UNL     1      40.811 -11.439   8.417  1.00  0.00    -0.348 N 
HETATM   20  C   UNL     1      41.951 -10.692   8.221  1.00  0.00     0.252 C 
HETATM   21  O   UNL     1      42.042  -9.909   7.279  1.00  0.00    -0.268 OA
HETATM   22  H   UNL     1      40.809 -12.236   9.037  1.00  0.00     0.163 HD
BRANCH  20  23
HETATM   23  C   UNL     1      43.105 -10.903   9.143  1.00  0.00     0.035 A 
HETATM   24  C   UNL     1      43.056 -10.280  10.396  1.00  0.00     0.059 A 
HETATM   25  C   UNL     1      44.098 -10.455  11.298  1.00  0.00     0.117 A 
HETATM   26  F   UNL     1      44.040  -9.857  12.496  1.00  0.00    -0.206 F 
HETATM   27  C   UNL     1      45.197 -11.243  10.981  1.00  0.00     0.042 A 
HETATM   28  C   UNL     1      45.253 -11.874   9.741  1.00  0.00     0.004 A 
HETATM   29  C   UNL     1      44.208 -11.711   8.824  1.00  0.00     0.017 A 
ENDBRANCH  20  23
ENDBRANCH  18  19
ENDBRANCH   2  18
TORSDOF 5
ENDMDL
MODEL 9
REMARK VINA RESULT:      -8.5      6.798      9.729
REMARK  5 active torsions:
REMARK  status: ('A' for Active; 'I' for Inactive)
REMARK    1  A    between atoms: C_7  and  C_8 
REMARK    2  A    between atoms: N_9  and  N_10 
REMARK       I    between atoms: N_10  and  C_11 
REMARK    3  A    between atoms: C_11  and  C_12 
REMARK    4  A    between atoms: C_12  and  N_13 
REMARK       I    between atoms: N_13  and  C_14 
REMARK    5  A    between atoms: C_14  and  C_15 
ROOT
HETATM    1  N   UNL     1      40.326 -16.347   1.515  1.00  0.00    -0.246 N 
HETATM    2  C   UNL     1      39.790 -15.140   1.933  1.00  0.00     0.255 C 
HETATM    3  O   UNL     1      39.822 -14.704   3.083  1.00  0.00    -0.270 OA
HETATM    4  H   UNL     1      40.120 -16.677   0.569  1.00  0.00     0.192 HD
ENDROOT
BRANCH   1   5
HETATM    5  N   UNL     1      40.976 -17.159   2.397  1.00  0.00    -0.184 NA
HETATM    6  C   UNL     1      42.266 -17.163   2.294  1.00  0.00     0.153 C 
BRANCH   6   7
HETATM    7  C   UNL     1      43.070 -18.009   3.159  1.00  0.00     0.018 A 
HETATM    8  C   UNL     1      43.577 -17.684   4.410  1.00  0.00     0.018 A 
HETATM    9  C   UNL     1      43.471 -16.437   5.216  1.00  0.00     0.069 C 
HETATM   10  N   UNL     1      44.261 -18.777   4.880  1.00  0.00    -0.358 N 
HETATM   11  H   UNL     1      44.732 -18.825   5.773  1.00  0.00     0.166 HD
HETATM   12  C   UNL     1      44.218 -19.806   3.972  1.00  0.00     0.043 A 
HETATM   13  C   UNL     1      43.480 -19.356   2.877  1.00  0.00     0.004 A 
HETATM   14  C   UNL     1      44.775 -21.089   4.038  1.00  0.00     0.030 A 
HETATM   15  C   UNL     1      43.296 -20.236   1.789  1.00  0.00     0.014 A 
HETATM   16  C   UNL     1      43.849 -21.521   1.837  1.00  0.00     0.001 A 
HETATM   17  C   UNL     1      44.575 -21.939   2.949  1.00  0.00     0.002 A 
ENDBRANCH   6   7
ENDBRANCH   1   5
BRANCH   2  18
HETATM   18  C   UNL     1      39.010 -14.416   0.832  1.00  0.00     0.227 C 
BRANCH  18  19
HETATM   19  N   UNL     1      39.797 -13.464   0.056  1.00  0.00    -0.348 N 
HETATM   20  C   UNL     1      40.567 -13.860  -1.015  1.00  0.00     0.252 C 
HETATM   21  O   UNL     1      40.750 -15.050  -1.259  1.00  0.00    -0.268 OA
HETATM   22  H   UNL     1      39.826 -12.514   0.397  1.00  0.00     0.163 HD
BRANCH  20  23
HETATM   23  C   UNL     1      41.234 -12.808  -1.837  1.00  0.00     0.035 A 
HETATM   24  C   UNL     1      42.263 -12.072  -1.235  1.00  0.00     0.059 A 
HETATM   25  C   UNL     1      42.927 -11.091  -1.961  1.00  0.00     0.117 A 
HETATM   26  F   UNL     1      43.912 -10.393  -1.378  1.00  0.00    -0.206 F 
HETATM   27  C   UNL     1      42.590 -10.822  -3.281  1.00  0.00     0.042 A 
HETATM   28  C   UNL     1      41.573 -11.554  -3.891  1.00  0.00     0.004 A 
HETATM   29  C   UNL     1      40.899 -12.549  -3.175  1.00  0.00     0.017 A 
ENDBRANCH  20  23
ENDBRANCH  18  19
ENDBRANCH   2  18
TORSDOF 5
ENDMDL
MODEL 10
REMARK VINA RESULT:      -8.2      3.862      4.755
REMARK  5 active torsions:
REMARK  status: ('A' for Active; 'I' for Inactive)
REMARK    1  A    between atoms: C_7  and  C_8 
REMARK    2  A    between atoms: N_9  and  N_10 
REMARK       I    between atoms: N_10  and  C_11 
REMARK    3  A    between atoms: C_11  and  C_12 
REMARK    4  A    between atoms: C_12  and  N_13 
REMARK       I    between atoms: N_13  and  C_14 
REMARK    5  A    between atoms: C_14  and  C_15 
ROOT
HETATM    1  N   UNL     1      42.779 -15.191   2.574  1.00  0.00    -0.246 N 
HETATM    2  C   UNL     1      43.159 -13.916   2.961  1.00  0.00     0.255 C 
HETATM    3  O   UNL     1      44.167 -13.637   3.610  1.00  0.00    -0.270 OA
HETATM    4  H   UNL     1      41.853 -15.326   2.161  1.00  0.00     0.192 HD
ENDROOT
BRANCH   1   5
HETATM    5  N   UNL     1      43.552 -16.270   2.888  1.00  0.00    -0.184 NA
HETATM    6  C   UNL     1      42.978 -17.162   3.630  1.00  0.00     0.153 C 
BRANCH   6   7
HETATM    7  C   UNL     1      43.707 -18.343   4.055  1.00  0.00     0.018 A 
HETATM    8  C   UNL     1      44.416 -18.507   5.238  1.00  0.00     0.018 A 
HETATM    9  C   UNL     1      44.647 -17.579   6.379  1.00  0.00     0.069 C 
HETATM   10  N   UNL     1      44.934 -19.779   5.242  1.00  0.00    -0.358 N 
HETATM   11  H   UNL     1      45.494 -20.173   5.985  1.00  0.00     0.166 HD
HETATM   12  C   UNL     1      44.587 -20.448   4.095  1.00  0.00     0.043 A 
HETATM   13  C   UNL     1      43.819 -19.575   3.325  1.00  0.00     0.004 A 
HETATM   14  C   UNL     1      44.896 -21.752   3.686  1.00  0.00     0.030 A 
HETATM   15  C   UNL     1      43.340 -20.029   2.078  1.00  0.00     0.014 A 
HETATM   16  C   UNL     1      43.642 -21.327   1.651  1.00  0.00     0.001 A 
HETATM   17  C   UNL     1      44.407 -22.175   2.448  1.00  0.00     0.002 A 
ENDBRANCH   6   7
ENDBRANCH   1   5
BRANCH   2  18
HETATM   18  C   UNL     1      42.120 -12.848   2.612  1.00  0.00     0.227 C 
BRANCH  18  19
HETATM   19  N   UNL     1      41.834 -11.904   3.688  1.00  0.00    -0.348 N 
HETATM   20  C   UNL     1      40.799 -12.103   4.573  1.00  0.00     0.252 C 
HETATM   21  O   UNL     1      39.975 -12.997   4.395  1.00  0.00    -0.268 OA
HETATM   22  H   UNL     1      42.371 -11.049   3.696  1.00  0.00     0.163 HD
BRANCH  20  23
HETATM   23  C   UNL     1      40.657 -11.162   5.723  1.00  0.00     0.035 A 
HETATM   24  C   UNL     1      41.671 -11.165   6.690  1.00  0.00     0.059 A 
HETATM   25  C   UNL     1      41.595 -10.298   7.774  1.00  0.00     0.117 A 
HETATM   26  F   UNL     1      42.571 -10.306   8.692  1.00  0.00    -0.206 F 
HETATM   27  C   UNL     1      40.528  -9.422   7.920  1.00  0.00     0.042 A 
HETATM   28  C   UNL     1      39.518  -9.406   6.960  1.00  0.00     0.004 A 
HETATM   29  C   UNL     1      39.583 -10.269   5.860  1.00  0.00     0.017 A 
ENDBRANCH  20  23
ENDBRANCH  18  19
ENDBRANCH   2  18
TORSDOF 5
ENDMDL
