MODEL 1
REMARK VINA RESULT:      -8.3      0.000      0.000
REMARK  3 active torsions:
REMARK  status: ('A' for Active; 'I' for Inactive)
REMARK    1  A    between atoms: C_8  and  C_9 
REMARK    2  A    between atoms: C_14  and  C_15 
REMARK    3  A    between atoms: C_16  and  O_17 
ROOT
HETATM    1  C   UNL     1      40.087 -13.715   3.575  1.00  0.00     0.143 A 
HETATM    2  N   UNL     1      41.354 -13.439   3.785  1.00  0.00    -0.223 NA
HETATM    3  C   UNL     1      41.925 -14.560   4.373  1.00  0.00     0.149 A 
HETATM    4  C   UNL     1      40.966 -15.556   4.489  1.00  0.00     0.046 A 
HETATM    5  C   UNL     1      40.937 -16.949   5.013  1.00  0.00     0.070 C 
HETATM    6  C   UNL     1      42.187 -17.465   5.746  1.00  0.00     0.045 C 
HETATM    7  C   UNL     1      42.973 -16.382   6.496  1.00  0.00     0.132 C 
HETATM    8  N   UNL     1      43.775 -15.516   5.656  1.00  0.00    -0.355 N 
HETATM    9  C   UNL     1      43.342 -14.583   4.750  1.00  0.00     0.272 C 
HETATM   10  O   UNL     1      44.171 -13.802   4.284  1.00  0.00    -0.266 OA
HETATM   11  N   UNL     1      39.820 -14.995   3.968  1.00  0.00    -0.341 N 
HETATM   12  H   UNL     1      38.923 -15.448   3.895  1.00  0.00     0.167 HD
HETATM   13  H   UNL     1      44.764 -15.437   5.852  1.00  0.00     0.162 HD
ENDROOT
BRANCH   1  14
HETATM   14  C   UNL     1      39.103 -12.758   3.001  1.00  0.00     0.059 A 
HETATM   15  C   UNL     1      38.673 -11.557   3.535  1.00  0.00     0.040 A 
HETATM   16  C   UNL     1      38.989 -10.809   4.773  1.00  0.00     0.071 C 
HETATM   17  N   UNL     1      37.780 -11.063   2.621  1.00  0.00    -0.281 N 
HETATM   18  H   UNL     1      37.256 -10.194   2.665  1.00  0.00     0.189 HD
HETATM   19  N   UNL     1      37.602 -11.842   1.548  1.00  0.00    -0.179 NA
HETATM   20  C   UNL     1      38.411 -12.888   1.768  1.00  0.00     0.067 A 
HETATM   21  C   UNL     1      38.494 -13.989   0.776  1.00  0.00     0.073 C 
ENDBRANCH   1  14
BRANCH   6  22
HETATM   22  C   UNL     1      43.091 -18.378   4.915  1.00  0.00    -0.019 A 
HETATM   23  C   UNL     1      43.879 -19.370   5.541  1.00  0.00     0.074 A 
HETATM   24  C   UNL     1      44.725 -20.180   4.774  1.00  0.00     0.037 A 
HETATM   25  C   UNL     1      44.791 -20.023   3.389  1.00  0.00     0.003 A 
HETATM   26  C   UNL     1      44.016 -19.053   2.763  1.00  0.00     0.001 A 
HETATM   27  C   UNL     1      43.174 -18.237   3.519  1.00  0.00     0.010 A 
BRANCH  23  28
HETATM   28  O   UNL     1      43.779 -19.456   6.908  1.00  0.00    -0.355 OA
HETATM   29  C   UNL     1      43.555 -20.750   7.457  1.00  0.00     0.210 C 
ENDBRANCH  23  28
ENDBRANCH   6  22
TORSDOF 3
ENDMDL
MODEL 2
REMARK VINA RESULT:      -8.3      2.290      2.859
REMARK  3 active torsions:
REMARK  status: ('A' for Active; 'I' for Inactive)
REMARK    1  A    between atoms: C_8  and  C_9 
REMARK    2  A    between atoms: C_14  and  C_15 
REMARK    3  A    between atoms: C_16  and  O_17 
ROOT
HETATM    1  C   UNL     1      40.473 -14.731   0.774  1.00  0.00     0.143 A 
HETATM    2  N   UNL     1      41.541 -14.251   1.368  1.00  0.00    -0.223 NA
HETATM    3  C   UNL     1      41.877 -15.135   2.385  1.00  0.00     0.149 A 
HETATM    4  C   UNL     1      40.990 -16.202   2.375  1.00  0.00     0.046 A 
HETATM    5  C   UNL     1      40.811 -17.443   3.178  1.00  0.00     0.070 C 
HETATM    6  C   UNL     1      41.688 -17.622   4.429  1.00  0.00     0.045 C 
HETATM    7  C   UNL     1      42.069 -16.309   5.125  1.00  0.00     0.132 C 
HETATM    8  N   UNL     1      43.103 -15.541   4.462  1.00  0.00    -0.355 N 
HETATM    9  C   UNL     1      43.028 -14.888   3.259  1.00  0.00     0.272 C 
HETATM   10  O   UNL     1      43.941 -14.120   2.960  1.00  0.00    -0.266 OA
HETATM   11  N   UNL     1      40.123 -15.923   1.342  1.00  0.00    -0.341 N 
HETATM   12  H   UNL     1      39.346 -16.496   1.052  1.00  0.00     0.167 HD
HETATM   13  H   UNL     1      43.930 -15.291   4.988  1.00  0.00     0.162 HD
ENDROOT
BRANCH   1  14
HETATM   14  C   UNL     1      39.759 -14.057  -0.344  1.00  0.00     0.059 A 
HETATM   15  C   UNL     1      40.270 -13.665  -1.567  1.00  0.00     0.040 A 
HETATM   16  C   UNL     1      41.607 -13.749  -2.198  1.00  0.00     0.071 C 
HETATM   17  N   UNL     1      39.211 -13.106  -2.232  1.00  0.00    -0.281 N 
HETATM   18  H   UNL     1      39.199 -12.705  -3.164  1.00  0.00     0.189 HD
HETATM   19  N   UNL     1      38.065 -13.108  -1.541  1.00  0.00    -0.179 NA
HETATM   20  C   UNL     1      38.387 -13.691  -0.379  1.00  0.00     0.067 A 
HETATM   21  C   UNL     1      37.356 -13.881   0.672  1.00  0.00     0.073 C 
ENDBRANCH   1  14
BRANCH   6  22
HETATM   22  C   UNL     1      42.883 -18.561   4.251  1.00  0.00    -0.019 A 
HETATM   23  C   UNL     1      43.582 -19.052   5.376  1.00  0.00     0.074 A 
HETATM   24  C   UNL     1      44.692 -19.888   5.200  1.00  0.00     0.037 A 
HETATM   25  C   UNL     1      45.111 -20.249   3.919  1.00  0.00     0.003 A 
HETATM   26  C   UNL     1      44.427 -19.774   2.806  1.00  0.00     0.001 A 
HETATM   27  C   UNL     1      43.322 -18.936   2.970  1.00  0.00     0.010 A 
BRANCH  23  28
HETATM   28  O   UNL     1      43.128 -18.641   6.604  1.00  0.00    -0.355 OA
HETATM   29  C   UNL     1      43.890 -19.038   7.739  1.00  0.00     0.210 C 
ENDBRANCH  23  28
ENDBRANCH   6  22
TORSDOF 3
ENDMDL
MODEL 3
REMARK VINA RESULT:      -8.2      1.014      1.986
REMARK  3 active torsions:
REMARK  status: ('A' for Active; 'I' for Inactive)
REMARK    1  A    between atoms: C_8  and  C_9 
REMARK    2  A    between atoms: C_14  and  C_15 
REMARK    3  A    between atoms: C_16  and  O_17 
ROOT
HETATM    1  C   UNL     1      40.391 -13.487   4.877  1.00  0.00     0.143 A 
HETATM    2  N   UNL     1      41.674 -13.344   5.123  1.00  0.00    -0.223 NA
HETATM    3  C   UNL     1      42.162 -14.591   5.490  1.00  0.00     0.149 A 
HETATM    4  C   UNL     1      41.135 -15.521   5.429  1.00  0.00     0.046 A 
HETATM    5  C   UNL     1      41.006 -16.982   5.689  1.00  0.00     0.070 C 
HETATM    6  C   UNL     1      42.214 -17.710   6.303  1.00  0.00     0.045 C 
HETATM    7  C   UNL     1      43.071 -16.841   7.232  1.00  0.00     0.132 C 
HETATM    8  N   UNL     1      43.935 -15.893   6.559  1.00  0.00    -0.355 N 
HETATM    9  C   UNL     1      43.573 -14.782   5.843  1.00  0.00     0.272 C 
HETATM   10  O   UNL     1      44.456 -13.987   5.522  1.00  0.00    -0.266 OA
HETATM   11  N   UNL     1      40.033 -14.796   5.030  1.00  0.00    -0.341 N 
HETATM   12  H   UNL     1      39.107 -15.164   4.884  1.00  0.00     0.167 HD
HETATM   13  H   UNL     1      44.927 -15.921   6.757  1.00  0.00     0.162 HD
ENDROOT
BRANCH   1  14
HETATM   14  C   UNL     1      39.479 -12.375   4.498  1.00  0.00     0.059 A 
HETATM   15  C   UNL     1      38.821 -12.185   3.297  1.00  0.00     0.040 A 
HETATM   16  C   UNL     1      38.765 -12.940   2.024  1.00  0.00     0.071 C 
HETATM   17  N   UNL     1      38.107 -11.027   3.462  1.00  0.00    -0.281 N 
HETATM   18  H   UNL     1      37.498 -10.568   2.793  1.00  0.00     0.189 HD
HETATM   19  N   UNL     1      38.250 -10.461   4.666  1.00  0.00    -0.179 NA
HETATM   20  C   UNL     1      39.089 -11.280   5.314  1.00  0.00     0.067 A 
HETATM   21  C   UNL     1      39.494 -10.981   6.711  1.00  0.00     0.073 C 
ENDBRANCH   1  14
BRANCH   6  22
HETATM   22  C   UNL     1      43.055 -18.515   5.310  1.00  0.00    -0.019 A 
HETATM   23  C   UNL     1      43.881 -19.570   5.760  1.00  0.00     0.074 A 
HETATM   24  C   UNL     1      44.669 -20.281   4.846  1.00  0.00     0.037 A 
HETATM   25  C   UNL     1      44.639 -19.962   3.488  1.00  0.00     0.003 A 
HETATM   26  C   UNL     1      43.826 -18.929   3.035  1.00  0.00     0.001 A 
HETATM   27  C   UNL     1      43.041 -18.211   3.938  1.00  0.00     0.010 A 
BRANCH  23  28
HETATM   28  O   UNL     1      43.875 -19.816   7.110  1.00  0.00    -0.355 OA
HETATM   29  C   UNL     1      43.505 -21.126   7.525  1.00  0.00     0.210 C 
ENDBRANCH  23  28
ENDBRANCH   6  22
TORSDOF 3
ENDMDL
MODEL 4
REMARK VINA RESULT:      -8.2      2.200      2.715
REMARK  3 active torsions:
REMARK  status: ('A' for Active; 'I' for Inactive)
REMARK    1  A    between atoms: C_8  and  C_9 
REMARK    2  A    between atoms: C_14  and  C_15 
REMARK    3  A    between atoms: C_16  and  O_17 
ROOT
HETATM    1  C   UNL     1      40.278 -14.788   0.772  1.00  0.00     0.143 A 
HETATM    2  N   UNL     1      41.349 -14.260   1.320  1.00  0.00    -0.223 NA
HETATM    3  C   UNL     1      41.703 -15.068   2.392  1.00  0.00     0.149 A 
HETATM    4  C   UNL     1      40.825 -16.140   2.467  1.00  0.00     0.046 A 
HETATM    5  C   UNL     1      40.665 -17.324   3.356  1.00  0.00     0.070 C 
HETATM    6  C   UNL     1      41.558 -17.408   4.606  1.00  0.00     0.045 C 
HETATM    7  C   UNL     1      41.936 -16.047   5.204  1.00  0.00     0.132 C 
HETATM    8  N   UNL     1      42.956 -15.320   4.477  1.00  0.00    -0.355 N 
HETATM    9  C   UNL     1      42.862 -14.753   3.233  1.00  0.00     0.272 C 
HETATM   10  O   UNL     1      43.766 -14.000   2.870  1.00  0.00    -0.266 OA
HETATM   11  N   UNL     1      39.944 -15.940   1.426  1.00  0.00    -0.341 N 
HETATM   12  H   UNL     1      39.169 -16.538   1.186  1.00  0.00     0.167 HD
HETATM   13  H   UNL     1      43.787 -15.028   4.975  1.00  0.00     0.162 HD
ENDROOT
BRANCH   1  14
HETATM   14  C   UNL     1      39.546 -14.200  -0.381  1.00  0.00     0.059 A 
HETATM   15  C   UNL     1      38.419 -13.400  -0.356  1.00  0.00     0.040 A 
HETATM   16  C   UNL     1      37.567 -12.856   0.727  1.00  0.00     0.071 C 
HETATM   17  N   UNL     1      38.151 -13.121  -1.670  1.00  0.00    -0.281 N 
HETATM   18  H   UNL     1      37.398 -12.557  -2.049  1.00  0.00     0.189 HD
HETATM   19  N   UNL     1      39.011 -13.673  -2.535  1.00  0.00    -0.179 NA
HETATM   20  C   UNL     1      39.874 -14.338  -1.755  1.00  0.00     0.067 A 
HETATM   21  C   UNL     1      41.000 -15.093  -2.363  1.00  0.00     0.073 C 
ENDBRANCH   1  14
BRANCH   6  22
HETATM   22  C   UNL     1      42.758 -18.348   4.480  1.00  0.00    -0.019 A 
HETATM   23  C   UNL     1      43.440 -18.799   5.632  1.00  0.00     0.074 A 
HETATM   24  C   UNL     1      44.555 -19.636   5.504  1.00  0.00     0.037 A 
HETATM   25  C   UNL     1      44.997 -20.038   4.243  1.00  0.00     0.003 A 
HETATM   26  C   UNL     1      44.330 -19.604   3.102  1.00  0.00     0.001 A 
HETATM   27  C   UNL     1      43.220 -18.765   3.220  1.00  0.00     0.010 A 
BRANCH  23  28
HETATM   28  O   UNL     1      42.964 -18.348   6.838  1.00  0.00    -0.355 OA
HETATM   29  C   UNL     1      43.895 -18.278   7.913  1.00  0.00     0.210 C 
ENDBRANCH  23  28
ENDBRANCH   6  22
TORSDOF 3
ENDMDL
MODEL 5
REMARK VINA RESULT:      -8.0      3.445      4.668
REMARK  3 active torsions:
REMARK  status: ('A' for Active; 'I' for Inactive)
REMARK    1  A    between atoms: C_8  and  C_9 
REMARK    2  A    between atoms: C_14  and  C_15 
REMARK    3  A    between atoms: C_16  and  O_17 
ROOT
HETATM    1  C   UNL     1      41.574 -14.704  -0.307  1.00  0.00     0.143 A 
HETATM    2  N   UNL     1      40.676 -14.391   0.599  1.00  0.00    -0.223 NA
HETATM    3  C   UNL     1      41.017 -15.065   1.765  1.00  0.00     0.149 A 
HETATM    4  C   UNL     1      42.185 -15.783   1.553  1.00  0.00     0.046 A 
HETATM    5  C   UNL     1      43.046 -16.679   2.373  1.00  0.00     0.070 C 
HETATM    6  C   UNL     1      42.542 -17.076   3.771  1.00  0.00     0.045 C 
HETATM    7  C   UNL     1      41.015 -17.164   3.890  1.00  0.00     0.132 C 
HETATM    8  N   UNL     1      40.332 -15.888   3.963  1.00  0.00    -0.355 N 
HETATM    9  C   UNL     1      40.207 -14.941   2.981  1.00  0.00     0.272 C 
HETATM   10  O   UNL     1      39.416 -14.016   3.165  1.00  0.00    -0.266 OA
HETATM   11  N   UNL     1      42.517 -15.527   0.240  1.00  0.00    -0.341 N 
HETATM   12  H   UNL     1      43.318 -15.894  -0.248  1.00  0.00     0.167 HD
HETATM   13  H   UNL     1      39.722 -15.713   4.751  1.00  0.00     0.162 HD
ENDROOT
BRANCH   1  14
HETATM   14  C   UNL     1      41.546 -14.230  -1.717  1.00  0.00     0.059 A 
HETATM   15  C   UNL     1      42.081 -13.065  -2.233  1.00  0.00     0.040 A 
HETATM   16  C   UNL     1      42.827 -11.927  -1.649  1.00  0.00     0.071 C 
HETATM   17  N   UNL     1      41.795 -13.106  -3.573  1.00  0.00    -0.281 N 
HETATM   18  H   UNL     1      42.032 -12.422  -4.284  1.00  0.00     0.189 HD
HETATM   19  N   UNL     1      41.125 -14.198  -3.958  1.00  0.00    -0.179 NA
HETATM   20  C   UNL     1      40.966 -14.898  -2.827  1.00  0.00     0.067 A 
HETATM   21  C   UNL     1      40.255 -16.202  -2.849  1.00  0.00     0.073 C 
ENDBRANCH   1  14
BRANCH   6  22
HETATM   22  C   UNL     1      43.178 -16.306   4.930  1.00  0.00    -0.019 A 
HETATM   23  C   UNL     1      43.462 -16.956   6.152  1.00  0.00     0.074 A 
HETATM   24  C   UNL     1      44.018 -16.235   7.216  1.00  0.00     0.037 A 
HETATM   25  C   UNL     1      44.303 -14.876   7.078  1.00  0.00     0.003 A 
HETATM   26  C   UNL     1      44.031 -14.228   5.878  1.00  0.00     0.001 A 
HETATM   27  C   UNL     1      43.472 -14.937   4.813  1.00  0.00     0.010 A 
BRANCH  23  28
HETATM   28  O   UNL     1      43.138 -18.288   6.225  1.00  0.00    -0.355 OA
HETATM   29  C   UNL     1      43.756 -19.046   7.259  1.00  0.00     0.210 C 
ENDBRANCH  23  28
ENDBRANCH   6  22
TORSDOF 3
ENDMDL
MODEL 6
REMARK VINA RESULT:      -7.7      3.167      8.093
REMARK  3 active torsions:
REMARK  status: ('A' for Active; 'I' for Inactive)
REMARK    1  A    between atoms: C_8  and  C_9 
REMARK    2  A    between atoms: C_14  and  C_15 
REMARK    3  A    between atoms: C_16  and  O_17 
ROOT
HETATM    1  C   UNL     1      43.776 -19.561   3.710  1.00  0.00     0.143 A 
HETATM    2  N   UNL     1      43.331 -18.817   4.697  1.00  0.00    -0.223 NA
HETATM    3  C   UNL     1      43.076 -17.555   4.177  1.00  0.00     0.149 A 
HETATM    4  C   UNL     1      43.349 -17.556   2.817  1.00  0.00     0.046 A 
HETATM    5  C   UNL     1      43.282 -16.554   1.718  1.00  0.00     0.070 C 
HETATM    6  C   UNL     1      42.970 -15.096   2.095  1.00  0.00     0.045 C 
HETATM    7  C   UNL     1      43.480 -14.679   3.480  1.00  0.00     0.132 C 
HETATM    8  N   UNL     1      42.700 -15.175   4.595  1.00  0.00    -0.355 N 
HETATM    9  C   UNL     1      42.572 -16.470   5.026  1.00  0.00     0.272 C 
HETATM   10  O   UNL     1      42.032 -16.668   6.113  1.00  0.00    -0.266 OA
HETATM   11  N   UNL     1      43.779 -18.838   2.551  1.00  0.00    -0.341 N 
HETATM   12  H   UNL     1      44.062 -19.190   1.650  1.00  0.00     0.167 HD
HETATM   13  H   UNL     1      42.330 -14.507   5.259  1.00  0.00     0.162 HD
ENDROOT
BRANCH   1  14
HETATM   14  C   UNL     1      44.214 -20.975   3.854  1.00  0.00     0.059 A 
HETATM   15  C   UNL     1      44.470 -21.672   5.020  1.00  0.00     0.040 A 
HETATM   16  C   UNL     1      44.416 -21.326   6.458  1.00  0.00     0.071 C 
HETATM   17  N   UNL     1      44.830 -22.929   4.610  1.00  0.00    -0.281 N 
HETATM   18  H   UNL     1      45.089 -23.724   5.185  1.00  0.00     0.189 HD
HETATM   19  N   UNL     1      44.825 -23.097   3.282  1.00  0.00    -0.179 NA
HETATM   20  C   UNL     1      44.446 -21.903   2.805  1.00  0.00     0.067 A 
HETATM   21  C   UNL     1      44.318 -21.691   1.341  1.00  0.00     0.073 C 
ENDBRANCH   1  14
BRANCH   6  22
HETATM   22  C   UNL     1      41.525 -14.659   1.845  1.00  0.00    -0.019 A 
HETATM   23  C   UNL     1      41.239 -13.353   1.387  1.00  0.00     0.074 A 
HETATM   24  C   UNL     1      39.911 -12.955   1.190  1.00  0.00     0.037 A 
HETATM   25  C   UNL     1      38.863 -13.843   1.434  1.00  0.00     0.003 A 
HETATM   26  C   UNL     1      39.133 -15.131   1.880  1.00  0.00     0.001 A 
HETATM   27  C   UNL     1      40.453 -15.536   2.085  1.00  0.00     0.010 A 
BRANCH  23  28
HETATM   28  O   UNL     1      42.317 -12.527   1.188  1.00  0.00    -0.355 OA
HETATM   29  C   UNL     1      42.127 -11.420   0.314  1.00  0.00     0.210 C 
ENDBRANCH  23  28
ENDBRANCH   6  22
TORSDOF 3
ENDMDL
MODEL 7
REMARK VINA RESULT:      -7.7      2.442      7.804
REMARK  3 active torsions:
REMARK  status: ('A' for Active; 'I' for Inactive)
REMARK    1  A    between atoms: C_8  and  C_9 
REMARK    2  A    between atoms: C_14  and  C_15 
REMARK    3  A    between atoms: C_16  and  O_17 
ROOT
HETATM    1  C   UNL     1      43.044 -17.557   4.181  1.00  0.00     0.143 A 
HETATM    2  N   UNL     1      43.703 -16.437   3.988  1.00  0.00    -0.223 NA
HETATM    3  C   UNL     1      42.821 -15.540   3.398  1.00  0.00     0.149 A 
HETATM    4  C   UNL     1      41.577 -16.140   3.265  1.00  0.00     0.046 A 
HETATM    5  C   UNL     1      40.250 -15.729   2.732  1.00  0.00     0.070 C 
HETATM    6  C   UNL     1      40.155 -14.374   2.010  1.00  0.00     0.045 C 
HETATM    7  C   UNL     1      41.437 -13.958   1.276  1.00  0.00     0.132 C 
HETATM    8  N   UNL     1      42.501 -13.473   2.130  1.00  0.00    -0.355 N 
HETATM    9  C   UNL     1      43.244 -14.183   3.038  1.00  0.00     0.272 C 
HETATM   10  O   UNL     1      44.241 -13.643   3.518  1.00  0.00    -0.266 OA
HETATM   11  N   UNL     1      41.748 -17.408   3.777  1.00  0.00    -0.341 N 
HETATM   12  H   UNL     1      41.037 -18.120   3.837  1.00  0.00     0.167 HD
HETATM   13  H   UNL     1      42.887 -12.556   1.946  1.00  0.00     0.162 HD
ENDROOT
BRANCH   1  14
HETATM   14  C   UNL     1      43.641 -18.795   4.750  1.00  0.00     0.059 A 
HETATM   15  C   UNL     1      43.755 -19.152   6.081  1.00  0.00     0.040 A 
HETATM   16  C   UNL     1      43.365 -18.508   7.355  1.00  0.00     0.071 C 
HETATM   17  N   UNL     1      44.364 -20.379   6.068  1.00  0.00    -0.281 N 
HETATM   18  H   UNL     1      44.614 -20.961   6.861  1.00  0.00     0.189 HD
HETATM   19  N   UNL     1      44.649 -20.839   4.845  1.00  0.00    -0.179 NA
HETATM   20  C   UNL     1      44.208 -19.875   4.024  1.00  0.00     0.067 A 
HETATM   21  C   UNL     1      44.347 -20.026   2.553  1.00  0.00     0.073 C 
ENDBRANCH   1  14
BRANCH   6  22
HETATM   22  C   UNL     1      39.562 -13.237   2.845  1.00  0.00    -0.019 A 
HETATM   23  C   UNL     1      38.764 -12.242   2.238  1.00  0.00     0.074 A 
HETATM   24  C   UNL     1      38.250 -11.190   3.007  1.00  0.00     0.037 A 
HETATM   25  C   UNL     1      38.512 -11.121   4.375  1.00  0.00     0.003 A 
HETATM   26  C   UNL     1      39.292 -12.098   4.984  1.00  0.00     0.001 A 
HETATM   27  C   UNL     1      39.813 -13.147   4.225  1.00  0.00     0.010 A 
BRANCH  23  28
HETATM   28  O   UNL     1      38.564 -12.362   0.885  1.00  0.00    -0.355 OA
HETATM   29  C   UNL     1      37.237 -12.641   0.453  1.00  0.00     0.210 C 
ENDBRANCH  23  28
ENDBRANCH   6  22
TORSDOF 3
ENDMDL
MODEL 8
REMARK VINA RESULT:      -7.5      2.558      7.843
REMARK  3 active torsions:
REMARK  status: ('A' for Active; 'I' for Inactive)
REMARK    1  A    between atoms: C_8  and  C_9 
REMARK    2  A    between atoms: C_14  and  C_15 
REMARK    3  A    between atoms: C_16  and  O_17 
ROOT
HETATM    1  C   UNL     1      43.127 -17.335   3.837  1.00  0.00     0.143 A 
HETATM    2  N   UNL     1      42.304 -16.819   4.721  1.00  0.00    -0.223 NA
HETATM    3  C   UNL     1      41.796 -15.648   4.175  1.00  0.00     0.149 A 
HETATM    4  C   UNL     1      42.315 -15.475   2.900  1.00  0.00     0.046 A 
HETATM    5  C   UNL     1      42.171 -14.457   1.823  1.00  0.00     0.070 C 
HETATM    6  C   UNL     1      41.382 -13.177   2.145  1.00  0.00     0.045 C 
HETATM    7  C   UNL     1      41.471 -12.733   3.611  1.00  0.00     0.132 C 
HETATM    8  N   UNL     1      40.670 -13.507   4.536  1.00  0.00    -0.355 N 
HETATM    9  C   UNL     1      40.845 -14.813   4.915  1.00  0.00     0.272 C 
HETATM   10  O   UNL     1      40.187 -15.232   5.867  1.00  0.00    -0.266 OA
HETATM   11  N   UNL     1      43.143 -16.560   2.712  1.00  0.00    -0.341 N 
HETATM   12  H   UNL     1      43.684 -16.752   1.884  1.00  0.00     0.167 HD
HETATM   13  H   UNL     1      40.000 -13.021   5.118  1.00  0.00     0.162 HD
ENDROOT
BRANCH   1  14
HETATM   14  C   UNL     1      43.922 -18.573   4.051  1.00  0.00     0.059 A 
HETATM   15  C   UNL     1      44.751 -18.880   5.114  1.00  0.00     0.040 A 
HETATM   16  C   UNL     1      45.143 -18.169   6.351  1.00  0.00     0.071 C 
HETATM   17  N   UNL     1      45.234 -20.132   4.837  1.00  0.00    -0.281 N 
HETATM   18  H   UNL     1      45.874 -20.692   5.392  1.00  0.00     0.189 HD
HETATM   19  N   UNL     1      44.786 -20.653   3.690  1.00  0.00    -0.179 NA
HETATM   20  C   UNL     1      43.977 -19.706   3.196  1.00  0.00     0.067 A 
HETATM   21  C   UNL     1      43.274 -19.922   1.906  1.00  0.00     0.073 C 
ENDBRANCH   1  14
BRANCH   6  22
HETATM   22  C   UNL     1      39.948 -13.151   1.610  1.00  0.00    -0.019 A 
HETATM   23  C   UNL     1      39.353 -11.932   1.213  1.00  0.00     0.074 A 
HETATM   24  C   UNL     1      38.031 -11.916   0.752  1.00  0.00     0.037 A 
HETATM   25  C   UNL     1      37.295 -13.099   0.671  1.00  0.00     0.003 A 
HETATM   26  C   UNL     1      37.873 -14.304   1.055  1.00  0.00     0.001 A 
HETATM   27  C   UNL     1      39.188 -14.330   1.521  1.00  0.00     0.010 A 
BRANCH  23  28
HETATM   28  O   UNL     1      40.128 -10.806   1.338  1.00  0.00    -0.355 OA
HETATM   29  C   UNL     1      39.597  -9.742   2.120  1.00  0.00     0.210 C 
ENDBRANCH  23  28
ENDBRANCH   6  22
TORSDOF 3
ENDMDL
MODEL 9
REMARK VINA RESULT:      -7.5      2.805      3.973
REMARK  3 active torsions:
REMARK  status: ('A' for Active; 'I' for Inactive)
REMARK    1  A    between atoms: C_8  and  C_9 
REMARK    2  A    between atoms: C_14  and  C_15 
REMARK    3  A    between atoms: C_16  and  O_17 
ROOT
HETATM    1  C   UNL     1      38.873 -13.267  -0.576  1.00  0.00     0.143 A 
HETATM    2  N   UNL     1      40.005 -12.742  -0.166  1.00  0.00    -0.223 NA
HETATM    3  C   UNL     1      40.515 -13.581   0.816  1.00  0.00     0.149 A 
HETATM    4  C   UNL     1      39.667 -14.668   0.975  1.00  0.00     0.046 A 
HETATM    5  C   UNL     1      39.647 -15.883   1.835  1.00  0.00     0.070 C 
HETATM    6  C   UNL     1      40.707 -15.996   2.943  1.00  0.00     0.045 C 
HETATM    7  C   UNL     1      41.153 -14.651   3.531  1.00  0.00     0.132 C 
HETATM    8  N   UNL     1      42.052 -13.884   2.694  1.00  0.00    -0.355 N 
HETATM    9  C   UNL     1      41.778 -13.277   1.496  1.00  0.00     0.272 C 
HETATM   10  O   UNL     1      42.614 -12.498   1.037  1.00  0.00    -0.266 OA
HETATM   11  N   UNL     1      38.647 -14.446   0.077  1.00  0.00    -0.341 N 
HETATM   12  H   UNL     1      37.852 -15.047  -0.073  1.00  0.00     0.167 HD
HETATM   13  H   UNL     1      42.942 -13.596   3.080  1.00  0.00     0.162 HD
ENDROOT
BRANCH   1  14
HETATM   14  C   UNL     1      37.980 -12.652  -1.593  1.00  0.00     0.059 A 
HETATM   15  C   UNL     1      37.273 -11.467  -1.500  1.00  0.00     0.040 A 
HETATM   16  C   UNL     1      37.135 -10.431  -0.451  1.00  0.00     0.071 C 
HETATM   17  N   UNL     1      36.619 -11.349  -2.698  1.00  0.00    -0.281 N 
HETATM   18  H   UNL     1      36.001 -10.603  -3.003  1.00  0.00     0.189 HD
HETATM   19  N   UNL     1      36.846 -12.355  -3.550  1.00  0.00    -0.179 NA
HETATM   20  C   UNL     1      37.683 -13.163  -2.884  1.00  0.00     0.067 A 
HETATM   21  C   UNL     1      38.175 -14.412  -3.516  1.00  0.00     0.073 C 
ENDBRANCH   1  14
BRANCH   6  22
HETATM   22  C   UNL     1      41.888 -16.913   2.616  1.00  0.00    -0.019 A 
HETATM   23  C   UNL     1      42.346 -17.857   3.562  1.00  0.00     0.074 A 
HETATM   24  C   UNL     1      43.445 -18.672   3.263  1.00  0.00     0.037 A 
HETATM   25  C   UNL     1      44.090 -18.565   2.030  1.00  0.00     0.003 A 
HETATM   26  C   UNL     1      43.645 -17.642   1.091  1.00  0.00     0.001 A 
HETATM   27  C   UNL     1      42.553 -16.822   1.381  1.00  0.00     0.010 A 
BRANCH  23  28
HETATM   28  O   UNL     1      41.677 -17.894   4.760  1.00  0.00    -0.355 OA
HETATM   29  C   UNL     1      42.455 -17.706   5.938  1.00  0.00     0.210 C 
ENDBRANCH  23  28
ENDBRANCH   6  22
TORSDOF 3
ENDMDL
MODEL 10
REMARK VINA RESULT:      -7.4      3.149      8.116
REMARK  3 active torsions:
REMARK  status: ('A' for Active; 'I' for Inactive)
REMARK    1  A    between atoms: C_8  and  C_9 
REMARK    2  A    between atoms: C_14  and  C_15 
REMARK    3  A    between atoms: C_16  and  O_17 
ROOT
HETATM    1  C   UNL     1      43.445 -18.209   3.023  1.00  0.00     0.143 A 
HETATM    2  N   UNL     1      43.380 -17.027   3.593  1.00  0.00    -0.223 NA
HETATM    3  C   UNL     1      42.775 -16.167   2.685  1.00  0.00     0.149 A 
HETATM    4  C   UNL     1      42.437 -16.874   1.539  1.00  0.00     0.046 A 
HETATM    5  C   UNL     1      41.785 -16.547   0.242  1.00  0.00     0.070 C 
HETATM    6  C   UNL     1      41.491 -15.069  -0.061  1.00  0.00     0.045 C 
HETATM    7  C   UNL     1      42.490 -14.085   0.562  1.00  0.00     0.132 C 
HETATM    8  N   UNL     1      42.329 -13.867   1.985  1.00  0.00    -0.355 N 
HETATM    9  C   UNL     1      42.556 -14.753   3.005  1.00  0.00     0.272 C 
HETATM   10  O   UNL     1      42.562 -14.320   4.157  1.00  0.00    -0.266 OA
HETATM   11  N   UNL     1      42.864 -18.161   1.788  1.00  0.00    -0.341 N 
HETATM   12  H   UNL     1      42.774 -18.943   1.159  1.00  0.00     0.167 HD
HETATM   13  H   UNL     1      42.201 -12.919   2.315  1.00  0.00     0.162 HD
ENDROOT
BRANCH   1  14
HETATM   14  C   UNL     1      44.070 -19.407   3.644  1.00  0.00     0.059 A 
HETATM   15  C   UNL     1      44.636 -19.518   4.900  1.00  0.00     0.040 A 
HETATM   16  C   UNL     1      44.830 -18.578   6.028  1.00  0.00     0.071 C 
HETATM   17  N   UNL     1      45.056 -20.819   4.987  1.00  0.00    -0.281 N 
HETATM   18  H   UNL     1      45.519 -21.276   5.766  1.00  0.00     0.189 HD
HETATM   19  N   UNL     1      44.806 -21.551   3.896  1.00  0.00    -0.179 NA
HETATM   20  C   UNL     1      44.199 -20.696   3.062  1.00  0.00     0.067 A 
HETATM   21  C   UNL     1      43.756 -21.149   1.719  1.00  0.00     0.073 C 
ENDBRANCH   1  14
BRANCH   6  22
HETATM   22  C   UNL     1      40.037 -14.643   0.154  1.00  0.00    -0.019 A 
HETATM   23  C   UNL     1      39.369 -13.858  -0.814  1.00  0.00     0.074 A 
HETATM   24  C   UNL     1      38.048 -13.450  -0.593  1.00  0.00     0.037 A 
HETATM   25  C   UNL     1      37.378 -13.820   0.573  1.00  0.00     0.003 A 
HETATM   26  C   UNL     1      38.024 -14.595   1.529  1.00  0.00     0.001 A 
HETATM   27  C   UNL     1      39.343 -15.003   1.322  1.00  0.00     0.010 A 
BRANCH  23  28
HETATM   28  O   UNL     1      40.095 -13.515  -1.927  1.00  0.00    -0.355 OA
HETATM   29  C   UNL     1      39.653 -14.045  -3.172  1.00  0.00     0.210 C 
ENDBRANCH  23  28
ENDBRANCH   6  22
TORSDOF 3
ENDMDL
