MODEL 1
REMARK VINA RESULT:      -8.5      0.000      0.000
REMARK  6 active torsions:
REMARK  status: ('A' for Active; 'I' for Inactive)
REMARK    1  A    between atoms: C_2  and  N_3 
REMARK       I    between atoms: N_3  and  C_4 
REMARK    2  A    between atoms: C_4  and  C_5 
REMARK    3  A    between atoms: C_5  and  O_6 
REMARK    4  A    between atoms: O_6  and  C_7 
REMARK    5  A    between atoms: C_10  and  N_11 
REMARK       I    between atoms: N_11  and  C_12 
REMARK    6  A    between atoms: C_12  and  C_13 
ROOT
HETATM    1  N   UNL     1      42.060 -17.282   3.268  1.00  0.00    -0.322 N 
HETATM    2  C   UNL     1      43.118 -16.920   4.082  1.00  0.00     0.277 C 
HETATM    3  O   UNL     1      43.596 -15.797   4.195  1.00  0.00    -0.266 OA
HETATM    4  H   UNL     1      41.808 -18.264   3.352  1.00  0.00     0.169 HD
ENDROOT
BRANCH   1   5
HETATM    5  C   UNL     1      41.406 -16.507   2.296  1.00  0.00     0.035 A 
HETATM    6  C   UNL     1      40.263 -15.746   2.554  1.00  0.00     0.032 A 
HETATM    7  C   UNL     1      39.714 -14.933   1.558  1.00  0.00     0.039 A 
HETATM    8  C   UNL     1      40.314 -14.875   0.305  1.00  0.00     0.069 A 
HETATM    9  C   UNL     1      41.421 -15.667   0.015  1.00  0.00     0.039 A 
HETATM   10  C   UNL     1      41.970 -16.476   1.014  1.00  0.00     0.032 A 
BRANCH   8  11
HETATM   11  O   UNL     1      39.798 -14.071  -0.673  1.00  0.00    -0.342 OA
BRANCH  11  12
HETATM   12  C   UNL     1      40.499 -14.264  -1.907  1.00  0.00     0.278 C 
BRANCH  12  13
HETATM   13  C   UNL     1      39.613 -14.838  -3.014  1.00  0.00     0.241 C 
HETATM   14  N   UNL     1      38.272 -14.893  -2.691  1.00  0.00    -0.360 N 
HETATM   15  H   UNL     1      37.989 -14.339  -1.887  1.00  0.00     0.162 HD
HETATM   16  O   UNL     1      40.072 -15.250  -4.076  1.00  0.00    -0.271 OA
BRANCH  14  17
HETATM   17  C   UNL     1      37.282 -15.263  -3.678  1.00  0.00     0.118 C 
HETATM   18  C   UNL     1      36.647 -14.040  -4.311  1.00  0.00     0.026 C 
ENDBRANCH  14  17
ENDBRANCH  12  13
ENDBRANCH  11  12
ENDBRANCH   8  11
ENDBRANCH   1   5
BRANCH   2  19
HETATM   19  C   UNL     1      43.667 -18.081   4.808  1.00  0.00     0.157 A 
HETATM   20  N   UNL     1      43.880 -18.042   6.143  1.00  0.00    -0.168 NA
HETATM   21  N   UNL     1      44.328 -19.278   6.431  1.00  0.00    -0.277 N 
HETATM   22  H   UNL     1      44.558 -19.496   7.394  1.00  0.00     0.189 HD
HETATM   23  C   UNL     1      44.400 -20.120   5.355  1.00  0.00     0.063 A 
HETATM   24  C   UNL     1      43.989 -19.360   4.268  1.00  0.00     0.029 A 
HETATM   25  C   UNL     1      44.773 -21.462   5.250  1.00  0.00     0.032 A 
HETATM   26  C   UNL     1      43.950 -19.963   2.995  1.00  0.00     0.023 A 
HETATM   27  C   UNL     1      44.330 -21.308   2.852  1.00  0.00    -0.061 A 
HETATM   28  C   UNL     1      44.721 -22.042   3.978  1.00  0.00     0.009 A 
HETATM   29  C   UNL     1      44.248 -21.962   1.502  1.00  0.00     0.048 C 
ENDBRANCH   2  19
TORSDOF 6
ENDMDL
MODEL 2
REMARK VINA RESULT:      -8.1      1.603      2.107
REMARK  6 active torsions:
REMARK  status: ('A' for Active; 'I' for Inactive)
REMARK    1  A    between atoms: C_2  and  N_3 
REMARK       I    between atoms: N_3  and  C_4 
REMARK    2  A    between atoms: C_4  and  C_5 
REMARK    3  A    between atoms: C_5  and  O_6 
REMARK    4  A    between atoms: O_6  and  C_7 
REMARK    5  A    between atoms: C_10  and  N_11 
REMARK       I    between atoms: N_11  and  C_12 
REMARK    6  A    between atoms: C_12  and  C_13 
ROOT
HETATM    1  N   UNL     1      41.979 -16.498   3.855  1.00  0.00    -0.322 N 
HETATM    2  C   UNL     1      43.282 -16.779   3.487  1.00  0.00     0.277 C 
HETATM    3  O   UNL     1      43.917 -16.233   2.592  1.00  0.00    -0.266 OA
HETATM    4  H   UNL     1      41.658 -17.052   4.646  1.00  0.00     0.169 HD
ENDROOT
BRANCH   1   5
HETATM    5  C   UNL     1      41.054 -15.661   3.211  1.00  0.00     0.035 A 
HETATM    6  C   UNL     1      40.113 -16.116   2.283  1.00  0.00     0.032 A 
HETATM    7  C   UNL     1      39.168 -15.239   1.743  1.00  0.00     0.039 A 
HETATM    8  C   UNL     1      39.161 -13.905   2.138  1.00  0.00     0.069 A 
HETATM    9  C   UNL     1      40.123 -13.423   3.019  1.00  0.00     0.039 A 
HETATM   10  C   UNL     1      41.064 -14.304   3.560  1.00  0.00     0.032 A 
BRANCH   8  11
HETATM   11  O   UNL     1      38.231 -13.040   1.631  1.00  0.00    -0.342 OA
BRANCH  11  12
HETATM   12  C   UNL     1      37.435 -13.684   0.630  1.00  0.00     0.278 C 
BRANCH  12  13
HETATM   13  C   UNL     1      37.822 -13.279  -0.793  1.00  0.00     0.241 C 
HETATM   14  N   UNL     1      38.080 -14.344  -1.632  1.00  0.00    -0.360 N 
HETATM   15  H   UNL     1      37.757 -15.251  -1.306  1.00  0.00     0.162 HD
HETATM   16  O   UNL     1      37.931 -12.104  -1.135  1.00  0.00    -0.271 OA
BRANCH  14  17
HETATM   17  C   UNL     1      38.307 -14.141  -3.047  1.00  0.00     0.118 C 
HETATM   18  C   UNL     1      39.756 -14.388  -3.416  1.00  0.00     0.026 C 
ENDBRANCH  14  17
ENDBRANCH  12  13
ENDBRANCH  11  12
ENDBRANCH   8  11
ENDBRANCH   1   5
BRANCH   2  19
HETATM   19  C   UNL     1      43.850 -17.877   4.293  1.00  0.00     0.157 A 
HETATM   20  N   UNL     1      44.155 -17.708   5.600  1.00  0.00    -0.168 NA
HETATM   21  N   UNL     1      44.592 -18.922   5.984  1.00  0.00    -0.277 N 
HETATM   22  H   UNL     1      44.882 -19.048   6.947  1.00  0.00     0.189 HD
HETATM   23  C   UNL     1      44.568 -19.871   5.000  1.00  0.00     0.063 A 
HETATM   24  C   UNL     1      44.103 -19.214   3.868  1.00  0.00     0.029 A 
HETATM   25  C   UNL     1      44.900 -21.228   5.010  1.00  0.00     0.032 A 
HETATM   26  C   UNL     1      43.962 -19.941   2.670  1.00  0.00     0.023 A 
HETATM   27  C   UNL     1      44.298 -21.305   2.643  1.00  0.00    -0.061 A 
HETATM   28  C   UNL     1      44.747 -21.933   3.811  1.00  0.00     0.009 A 
HETATM   29  C   UNL     1      44.107 -22.091   1.377  1.00  0.00     0.048 C 
ENDBRANCH   2  19
TORSDOF 6
ENDMDL
MODEL 3
REMARK VINA RESULT:      -8.0      1.254      1.815
REMARK  6 active torsions:
REMARK  status: ('A' for Active; 'I' for Inactive)
REMARK    1  A    between atoms: C_2  and  N_3 
REMARK       I    between atoms: N_3  and  C_4 
REMARK    2  A    between atoms: C_4  and  C_5 
REMARK    3  A    between atoms: C_5  and  O_6 
REMARK    4  A    between atoms: O_6  and  C_7 
REMARK    5  A    between atoms: C_10  and  N_11 
REMARK       I    between atoms: N_11  and  C_12 
REMARK    6  A    between atoms: C_12  and  C_13 
ROOT
HETATM    1  N   UNL     1      42.049 -17.136   3.194  1.00  0.00    -0.322 N 
HETATM    2  C   UNL     1      43.132 -16.775   3.975  1.00  0.00     0.277 C 
HETATM    3  O   UNL     1      43.634 -15.659   4.049  1.00  0.00    -0.266 OA
HETATM    4  H   UNL     1      41.780 -18.110   3.309  1.00  0.00     0.169 HD
ENDROOT
BRANCH   1   5
HETATM    5  C   UNL     1      41.390 -16.374   2.216  1.00  0.00     0.035 A 
HETATM    6  C   UNL     1      40.266 -15.586   2.477  1.00  0.00     0.032 A 
HETATM    7  C   UNL     1      39.712 -14.787   1.472  1.00  0.00     0.039 A 
HETATM    8  C   UNL     1      40.288 -14.772   0.206  1.00  0.00     0.069 A 
HETATM    9  C   UNL     1      41.375 -15.591  -0.085  1.00  0.00     0.039 A 
HETATM   10  C   UNL     1      41.929 -16.385   0.923  1.00  0.00     0.032 A 
BRANCH   8  11
HETATM   11  O   UNL     1      39.767 -13.983  -0.781  1.00  0.00    -0.342 OA
BRANCH  11  12
HETATM   12  C   UNL     1      39.763 -14.678  -2.033  1.00  0.00     0.278 C 
BRANCH  12  13
HETATM   13  C   UNL     1      40.603 -13.983  -3.105  1.00  0.00     0.241 C 
HETATM   14  N   UNL     1      40.429 -12.615  -3.158  1.00  0.00    -0.360 N 
HETATM   15  H   UNL     1      39.973 -12.197  -2.352  1.00  0.00     0.162 HD
HETATM   16  O   UNL     1      41.333 -14.604  -3.874  1.00  0.00    -0.271 OA
BRANCH  14  17
HETATM   17  C   UNL     1      41.261 -11.789  -4.007  1.00  0.00     0.118 C 
HETATM   18  C   UNL     1      42.420 -11.192  -3.235  1.00  0.00     0.026 C 
ENDBRANCH  14  17
ENDBRANCH  12  13
ENDBRANCH  11  12
ENDBRANCH   8  11
ENDBRANCH   1   5
BRANCH   2  19
HETATM   19  C   UNL     1      43.673 -17.928   4.721  1.00  0.00     0.157 A 
HETATM   20  N   UNL     1      43.889 -17.867   6.054  1.00  0.00    -0.168 NA
HETATM   21  N   UNL     1      44.329 -19.102   6.362  1.00  0.00    -0.277 N 
HETATM   22  H   UNL     1      44.559 -19.305   7.328  1.00  0.00     0.189 HD
HETATM   23  C   UNL     1      44.391 -19.963   5.301  1.00  0.00     0.063 A 
HETATM   24  C   UNL     1      43.983 -19.219   4.201  1.00  0.00     0.029 A 
HETATM   25  C   UNL     1      44.753 -21.310   5.219  1.00  0.00     0.032 A 
HETATM   26  C   UNL     1      43.937 -19.843   2.939  1.00  0.00     0.023 A 
HETATM   27  C   UNL     1      44.306 -21.193   2.819  1.00  0.00    -0.061 A 
HETATM   28  C   UNL     1      44.694 -21.911   3.956  1.00  0.00     0.009 A 
HETATM   29  C   UNL     1      44.216 -21.870   1.481  1.00  0.00     0.048 C 
ENDBRANCH   2  19
TORSDOF 6
ENDMDL
MODEL 4
REMARK VINA RESULT:      -7.9      1.720      2.558
REMARK  6 active torsions:
REMARK  status: ('A' for Active; 'I' for Inactive)
REMARK    1  A    between atoms: C_2  and  N_3 
REMARK       I    between atoms: N_3  and  C_4 
REMARK    2  A    between atoms: C_4  and  C_5 
REMARK    3  A    between atoms: C_5  and  O_6 
REMARK    4  A    between atoms: O_6  and  C_7 
REMARK    5  A    between atoms: C_10  and  N_11 
REMARK       I    between atoms: N_11  and  C_12 
REMARK    6  A    between atoms: C_12  and  C_13 
ROOT
HETATM    1  N   UNL     1      42.163 -16.112   0.918  1.00  0.00    -0.322 N 
HETATM    2  C   UNL     1      41.446 -16.757   1.908  1.00  0.00     0.277 C 
HETATM    3  O   UNL     1      40.227 -16.885   1.956  1.00  0.00    -0.266 OA
HETATM    4  H   UNL     1      43.169 -16.151   1.063  1.00  0.00     0.169 HD
ENDROOT
BRANCH   1   5
HETATM    5  C   UNL     1      41.674 -15.342  -0.149  1.00  0.00     0.035 A 
HETATM    6  C   UNL     1      41.662 -13.944  -0.153  1.00  0.00     0.032 A 
HETATM    7  C   UNL     1      41.236 -13.242  -1.285  1.00  0.00     0.039 A 
HETATM    8  C   UNL     1      40.830 -13.941  -2.418  1.00  0.00     0.069 A 
HETATM    9  C   UNL     1      40.784 -15.331  -2.412  1.00  0.00     0.039 A 
HETATM   10  C   UNL     1      41.214 -16.030  -1.280  1.00  0.00     0.032 A 
BRANCH   8  11
HETATM   11  O   UNL     1      40.428 -13.267  -3.537  1.00  0.00    -0.342 OA
BRANCH  11  12
HETATM   12  C   UNL     1      39.406 -12.316  -3.214  1.00  0.00     0.278 C 
BRANCH  12  13
HETATM   13  C   UNL     1      38.008 -12.933  -3.169  1.00  0.00     0.241 C 
HETATM   14  N   UNL     1      37.748 -13.816  -4.198  1.00  0.00    -0.360 N 
HETATM   15  H   UNL     1      38.561 -14.144  -4.713  1.00  0.00     0.162 HD
HETATM   16  O   UNL     1      37.182 -12.629  -2.313  1.00  0.00    -0.271 OA
BRANCH  14  17
HETATM   17  C   UNL     1      36.534 -14.603  -4.217  1.00  0.00     0.118 C 
HETATM   18  C   UNL     1      35.497 -13.997  -5.141  1.00  0.00     0.026 C 
ENDBRANCH  14  17
ENDBRANCH  12  13
ENDBRANCH  11  12
ENDBRANCH   8  11
ENDBRANCH   1   5
BRANCH   2  19
HETATM   19  C   UNL     1      42.329 -17.272   2.972  1.00  0.00     0.157 A 
HETATM   20  N   UNL     1      42.508 -16.595   4.129  1.00  0.00    -0.168 NA
HETATM   21  N   UNL     1      43.323 -17.394   4.843  1.00  0.00    -0.277 N 
HETATM   22  H   UNL     1      43.603 -17.094   5.769  1.00  0.00     0.189 HD
HETATM   23  C   UNL     1      43.667 -18.559   4.215  1.00  0.00     0.063 A 
HETATM   24  C   UNL     1      43.044 -18.505   2.974  1.00  0.00     0.029 A 
HETATM   25  C   UNL     1      44.448 -19.642   4.629  1.00  0.00     0.032 A 
HETATM   26  C   UNL     1      43.209 -19.584   2.084  1.00  0.00     0.023 A 
HETATM   27  C   UNL     1      43.997 -20.683   2.464  1.00  0.00    -0.061 A 
HETATM   28  C   UNL     1      44.593 -20.706   3.731  1.00  0.00     0.009 A 
HETATM   29  C   UNL     1      44.138 -21.852   1.532  1.00  0.00     0.048 C 
ENDBRANCH   2  19
TORSDOF 6
ENDMDL
MODEL 5
REMARK VINA RESULT:      -7.8      2.605      3.531
REMARK  6 active torsions:
REMARK  status: ('A' for Active; 'I' for Inactive)
REMARK    1  A    between atoms: C_2  and  N_3 
REMARK       I    between atoms: N_3  and  C_4 
REMARK    2  A    between atoms: C_4  and  C_5 
REMARK    3  A    between atoms: C_5  and  O_6 
REMARK    4  A    between atoms: O_6  and  C_7 
REMARK    5  A    between atoms: C_10  and  N_11 
REMARK       I    between atoms: N_11  and  C_12 
REMARK    6  A    between atoms: C_12  and  C_13 
ROOT
HETATM    1  N   UNL     1      42.325 -15.994   1.271  1.00  0.00    -0.322 N 
HETATM    2  C   UNL     1      41.665 -16.811   2.170  1.00  0.00     0.277 C 
HETATM    3  O   UNL     1      40.459 -17.033   2.200  1.00  0.00    -0.266 OA
HETATM    4  H   UNL     1      43.333 -15.977   1.411  1.00  0.00     0.169 HD
ENDROOT
BRANCH   1   5
HETATM    5  C   UNL     1      41.772 -15.131   0.312  1.00  0.00     0.035 A 
HETATM    6  C   UNL     1      41.249 -15.565  -0.909  1.00  0.00     0.032 A 
HETATM    7  C   UNL     1      40.637 -14.658  -1.780  1.00  0.00     0.039 A 
HETATM    8  C   UNL     1      40.543 -13.316  -1.425  1.00  0.00     0.069 A 
HETATM    9  C   UNL     1      41.106 -12.858  -0.238  1.00  0.00     0.039 A 
HETATM   10  C   UNL     1      41.713 -13.768   0.632  1.00  0.00     0.032 A 
BRANCH   8  11
HETATM   11  O   UNL     1      39.932 -12.422  -2.260  1.00  0.00    -0.342 OA
BRANCH  11  12
HETATM   12  C   UNL     1      40.523 -12.465  -3.564  1.00  0.00     0.278 C 
BRANCH  12  13
HETATM   13  C   UNL     1      41.674 -11.471  -3.731  1.00  0.00     0.241 C 
HETATM   14  N   UNL     1      41.711 -10.485  -2.766  1.00  0.00    -0.360 N 
HETATM   15  H   UNL     1      41.149 -10.657  -1.938  1.00  0.00     0.162 HD
HETATM   16  O   UNL     1      42.463 -11.531  -4.671  1.00  0.00    -0.271 OA
BRANCH  14  17
HETATM   17  C   UNL     1      42.821  -9.560  -2.688  1.00  0.00     0.118 C 
HETATM   18  C   UNL     1      43.631  -9.773  -1.426  1.00  0.00     0.026 C 
ENDBRANCH  14  17
ENDBRANCH  12  13
ENDBRANCH  11  12
ENDBRANCH   8  11
ENDBRANCH   1   5
BRANCH   2  19
HETATM   19  C   UNL     1      42.592 -17.392   3.160  1.00  0.00     0.157 A 
HETATM   20  N   UNL     1      42.868 -16.761   4.324  1.00  0.00    -0.168 NA
HETATM   21  N   UNL     1      43.696 -17.612   4.959  1.00  0.00    -0.277 N 
HETATM   22  H   UNL     1      44.044 -17.353   5.875  1.00  0.00     0.189 HD
HETATM   23  C   UNL     1      43.955 -18.768   4.275  1.00  0.00     0.063 A 
HETATM   24  C   UNL     1      43.259 -18.649   3.079  1.00  0.00     0.029 A 
HETATM   25  C   UNL     1      44.718 -19.891   4.605  1.00  0.00     0.032 A 
HETATM   26  C   UNL     1      43.327 -19.704   2.147  1.00  0.00     0.023 A 
HETATM   27  C   UNL     1      44.095 -20.843   2.442  1.00  0.00    -0.061 A 
HETATM   28  C   UNL     1      44.767 -20.929   3.667  1.00  0.00     0.009 A 
HETATM   29  C   UNL     1      44.133 -21.985   1.467  1.00  0.00     0.048 C 
ENDBRANCH   2  19
TORSDOF 6
ENDMDL
MODEL 6
REMARK VINA RESULT:      -7.7      5.401      9.019
REMARK  6 active torsions:
REMARK  status: ('A' for Active; 'I' for Inactive)
REMARK    1  A    between atoms: C_2  and  N_3 
REMARK       I    between atoms: N_3  and  C_4 
REMARK    2  A    between atoms: C_4  and  C_5 
REMARK    3  A    between atoms: C_5  and  O_6 
REMARK    4  A    between atoms: O_6  and  C_7 
REMARK    5  A    between atoms: C_10  and  N_11 
REMARK       I    between atoms: N_11  and  C_12 
REMARK    6  A    between atoms: C_12  and  C_13 
ROOT
HETATM    1  N   UNL     1      43.239 -15.535   4.921  1.00  0.00    -0.322 N 
HETATM    2  C   UNL     1      42.538 -16.722   5.032  1.00  0.00     0.277 C 
HETATM    3  O   UNL     1      41.901 -17.100   6.010  1.00  0.00    -0.266 OA
HETATM    4  H   UNL     1      43.672 -15.409   4.009  1.00  0.00     0.169 HD
ENDROOT
BRANCH   1   5
HETATM    5  C   UNL     1      43.508 -14.587   5.921  1.00  0.00     0.035 A 
HETATM    6  C   UNL     1      44.566 -14.696   6.827  1.00  0.00     0.032 A 
HETATM    7  C   UNL     1      44.824 -13.672   7.743  1.00  0.00     0.039 A 
HETATM    8  C   UNL     1      44.026 -12.532   7.746  1.00  0.00     0.069 A 
HETATM    9  C   UNL     1      42.936 -12.430   6.888  1.00  0.00     0.039 A 
HETATM   10  C   UNL     1      42.684 -13.455   5.971  1.00  0.00     0.032 A 
BRANCH   8  11
HETATM   11  O   UNL     1      44.278 -11.515   8.625  1.00  0.00    -0.342 OA
BRANCH  11  12
HETATM   12  C   UNL     1      44.219 -11.989   9.975  1.00  0.00     0.278 C 
BRANCH  12  13
HETATM   13  C   UNL     1      43.263 -11.179  10.852  1.00  0.00     0.241 C 
HETATM   14  N   UNL     1      43.877 -10.530  11.905  1.00  0.00    -0.360 N 
HETATM   15  H   UNL     1      44.888 -10.455  11.846  1.00  0.00     0.162 HD
HETATM   16  O   UNL     1      42.051 -11.151  10.652  1.00  0.00    -0.271 OA
BRANCH  14  17
HETATM   17  C   UNL     1      43.145  -9.599  12.736  1.00  0.00     0.118 C 
HETATM   18  C   UNL     1      42.604 -10.275  13.980  1.00  0.00     0.026 C 
ENDBRANCH  14  17
ENDBRANCH  12  13
ENDBRANCH  11  12
ENDBRANCH   8  11
ENDBRANCH   1   5
BRANCH   2  19
HETATM   19  C   UNL     1      42.666 -17.545   3.815  1.00  0.00     0.157 A 
HETATM   20  N   UNL     1      42.210 -17.112   2.618  1.00  0.00    -0.168 NA
HETATM   21  N   UNL     1      42.549 -18.101   1.771  1.00  0.00    -0.277 N 
HETATM   22  H   UNL     1      42.309 -18.001   0.791  1.00  0.00     0.189 HD
HETATM   23  C   UNL     1      43.216 -19.143   2.353  1.00  0.00     0.063 A 
HETATM   24  C   UNL     1      43.296 -18.819   3.702  1.00  0.00     0.029 A 
HETATM   25  C   UNL     1      43.756 -20.315   1.818  1.00  0.00     0.032 A 
HETATM   26  C   UNL     1      43.943 -19.713   4.577  1.00  0.00     0.023 A 
HETATM   27  C   UNL     1      44.488 -20.906   4.073  1.00  0.00    -0.061 A 
HETATM   28  C   UNL     1      44.401 -21.186   2.705  1.00  0.00     0.009 A 
HETATM   29  C   UNL     1      45.216 -21.838   5.000  1.00  0.00     0.048 C 
ENDBRANCH   2  19
TORSDOF 6
ENDMDL
MODEL 7
REMARK VINA RESULT:      -7.6      5.873      9.331
REMARK  6 active torsions:
REMARK  status: ('A' for Active; 'I' for Inactive)
REMARK    1  A    between atoms: C_2  and  N_3 
REMARK       I    between atoms: N_3  and  C_4 
REMARK    2  A    between atoms: C_4  and  C_5 
REMARK    3  A    between atoms: C_5  and  O_6 
REMARK    4  A    between atoms: O_6  and  C_7 
REMARK    5  A    between atoms: C_10  and  N_11 
REMARK       I    between atoms: N_11  and  C_12 
REMARK    6  A    between atoms: C_12  and  C_13 
ROOT
HETATM    1  N   UNL     1      43.891 -15.328   6.051  1.00  0.00    -0.322 N 
HETATM    2  C   UNL     1      43.382 -16.549   6.455  1.00  0.00     0.277 C 
HETATM    3  O   UNL     1      42.627 -16.743   7.402  1.00  0.00    -0.266 OA
HETATM    4  H   UNL     1      44.476 -15.394   5.221  1.00  0.00     0.169 HD
ENDROOT
BRANCH   1   5
HETATM    5  C   UNL     1      43.792 -14.087   6.699  1.00  0.00     0.035 A 
HETATM    6  C   UNL     1      42.773 -13.163   6.450  1.00  0.00     0.032 A 
HETATM    7  C   UNL     1      42.690 -11.982   7.194  1.00  0.00     0.039 A 
HETATM    8  C   UNL     1      43.624 -11.729   8.194  1.00  0.00     0.069 A 
HETATM    9  C   UNL     1      44.675 -12.612   8.418  1.00  0.00     0.039 A 
HETATM   10  C   UNL     1      44.753 -13.794   7.675  1.00  0.00     0.032 A 
BRANCH   8  11
HETATM   11  O   UNL     1      43.545 -10.587   8.940  1.00  0.00    -0.342 OA
BRANCH  11  12
HETATM   12  C   UNL     1      44.012 -10.822  10.274  1.00  0.00     0.278 C 
BRANCH  12  13
HETATM   13  C   UNL     1      42.878 -10.922  11.295  1.00  0.00     0.241 C 
HETATM   14  N   UNL     1      43.275 -10.709  12.600  1.00  0.00    -0.360 N 
HETATM   15  H   UNL     1      44.188 -10.280  12.719  1.00  0.00     0.162 HD
HETATM   16  O   UNL     1      41.727 -11.209  10.974  1.00  0.00    -0.271 OA
BRANCH  14  17
HETATM   17  C   UNL     1      42.304 -10.614  13.668  1.00  0.00     0.118 C 
HETATM   18  C   UNL     1      42.651  -9.500  14.634  1.00  0.00     0.026 C 
ENDBRANCH  14  17
ENDBRANCH  12  13
ENDBRANCH  11  12
ENDBRANCH   8  11
ENDBRANCH   1   5
BRANCH   2  19
HETATM   19  C   UNL     1      43.889 -17.654   5.619  1.00  0.00     0.157 A 
HETATM   20  N   UNL     1      44.839 -18.503   6.072  1.00  0.00    -0.168 NA
HETATM   21  N   UNL     1      44.993 -19.378   5.060  1.00  0.00    -0.277 N 
HETATM   22  H   UNL     1      45.666 -20.128   5.169  1.00  0.00     0.189 HD
HETATM   23  C   UNL     1      44.180 -19.149   3.985  1.00  0.00     0.063 A 
HETATM   24  C   UNL     1      43.452 -18.012   4.311  1.00  0.00     0.029 A 
HETATM   25  C   UNL     1      44.017 -19.839   2.781  1.00  0.00     0.032 A 
HETATM   26  C   UNL     1      42.509 -17.522   3.386  1.00  0.00     0.023 A 
HETATM   27  C   UNL     1      42.328 -18.185   2.161  1.00  0.00    -0.061 A 
HETATM   28  C   UNL     1      43.070 -19.338   1.880  1.00  0.00     0.009 A 
HETATM   29  C   UNL     1      41.293 -17.687   1.194  1.00  0.00     0.048 C 
ENDBRANCH   2  19
TORSDOF 6
ENDMDL
MODEL 8
REMARK VINA RESULT:      -7.5      5.014      7.709
REMARK  6 active torsions:
REMARK  status: ('A' for Active; 'I' for Inactive)
REMARK    1  A    between atoms: C_2  and  N_3 
REMARK       I    between atoms: N_3  and  C_4 
REMARK    2  A    between atoms: C_4  and  C_5 
REMARK    3  A    between atoms: C_5  and  O_6 
REMARK    4  A    between atoms: O_6  and  C_7 
REMARK    5  A    between atoms: C_10  and  N_11 
REMARK       I    between atoms: N_11  and  C_12 
REMARK    6  A    between atoms: C_12  and  C_13 
ROOT
HETATM    1  N   UNL     1      42.083 -15.965   4.147  1.00  0.00    -0.322 N 
HETATM    2  C   UNL     1      43.095 -16.872   4.401  1.00  0.00     0.277 C 
HETATM    3  O   UNL     1      43.848 -16.868   5.369  1.00  0.00    -0.266 OA
HETATM    4  H   UNL     1      41.561 -16.174   3.299  1.00  0.00     0.169 HD
ENDROOT
BRANCH   1   5
HETATM    5  C   UNL     1      41.789 -14.775   4.832  1.00  0.00     0.035 A 
HETATM    6  C   UNL     1      42.652 -13.677   4.881  1.00  0.00     0.032 A 
HETATM    7  C   UNL     1      42.258 -12.493   5.513  1.00  0.00     0.039 A 
HETATM    8  C   UNL     1      40.994 -12.407   6.089  1.00  0.00     0.069 A 
HETATM    9  C   UNL     1      40.143 -13.507   6.095  1.00  0.00     0.039 A 
HETATM   10  C   UNL     1      40.539 -14.687   5.460  1.00  0.00     0.032 A 
BRANCH   8  11
HETATM   11  O   UNL     1      40.589 -11.250   6.694  1.00  0.00    -0.342 OA
BRANCH  11  12
HETATM   12  C   UNL     1      41.693 -10.606   7.342  1.00  0.00     0.278 C 
BRANCH  12  13
HETATM   13  C   UNL     1      41.627 -10.699   8.867  1.00  0.00     0.241 C 
HETATM   14  N   UNL     1      42.740 -11.274   9.446  1.00  0.00    -0.360 N 
HETATM   15  H   UNL     1      43.560 -11.344   8.850  1.00  0.00     0.162 HD
HETATM   16  O   UNL     1      40.645 -10.330   9.506  1.00  0.00    -0.271 OA
BRANCH  14  17
HETATM   17  C   UNL     1      42.906 -11.297  10.883  1.00  0.00     0.118 C 
HETATM   18  C   UNL     1      43.840 -10.198  11.349  1.00  0.00     0.026 C 
ENDBRANCH  14  17
ENDBRANCH  12  13
ENDBRANCH  11  12
ENDBRANCH   8  11
ENDBRANCH   1   5
BRANCH   2  19
HETATM   19  C   UNL     1      43.211 -17.874   3.324  1.00  0.00     0.157 A 
HETATM   20  N   UNL     1      42.907 -17.570   2.042  1.00  0.00    -0.168 NA
HETATM   21  N   UNL     1      43.181 -18.705   1.372  1.00  0.00    -0.277 N 
HETATM   22  H   UNL     1      43.032 -18.722   0.370  1.00  0.00     0.189 HD
HETATM   23  C   UNL     1      43.664 -19.720   2.151  1.00  0.00     0.063 A 
HETATM   24  C   UNL     1      43.680 -19.214   3.444  1.00  0.00     0.029 A 
HETATM   25  C   UNL     1      44.091 -21.012   1.832  1.00  0.00     0.032 A 
HETATM   26  C   UNL     1      44.140 -20.039   4.490  1.00  0.00     0.023 A 
HETATM   27  C   UNL     1      44.566 -21.347   4.206  1.00  0.00    -0.061 A 
HETATM   28  C   UNL     1      44.550 -21.812   2.886  1.00  0.00     0.009 A 
HETATM   29  C   UNL     1      45.097 -22.211   5.315  1.00  0.00     0.048 C 
ENDBRANCH   2  19
TORSDOF 6
ENDMDL
MODEL 9
REMARK VINA RESULT:      -7.4      2.275      2.593
REMARK  6 active torsions:
REMARK  status: ('A' for Active; 'I' for Inactive)
REMARK    1  A    between atoms: C_2  and  N_3 
REMARK       I    between atoms: N_3  and  C_4 
REMARK    2  A    between atoms: C_4  and  C_5 
REMARK    3  A    between atoms: C_5  and  O_6 
REMARK    4  A    between atoms: O_6  and  C_7 
REMARK    5  A    between atoms: C_10  and  N_11 
REMARK       I    between atoms: N_11  and  C_12 
REMARK    6  A    between atoms: C_12  and  C_13 
ROOT
HETATM    1  N   UNL     1      41.878 -16.295   4.005  1.00  0.00    -0.322 N 
HETATM    2  C   UNL     1      43.121 -16.632   3.499  1.00  0.00     0.277 C 
HETATM    3  O   UNL     1      43.657 -16.146   2.509  1.00  0.00    -0.266 OA
HETATM    4  H   UNL     1      41.641 -16.803   4.854  1.00  0.00     0.169 HD
ENDROOT
BRANCH   1   5
HETATM    5  C   UNL     1      40.904 -15.460   3.435  1.00  0.00     0.035 A 
HETATM    6  C   UNL     1      40.721 -14.124   3.800  1.00  0.00     0.032 A 
HETATM    7  C   UNL     1      39.787 -13.327   3.130  1.00  0.00     0.039 A 
HETATM    8  C   UNL     1      39.041 -13.868   2.088  1.00  0.00     0.069 A 
HETATM    9  C   UNL     1      39.172 -15.211   1.747  1.00  0.00     0.039 A 
HETATM   10  C   UNL     1      40.110 -16.003   2.416  1.00  0.00     0.032 A 
BRANCH   8  11
HETATM   11  O   UNL     1      38.136 -13.097   1.413  1.00  0.00    -0.342 OA
BRANCH  11  12
HETATM   12  C   UNL     1      38.194 -13.365   0.007  1.00  0.00     0.278 C 
BRANCH  12  13
HETATM   13  C   UNL     1      37.462 -12.317  -0.832  1.00  0.00     0.241 C 
HETATM   14  N   UNL     1      36.515 -11.596  -0.132  1.00  0.00    -0.360 N 
HETATM   15  H   UNL     1      36.575 -11.657   0.880  1.00  0.00     0.162 HD
HETATM   16  O   UNL     1      37.675 -12.169  -2.033  1.00  0.00    -0.271 OA
BRANCH  14  17
HETATM   17  C   UNL     1      35.844 -10.465  -0.735  1.00  0.00     0.118 C 
HETATM   18  C   UNL     1      34.362 -10.730  -0.911  1.00  0.00     0.026 C 
ENDBRANCH  14  17
ENDBRANCH  12  13
ENDBRANCH  11  12
ENDBRANCH   8  11
ENDBRANCH   1   5
BRANCH   2  19
HETATM   19  C   UNL     1      43.754 -17.709   4.284  1.00  0.00     0.157 A 
HETATM   20  N   UNL     1      44.110 -17.525   5.575  1.00  0.00    -0.168 NA
HETATM   21  N   UNL     1      44.597 -18.724   5.945  1.00  0.00    -0.277 N 
HETATM   22  H   UNL     1      44.932 -18.837   6.895  1.00  0.00     0.189 HD
HETATM   23  C   UNL     1      44.558 -19.678   4.966  1.00  0.00     0.063 A 
HETATM   24  C   UNL     1      44.026 -19.040   3.853  1.00  0.00     0.029 A 
HETATM   25  C   UNL     1      44.928 -21.026   4.968  1.00  0.00     0.032 A 
HETATM   26  C   UNL     1      43.854 -19.778   2.665  1.00  0.00     0.023 A 
HETATM   27  C   UNL     1      44.227 -21.132   2.629  1.00  0.00    -0.061 A 
HETATM   28  C   UNL     1      44.744 -21.741   3.778  1.00  0.00     0.009 A 
HETATM   29  C   UNL     1      44.005 -21.929   1.375  1.00  0.00     0.048 C 
ENDBRANCH   2  19
TORSDOF 6
ENDMDL
MODEL 10
REMARK VINA RESULT:      -7.3      6.146      9.092
REMARK  6 active torsions:
REMARK  status: ('A' for Active; 'I' for Inactive)
REMARK    1  A    between atoms: C_2  and  N_3 
REMARK       I    between atoms: N_3  and  C_4 
REMARK    2  A    between atoms: C_4  and  C_5 
REMARK    3  A    between atoms: C_5  and  O_6 
REMARK    4  A    between atoms: O_6  and  C_7 
REMARK    5  A    between atoms: C_10  and  N_11 
REMARK       I    between atoms: N_11  and  C_12 
REMARK    6  A    between atoms: C_12  and  C_13 
ROOT
HETATM    1  N   UNL     1      41.496 -12.568   6.657  1.00  0.00    -0.322 N 
HETATM    2  C   UNL     1      41.388 -11.189   6.631  1.00  0.00     0.277 C 
HETATM    3  O   UNL     1      41.411 -10.478   5.632  1.00  0.00    -0.266 OA
HETATM    4  H   UNL     1      41.423 -12.957   7.594  1.00  0.00     0.169 HD
ENDROOT
BRANCH   1   5
HETATM    5  C   UNL     1      41.803 -13.436   5.598  1.00  0.00     0.035 A 
HETATM    6  C   UNL     1      43.092 -13.605   5.084  1.00  0.00     0.032 A 
HETATM    7  C   UNL     1      43.338 -14.551   4.084  1.00  0.00     0.039 A 
HETATM    8  C   UNL     1      42.293 -15.333   3.602  1.00  0.00     0.069 A 
HETATM    9  C   UNL     1      40.995 -15.140   4.063  1.00  0.00     0.039 A 
HETATM   10  C   UNL     1      40.753 -14.197   5.066  1.00  0.00     0.032 A 
BRANCH   8  11
HETATM   11  O   UNL     1      42.522 -16.273   2.636  1.00  0.00    -0.342 OA
BRANCH  11  12
HETATM   12  C   UNL     1      42.071 -17.561   3.068  1.00  0.00     0.278 C 
BRANCH  12  13
HETATM   13  C   UNL     1      43.217 -18.533   3.351  1.00  0.00     0.241 C 
HETATM   14  N   UNL     1      43.254 -19.622   2.504  1.00  0.00    -0.360 N 
HETATM   15  H   UNL     1      42.695 -19.543   1.659  1.00  0.00     0.162 HD
HETATM   16  O   UNL     1      44.004 -18.369   4.280  1.00  0.00    -0.271 OA
BRANCH  14  17
HETATM   17  C   UNL     1      44.362 -20.553   2.534  1.00  0.00     0.118 C 
HETATM   18  C   UNL     1      44.041 -21.819   1.766  1.00  0.00     0.026 C 
ENDBRANCH  14  17
ENDBRANCH  12  13
ENDBRANCH  11  12
ENDBRANCH   8  11
ENDBRANCH   1   5
BRANCH   2  19
HETATM   19  C   UNL     1      41.274 -10.626   7.989  1.00  0.00     0.157 A 
HETATM   20  N   UNL     1      40.110 -10.109   8.444  1.00  0.00    -0.168 NA
HETATM   21  N   UNL     1      40.393  -9.753   9.710  1.00  0.00    -0.277 N 
HETATM   22  H   UNL     1      39.658  -9.335  10.269  1.00  0.00     0.189 HD
HETATM   23  C   UNL     1      41.673 -10.028  10.105  1.00  0.00     0.063 A 
HETATM   24  C   UNL     1      42.287 -10.587   8.992  1.00  0.00     0.029 A 
HETATM   25  C   UNL     1      42.327  -9.846  11.326  1.00  0.00     0.032 A 
HETATM   26  C   UNL     1      43.635 -10.986   9.089  1.00  0.00     0.023 A 
HETATM   27  C   UNL     1      44.326 -10.807  10.299  1.00  0.00    -0.061 A 
HETATM   28  C   UNL     1      43.664 -10.255  11.402  1.00  0.00     0.009 A 
HETATM   29  C   UNL     1      45.750 -11.272  10.415  1.00  0.00     0.048 C 
ENDBRANCH   2  19
TORSDOF 6
ENDMDL
