MODEL 1
REMARK VINA RESULT:      -7.6      0.000      0.000
REMARK  8 active torsions:
REMARK  status: ('A' for Active; 'I' for Inactive)
REMARK    1  A    between atoms: N_2  and  C_4 
REMARK    2  A    between atoms: N_2  and  C_28 
REMARK    3  A    between atoms: N_7  and  C_8 
REMARK    4  A    between atoms: C_11  and  C_12 
REMARK       I    between atoms: C_12  and  N_13 
REMARK    5  A    between atoms: N_13  and  C_14 
REMARK    6  A    between atoms: C_14  and  C_15 
REMARK    7  A    between atoms: C_15  and  N_16 
REMARK    8  A    between atoms: C_28  and  C_29 
ROOT
HETATM    1  C   UNL     1      40.999 -15.520   3.792  1.00  0.00     0.030 A 
HETATM    2  C   UNL     1      40.430 -14.242   3.908  1.00  0.00     0.030 A 
HETATM    3  C   UNL     1      39.610 -13.703   2.903  1.00  0.00     0.019 A 
HETATM    4  C   UNL     1      39.336 -14.443   1.752  1.00  0.00     0.032 A 
HETATM    5  C   UNL     1      39.886 -15.717   1.615  1.00  0.00     0.019 A 
HETATM    6  C   UNL     1      40.711 -16.240   2.619  1.00  0.00     0.030 A 
ENDROOT
BRANCH   1   7
HETATM    7  N   UNL     1      41.760 -16.117   4.805  1.00  0.00    -0.381 N 
HETATM    8  C   UNL     1      43.184 -16.344   4.565  1.00  0.00     0.125 C 
HETATM    9  C   UNL     1      43.905 -16.477   5.904  1.00  0.00     0.053 C 
HETATM   10  C   UNL     1      43.278 -17.544   6.818  1.00  0.00     0.191 C 
HETATM   11  C   UNL     1      41.778 -17.238   6.969  1.00  0.00     0.053 C 
HETATM   12  C   UNL     1      41.065 -17.113   5.625  1.00  0.00     0.125 C 
BRANCH  10  13
HETATM   13  N   UNL     1      43.546 -18.973   6.307  1.00  0.00    -0.067 N 
HETATM   14  C   UNL     1      43.728 -19.993   7.414  1.00  0.00     0.270 C 
HETATM   15  H   UNL     1      42.735 -19.288   5.762  1.00  0.00     0.280 HD
BRANCH  13  16
HETATM   16  C   UNL     1      44.746 -19.052   5.360  1.00  0.00     0.273 C 
BRANCH  16  17
HETATM   17  C   UNL     1      44.462 -19.883   4.148  1.00  0.00    -0.026 A 
HETATM   18  C   UNL     1      44.909 -21.179   3.959  1.00  0.00     0.058 A 
HETATM   19  S   UNL     1      44.390 -21.853   2.477  1.00  0.00    -0.113 SA
HETATM   20  C   UNL     1      43.589 -20.411   2.039  1.00  0.00     0.050 A 
HETATM   21  C   UNL     1      43.705 -19.440   3.008  1.00  0.00     0.016 A 
ENDBRANCH  16  17
ENDBRANCH  13  16
ENDBRANCH  10  13
ENDBRANCH   1   7
BRANCH   4  22
HETATM   22  C   UNL     1      38.395 -13.953   0.710  1.00  0.00     0.251 C 
HETATM   23  N   UNL     1      38.658 -14.306  -0.595  1.00  0.00    -0.355 N 
HETATM   24  H   UNL     1      39.465 -14.893  -0.774  1.00  0.00     0.162 HD
HETATM   25  O   UNL     1      37.419 -13.274   1.021  1.00  0.00    -0.268 OA
BRANCH  23  26
HETATM   26  C   UNL     1      38.035 -13.681  -1.761  1.00  0.00     0.150 C 
BRANCH  26  27
HETATM   27  C   UNL     1      38.945 -12.811  -2.657  1.00  0.00     0.254 C 
BRANCH  27  28
HETATM   28  N   UNL     1      40.368 -12.733  -2.162  1.00  0.00    -0.066 N 
HETATM   29  H   UNL     1      40.487 -13.540  -1.513  1.00  0.00     0.280 HD
HETATM   30  C   UNL     1      41.432 -12.902  -3.235  1.00  0.00     0.261 C 
HETATM   31  C   UNL     1      42.823 -12.875  -2.588  1.00  0.00     0.195 C 
HETATM   32  O   UNL     1      43.022 -11.659  -1.859  1.00  0.00    -0.388 OA
HETATM   33  C   UNL     1      42.071 -11.523  -0.797  1.00  0.00     0.195 C 
HETATM   34  C   UNL     1      40.640 -11.482  -1.343  1.00  0.00     0.261 C 
ENDBRANCH  27  28
ENDBRANCH  26  27
ENDBRANCH  23  26
ENDBRANCH   4  22
TORSDOF 8
ENDMDL
MODEL 2
REMARK VINA RESULT:      -7.6      4.993      8.001
REMARK  8 active torsions:
REMARK  status: ('A' for Active; 'I' for Inactive)
REMARK    1  A    between atoms: N_2  and  C_4 
REMARK    2  A    between atoms: N_2  and  C_28 
REMARK    3  A    between atoms: N_7  and  C_8 
REMARK    4  A    between atoms: C_11  and  C_12 
REMARK       I    between atoms: C_12  and  N_13 
REMARK    5  A    between atoms: N_13  and  C_14 
REMARK    6  A    between atoms: C_14  and  C_15 
REMARK    7  A    between atoms: C_15  and  N_16 
REMARK    8  A    between atoms: C_28  and  C_29 
ROOT
HETATM    1  C   UNL     1      43.320 -14.483   5.822  1.00  0.00     0.030 A 
HETATM    2  C   UNL     1      44.396 -14.716   6.692  1.00  0.00     0.030 A 
HETATM    3  C   UNL     1      44.740 -13.804   7.704  1.00  0.00     0.019 A 
HETATM    4  C   UNL     1      44.002 -12.630   7.869  1.00  0.00     0.032 A 
HETATM    5  C   UNL     1      42.927 -12.378   7.019  1.00  0.00     0.019 A 
HETATM    6  C   UNL     1      42.600 -13.290   6.007  1.00  0.00     0.030 A 
ENDROOT
BRANCH   1   7
HETATM    7  N   UNL     1      42.904 -15.402   4.851  1.00  0.00    -0.381 N 
HETATM    8  C   UNL     1      42.859 -16.819   5.206  1.00  0.00     0.125 C 
HETATM    9  C   UNL     1      41.909 -17.546   4.258  1.00  0.00     0.053 C 
HETATM   10  C   UNL     1      42.249 -17.314   2.776  1.00  0.00     0.191 C 
HETATM   11  C   UNL     1      42.314 -15.799   2.519  1.00  0.00     0.053 C 
HETATM   12  C   UNL     1      43.271 -15.082   3.468  1.00  0.00     0.125 C 
BRANCH  10  13
HETATM   13  N   UNL     1      43.541 -18.045   2.359  1.00  0.00    -0.067 N 
HETATM   14  C   UNL     1      44.343 -17.310   1.302  1.00  0.00     0.270 C 
HETATM   15  H   UNL     1      44.156 -18.124   3.177  1.00  0.00     0.280 HD
BRANCH  13  16
HETATM   16  C   UNL     1      43.288 -19.476   1.881  1.00  0.00     0.273 C 
BRANCH  16  17
HETATM   17  C   UNL     1      43.906 -20.497   2.784  1.00  0.00    -0.026 A 
HETATM   18  C   UNL     1      44.374 -20.239   4.061  1.00  0.00     0.058 A 
HETATM   19  S   UNL     1      44.999 -21.629   4.835  1.00  0.00    -0.113 SA
HETATM   20  C   UNL     1      44.695 -22.597   3.462  1.00  0.00     0.050 A 
HETATM   21  C   UNL     1      44.117 -21.877   2.440  1.00  0.00     0.016 A 
ENDBRANCH  16  17
ENDBRANCH  13  16
ENDBRANCH  10  13
ENDBRANCH   1   7
BRANCH   4  22
HETATM   22  C   UNL     1      44.270 -11.687   8.987  1.00  0.00     0.251 C 
HETATM   23  N   UNL     1      43.338 -11.626   9.999  1.00  0.00    -0.355 N 
HETATM   24  H   UNL     1      42.531 -12.237   9.938  1.00  0.00     0.162 HD
HETATM   25  O   UNL     1      45.294 -11.008   8.998  1.00  0.00    -0.268 OA
BRANCH  23  26
HETATM   26  C   UNL     1      43.278 -10.565  11.003  1.00  0.00     0.150 C 
BRANCH  26  27
HETATM   27  C   UNL     1      42.071  -9.602  10.930  1.00  0.00     0.254 C 
BRANCH  27  28
HETATM   28  N   UNL     1      41.129  -9.914   9.793  1.00  0.00    -0.066 N 
HETATM   29  H   UNL     1      41.716 -10.349   9.050  1.00  0.00     0.280 HD
HETATM   30  C   UNL     1      40.046 -10.931  10.117  1.00  0.00     0.261 C 
HETATM   31  C   UNL     1      39.210 -11.208   8.861  1.00  0.00     0.195 C 
HETATM   32  O   UNL     1      38.638  -9.999   8.352  1.00  0.00    -0.388 OA
HETATM   33  C   UNL     1      39.650  -9.059   7.974  1.00  0.00     0.195 C 
HETATM   34  C   UNL     1      40.513  -8.668   9.178  1.00  0.00     0.261 C 
ENDBRANCH  27  28
ENDBRANCH  26  27
ENDBRANCH  23  26
ENDBRANCH   4  22
TORSDOF 8
ENDMDL
MODEL 3
REMARK VINA RESULT:      -7.6      1.657      2.259
REMARK  8 active torsions:
REMARK  status: ('A' for Active; 'I' for Inactive)
REMARK    1  A    between atoms: N_2  and  C_4 
REMARK    2  A    between atoms: N_2  and  C_28 
REMARK    3  A    between atoms: N_7  and  C_8 
REMARK    4  A    between atoms: C_11  and  C_12 
REMARK       I    between atoms: C_12  and  N_13 
REMARK    5  A    between atoms: N_13  and  C_14 
REMARK    6  A    between atoms: C_14  and  C_15 
REMARK    7  A    between atoms: C_15  and  N_16 
REMARK    8  A    between atoms: C_28  and  C_29 
ROOT
HETATM    1  C   UNL     1      41.086 -15.387   4.334  1.00  0.00     0.030 A 
HETATM    2  C   UNL     1      40.664 -15.871   3.086  1.00  0.00     0.030 A 
HETATM    3  C   UNL     1      39.877 -15.094   2.219  1.00  0.00     0.019 A 
HETATM    4  C   UNL     1      39.496 -13.803   2.588  1.00  0.00     0.032 A 
HETATM    5  C   UNL     1      39.906 -13.299   3.822  1.00  0.00     0.019 A 
HETATM    6  C   UNL     1      40.682 -14.086   4.682  1.00  0.00     0.030 A 
ENDROOT
BRANCH   1   7
HETATM    7  N   UNL     1      41.931 -16.105   5.190  1.00  0.00    -0.381 N 
HETATM    8  C   UNL     1      43.278 -16.430   4.729  1.00  0.00     0.125 C 
HETATM    9  C   UNL     1      44.172 -16.703   5.936  1.00  0.00     0.053 C 
HETATM   10  C   UNL     1      43.593 -17.770   6.881  1.00  0.00     0.191 C 
HETATM   11  C   UNL     1      42.164 -17.355   7.270  1.00  0.00     0.053 C 
HETATM   12  C   UNL     1      41.277 -17.090   6.057  1.00  0.00     0.125 C 
BRANCH  10  13
HETATM   13  N   UNL     1      43.656 -19.182   6.266  1.00  0.00    -0.067 N 
HETATM   14  C   UNL     1      43.644 -20.297   7.294  1.00  0.00     0.270 C 
HETATM   15  H   UNL     1      42.824 -19.326   5.682  1.00  0.00     0.280 HD
BRANCH  13  16
HETATM   16  C   UNL     1      44.860 -19.375   5.340  1.00  0.00     0.273 C 
BRANCH  16  17
HETATM   17  C   UNL     1      44.487 -20.037   4.051  1.00  0.00    -0.026 A 
HETATM   18  C   UNL     1      44.789 -21.346   3.720  1.00  0.00     0.058 A 
HETATM   19  S   UNL     1      44.198 -21.798   2.181  1.00  0.00    -0.113 SA
HETATM   20  C   UNL     1      43.562 -20.238   1.907  1.00  0.00     0.050 A 
HETATM   21  C   UNL     1      43.784 -19.394   2.973  1.00  0.00     0.016 A 
ENDBRANCH  16  17
ENDBRANCH  13  16
ENDBRANCH  10  13
ENDBRANCH   1   7
BRANCH   4  22
HETATM   22  C   UNL     1      38.748 -12.912   1.662  1.00  0.00     0.251 C 
HETATM   23  N   UNL     1      37.924 -13.511   0.736  1.00  0.00    -0.355 N 
HETATM   24  H   UNL     1      37.859 -14.524   0.745  1.00  0.00     0.162 HD
HETATM   25  O   UNL     1      38.860 -11.691   1.746  1.00  0.00    -0.268 OA
BRANCH  23  26
HETATM   26  C   UNL     1      37.357 -12.831  -0.427  1.00  0.00     0.150 C 
BRANCH  26  27
HETATM   27  C   UNL     1      38.272 -12.684  -1.665  1.00  0.00     0.254 C 
BRANCH  27  28
HETATM   28  N   UNL     1      38.663 -14.007  -2.276  1.00  0.00    -0.066 N 
HETATM   29  H   UNL     1      38.402 -14.732  -1.574  1.00  0.00     0.280 HD
HETATM   30  C   UNL     1      37.917 -14.373  -3.549  1.00  0.00     0.261 C 
HETATM   31  C   UNL     1      38.356 -15.765  -4.020  1.00  0.00     0.195 C 
HETATM   32  O   UNL     1      39.771 -15.808  -4.229  1.00  0.00    -0.388 OA
HETATM   33  C   UNL     1      40.488 -15.538  -3.019  1.00  0.00     0.195 C 
HETATM   34  C   UNL     1      40.162 -14.138  -2.489  1.00  0.00     0.261 C 
ENDBRANCH  27  28
ENDBRANCH  26  27
ENDBRANCH  23  26
ENDBRANCH   4  22
TORSDOF 8
ENDMDL
MODEL 4
REMARK VINA RESULT:      -7.4      2.064      3.113
REMARK  8 active torsions:
REMARK  status: ('A' for Active; 'I' for Inactive)
REMARK    1  A    between atoms: N_2  and  C_4 
REMARK    2  A    between atoms: N_2  and  C_28 
REMARK    3  A    between atoms: N_7  and  C_8 
REMARK    4  A    between atoms: C_11  and  C_12 
REMARK       I    between atoms: C_12  and  N_13 
REMARK    5  A    between atoms: N_13  and  C_14 
REMARK    6  A    between atoms: C_14  and  C_15 
REMARK    7  A    between atoms: C_15  and  N_16 
REMARK    8  A    between atoms: C_28  and  C_29 
ROOT
HETATM    1  C   UNL     1      40.908 -15.649   3.644  1.00  0.00     0.030 A 
HETATM    2  C   UNL     1      40.786 -16.246   2.380  1.00  0.00     0.030 A 
HETATM    3  C   UNL     1      40.024 -15.660   1.355  1.00  0.00     0.019 A 
HETATM    4  C   UNL     1      39.366 -14.449   1.577  1.00  0.00     0.032 A 
HETATM    5  C   UNL     1      39.474 -13.835   2.824  1.00  0.00     0.019 A 
HETATM    6  C   UNL     1      40.228 -14.434   3.841  1.00  0.00     0.030 A 
ENDROOT
BRANCH   1   7
HETATM    7  N   UNL     1      41.717 -16.166   4.663  1.00  0.00    -0.381 N 
HETATM    8  C   UNL     1      43.133 -16.390   4.384  1.00  0.00     0.125 C 
HETATM    9  C   UNL     1      43.907 -16.424   5.699  1.00  0.00     0.053 C 
HETATM   10  C   UNL     1      43.332 -17.434   6.707  1.00  0.00     0.191 C 
HETATM   11  C   UNL     1      41.835 -17.138   6.896  1.00  0.00     0.053 C 
HETATM   12  C   UNL     1      41.069 -17.113   5.576  1.00  0.00     0.125 C 
BRANCH  10  13
HETATM   13  N   UNL     1      43.602 -18.890   6.282  1.00  0.00    -0.067 N 
HETATM   14  C   UNL     1      43.765 -19.846   7.449  1.00  0.00     0.270 C 
HETATM   15  H   UNL     1      42.798 -19.234   5.746  1.00  0.00     0.280 HD
BRANCH  13  16
HETATM   16  C   UNL     1      44.815 -19.028   5.359  1.00  0.00     0.273 C 
BRANCH  16  17
HETATM   17  C   UNL     1      44.545 -19.925   4.192  1.00  0.00    -0.026 A 
HETATM   18  C   UNL     1      44.856 -21.272   4.145  1.00  0.00     0.058 A 
HETATM   19  S   UNL     1      44.393 -22.012   2.676  1.00  0.00    -0.113 SA
HETATM   20  C   UNL     1      43.803 -20.536   2.055  1.00  0.00     0.050 A 
HETATM   21  C   UNL     1      43.946 -19.503   2.955  1.00  0.00     0.016 A 
ENDBRANCH  16  17
ENDBRANCH  13  16
ENDBRANCH  10  13
ENDBRANCH   1   7
BRANCH   4  22
HETATM   22  C   UNL     1      38.630 -13.746   0.493  1.00  0.00     0.251 C 
HETATM   23  N   UNL     1      38.622 -14.337  -0.751  1.00  0.00    -0.355 N 
HETATM   24  H   UNL     1      39.102 -15.224  -0.858  1.00  0.00     0.162 HD
HETATM   25  O   UNL     1      38.046 -12.690   0.720  1.00  0.00    -0.268 OA
BRANCH  23  26
HETATM   26  C   UNL     1      38.221 -13.660  -1.984  1.00  0.00     0.150 C 
BRANCH  26  27
HETATM   27  C   UNL     1      37.659 -14.549  -3.118  1.00  0.00     0.254 C 
BRANCH  27  28
HETATM   28  N   UNL     1      37.062 -13.755  -4.254  1.00  0.00    -0.066 N 
HETATM   29  H   UNL     1      37.765 -13.787  -5.023  1.00  0.00     0.280 HD
HETATM   30  C   UNL     1      35.781 -14.332  -4.836  1.00  0.00     0.261 C 
HETATM   31  C   UNL     1      35.325 -13.473  -6.023  1.00  0.00     0.195 C 
HETATM   32  O   UNL     1      35.136 -12.112  -5.623  1.00  0.00    -0.388 OA
HETATM   33  C   UNL     1      36.354 -11.533  -5.141  1.00  0.00     0.195 C 
HETATM   34  C   UNL     1      36.870 -12.287  -3.911  1.00  0.00     0.261 C 
ENDBRANCH  27  28
ENDBRANCH  26  27
ENDBRANCH  23  26
ENDBRANCH   4  22
TORSDOF 8
ENDMDL
MODEL 5
REMARK VINA RESULT:      -7.3      5.164      8.083
REMARK  8 active torsions:
REMARK  status: ('A' for Active; 'I' for Inactive)
REMARK    1  A    between atoms: N_2  and  C_4 
REMARK    2  A    between atoms: N_2  and  C_28 
REMARK    3  A    between atoms: N_7  and  C_8 
REMARK    4  A    between atoms: C_11  and  C_12 
REMARK       I    between atoms: C_12  and  N_13 
REMARK    5  A    between atoms: N_13  and  C_14 
REMARK    6  A    between atoms: C_14  and  C_15 
REMARK    7  A    between atoms: C_15  and  N_16 
REMARK    8  A    between atoms: C_28  and  C_29 
ROOT
HETATM    1  C   UNL     1      40.846 -13.305   4.820  1.00  0.00     0.030 A 
HETATM    2  C   UNL     1      41.757 -12.335   5.266  1.00  0.00     0.030 A 
HETATM    3  C   UNL     1      41.462 -11.483   6.344  1.00  0.00     0.019 A 
HETATM    4  C   UNL     1      40.238 -11.591   7.007  1.00  0.00     0.032 A 
HETATM    5  C   UNL     1      39.318 -12.550   6.585  1.00  0.00     0.019 A 
HETATM    6  C   UNL     1      39.619 -13.387   5.502  1.00  0.00     0.030 A 
ENDROOT
BRANCH   1   7
HETATM    7  N   UNL     1      41.135 -14.218   3.798  1.00  0.00    -0.381 N 
HETATM    8  C   UNL     1      40.714 -15.607   3.963  1.00  0.00     0.125 C 
HETATM    9  C   UNL     1      40.627 -16.274   2.593  1.00  0.00     0.053 C 
HETATM   10  C   UNL     1      41.924 -16.139   1.778  1.00  0.00     0.191 C 
HETATM   11  C   UNL     1      42.301 -14.649   1.700  1.00  0.00     0.053 C 
HETATM   12  C   UNL     1      42.391 -13.993   3.076  1.00  0.00     0.125 C 
BRANCH  10  13
HETATM   13  N   UNL     1      43.059 -17.011   2.350  1.00  0.00    -0.067 N 
HETATM   14  C   UNL     1      44.277 -17.096   1.449  1.00  0.00     0.270 C 
HETATM   15  H   UNL     1      43.386 -16.594   3.229  1.00  0.00     0.280 HD
BRANCH  13  16
HETATM   16  C   UNL     1      42.603 -18.429   2.699  1.00  0.00     0.273 C 
BRANCH  16  17
HETATM   17  C   UNL     1      43.298 -18.970   3.909  1.00  0.00    -0.026 A 
HETATM   18  C   UNL     1      43.002 -18.614   5.213  1.00  0.00     0.058 A 
HETATM   19  S   UNL     1      43.965 -19.433   6.363  1.00  0.00    -0.113 SA
HETATM   20  C   UNL     1      44.827 -20.252   5.137  1.00  0.00     0.050 A 
HETATM   21  C   UNL     1      44.380 -19.916   3.878  1.00  0.00     0.016 A 
ENDBRANCH  16  17
ENDBRANCH  13  16
ENDBRANCH  10  13
ENDBRANCH   1   7
BRANCH   4  22
HETATM   22  C   UNL     1      39.925 -10.779   8.212  1.00  0.00     0.251 C 
HETATM   23  N   UNL     1      40.959 -10.071   8.783  1.00  0.00    -0.355 N 
HETATM   24  H   UNL     1      41.871 -10.128   8.344  1.00  0.00     0.162 HD
HETATM   25  O   UNL     1      38.781 -10.741   8.658  1.00  0.00    -0.268 OA
BRANCH  23  26
HETATM   26  C   UNL     1      40.913  -9.474  10.117  1.00  0.00     0.150 C 
BRANCH  26  27
HETATM   27  C   UNL     1      42.214  -9.524  10.950  1.00  0.00     0.254 C 
BRANCH  27  28
HETATM   28  N   UNL     1      42.993 -10.802  10.760  1.00  0.00    -0.066 N 
HETATM   29  H   UNL     1      42.360 -11.445  10.239  1.00  0.00     0.280 HD
HETATM   30  C   UNL     1      44.246 -10.670   9.909  1.00  0.00     0.261 C 
HETATM   31  C   UNL     1      44.897 -12.048   9.737  1.00  0.00     0.195 C 
HETATM   32  O   UNL     1      45.205 -12.628  11.009  1.00  0.00    -0.388 OA
HETATM   33  C   UNL     1      44.023 -12.826  11.794  1.00  0.00     0.195 C 
HETATM   34  C   UNL     1      43.320 -11.493  12.074  1.00  0.00     0.261 C 
ENDBRANCH  27  28
ENDBRANCH  26  27
ENDBRANCH  23  26
ENDBRANCH   4  22
TORSDOF 8
ENDMDL
MODEL 6
REMARK VINA RESULT:      -7.3      5.681      8.650
REMARK  8 active torsions:
REMARK  status: ('A' for Active; 'I' for Inactive)
REMARK    1  A    between atoms: N_2  and  C_4 
REMARK    2  A    between atoms: N_2  and  C_28 
REMARK    3  A    between atoms: N_7  and  C_8 
REMARK    4  A    between atoms: C_11  and  C_12 
REMARK       I    between atoms: C_12  and  N_13 
REMARK    5  A    between atoms: N_13  and  C_14 
REMARK    6  A    between atoms: C_14  and  C_15 
REMARK    7  A    between atoms: C_15  and  N_16 
REMARK    8  A    between atoms: C_28  and  C_29 
ROOT
HETATM    1  C   UNL     1      40.666 -13.461   4.408  1.00  0.00     0.030 A 
HETATM    2  C   UNL     1      41.249 -12.185   4.471  1.00  0.00     0.030 A 
HETATM    3  C   UNL     1      40.939 -11.280   5.499  1.00  0.00     0.019 A 
HETATM    4  C   UNL     1      40.034 -11.640   6.500  1.00  0.00     0.032 A 
HETATM    5  C   UNL     1      39.445 -12.903   6.462  1.00  0.00     0.019 A 
HETATM    6  C   UNL     1      39.753 -13.793   5.425  1.00  0.00     0.030 A 
ENDROOT
BRANCH   1   7
HETATM    7  N   UNL     1      41.005 -14.414   3.440  1.00  0.00    -0.381 N 
HETATM    8  C   UNL     1      40.641 -15.809   3.677  1.00  0.00     0.125 C 
HETATM    9  C   UNL     1      40.599 -16.552   2.344  1.00  0.00     0.053 C 
HETATM   10  C   UNL     1      41.899 -16.405   1.535  1.00  0.00     0.191 C 
HETATM   11  C   UNL     1      42.213 -14.907   1.380  1.00  0.00     0.053 C 
HETATM   12  C   UNL     1      42.260 -14.175   2.719  1.00  0.00     0.125 C 
BRANCH  10  13
HETATM   13  N   UNL     1      43.063 -17.196   2.164  1.00  0.00    -0.067 N 
HETATM   14  C   UNL     1      44.292 -17.281   1.279  1.00  0.00     0.270 C 
HETATM   15  H   UNL     1      43.364 -16.717   3.021  1.00  0.00     0.280 HD
BRANCH  13  16
HETATM   16  C   UNL     1      42.662 -18.610   2.590  1.00  0.00     0.273 C 
BRANCH  16  17
HETATM   17  C   UNL     1      43.285 -19.013   3.889  1.00  0.00    -0.026 A 
HETATM   18  C   UNL     1      42.868 -18.575   5.133  1.00  0.00     0.058 A 
HETATM   19  S   UNL     1      43.778 -19.244   6.416  1.00  0.00    -0.113 SA
HETATM   20  C   UNL     1      44.777 -20.103   5.330  1.00  0.00     0.050 A 
HETATM   21  C   UNL     1      44.416 -19.893   4.018  1.00  0.00     0.016 A 
ENDBRANCH  16  17
ENDBRANCH  13  16
ENDBRANCH  10  13
ENDBRANCH   1   7
BRANCH   4  22
HETATM   22  C   UNL     1      39.753 -10.752   7.659  1.00  0.00     0.251 C 
HETATM   23  N   UNL     1      40.578 -10.865   8.756  1.00  0.00    -0.355 N 
HETATM   24  H   UNL     1      41.340 -11.533   8.709  1.00  0.00     0.162 HD
HETATM   25  O   UNL     1      38.828  -9.945   7.616  1.00  0.00    -0.268 OA
BRANCH  23  26
HETATM   26  C   UNL     1      40.280 -10.308  10.074  1.00  0.00     0.150 C 
BRANCH  26  27
HETATM   27  C   UNL     1      40.374 -11.272  11.279  1.00  0.00     0.254 C 
BRANCH  27  28
HETATM   28  N   UNL     1      41.535 -10.969  12.194  1.00  0.00    -0.066 N 
HETATM   29  H   UNL     1      42.010 -11.881  12.362  1.00  0.00     0.280 HD
HETATM   30  C   UNL     1      42.594 -10.050  11.605  1.00  0.00     0.261 C 
HETATM   31  C   UNL     1      43.744  -9.885  12.606  1.00  0.00     0.195 C 
HETATM   32  O   UNL     1      43.264  -9.374  13.854  1.00  0.00    -0.388 OA
HETATM   33  C   UNL     1      42.319 -10.266  14.456  1.00  0.00     0.195 C 
HETATM   34  C   UNL     1      41.094 -10.458  13.556  1.00  0.00     0.261 C 
ENDBRANCH  27  28
ENDBRANCH  26  27
ENDBRANCH  23  26
ENDBRANCH   4  22
TORSDOF 8
ENDMDL
MODEL 7
REMARK VINA RESULT:      -7.3      1.876      2.497
REMARK  8 active torsions:
REMARK  status: ('A' for Active; 'I' for Inactive)
REMARK    1  A    between atoms: N_2  and  C_4 
REMARK    2  A    between atoms: N_2  and  C_28 
REMARK    3  A    between atoms: N_7  and  C_8 
REMARK    4  A    between atoms: C_11  and  C_12 
REMARK       I    between atoms: C_12  and  N_13 
REMARK    5  A    between atoms: N_13  and  C_14 
REMARK    6  A    between atoms: C_14  and  C_15 
REMARK    7  A    between atoms: C_15  and  N_16 
REMARK    8  A    between atoms: C_28  and  C_29 
ROOT
HETATM    1  C   UNL     1      41.938 -15.201   5.713  1.00  0.00     0.030 A 
HETATM    2  C   UNL     1      40.559 -15.168   5.970  1.00  0.00     0.030 A 
HETATM    3  C   UNL     1      39.729 -14.172   5.429  1.00  0.00     0.019 A 
HETATM    4  C   UNL     1      40.269 -13.182   4.606  1.00  0.00     0.032 A 
HETATM    5  C   UNL     1      41.636 -13.195   4.333  1.00  0.00     0.019 A 
HETATM    6  C   UNL     1      42.456 -14.187   4.887  1.00  0.00     0.030 A 
ENDROOT
BRANCH   1   7
HETATM    7  N   UNL     1      42.782 -16.219   6.175  1.00  0.00    -0.381 N 
HETATM    8  C   UNL     1      43.875 -16.664   5.314  1.00  0.00     0.125 C 
HETATM    9  C   UNL     1      44.946 -17.338   6.167  1.00  0.00     0.053 C 
HETATM   10  C   UNL     1      44.386 -18.467   7.049  1.00  0.00     0.191 C 
HETATM   11  C   UNL     1      43.219 -17.907   7.880  1.00  0.00     0.053 C 
HETATM   12  C   UNL     1      42.150 -17.240   7.017  1.00  0.00     0.125 C 
BRANCH  10  13
HETATM   13  N   UNL     1      43.988 -19.704   6.220  1.00  0.00    -0.067 N 
HETATM   14  C   UNL     1      43.603 -20.905   7.063  1.00  0.00     0.270 C 
HETATM   15  H   UNL     1      43.159 -19.474   5.660  1.00  0.00     0.280 HD
BRANCH  13  16
HETATM   16  C   UNL     1      45.068 -20.126   5.222  1.00  0.00     0.273 C 
BRANCH  16  17
HETATM   17  C   UNL     1      44.505 -20.441   3.872  1.00  0.00    -0.026 A 
HETATM   18  C   UNL     1      44.594 -21.673   3.248  1.00  0.00     0.058 A 
HETATM   19  S   UNL     1      43.826 -21.705   1.722  1.00  0.00    -0.113 SA
HETATM   20  C   UNL     1      43.392 -20.059   1.845  1.00  0.00     0.050 A 
HETATM   21  C   UNL     1      43.814 -19.500   3.031  1.00  0.00     0.016 A 
ENDBRANCH  16  17
ENDBRANCH  13  16
ENDBRANCH  10  13
ENDBRANCH   1   7
BRANCH   4  22
HETATM   22  C   UNL     1      39.414 -12.168   3.934  1.00  0.00     0.251 C 
HETATM   23  N   UNL     1      38.873 -12.507   2.714  1.00  0.00    -0.355 N 
HETATM   24  H   UNL     1      39.072 -13.431   2.347  1.00  0.00     0.162 HD
HETATM   25  O   UNL     1      39.196 -11.083   4.468  1.00  0.00    -0.268 OA
BRANCH  23  26
HETATM   26  C   UNL     1      38.271 -11.552   1.784  1.00  0.00     0.150 C 
BRANCH  26  27
HETATM   27  C   UNL     1      38.640 -11.705   0.290  1.00  0.00     0.254 C 
BRANCH  27  28
HETATM   28  N   UNL     1      39.844 -12.585   0.062  1.00  0.00    -0.066 N 
HETATM   29  H   UNL     1      40.322 -12.657   0.985  1.00  0.00     0.280 HD
HETATM   30  C   UNL     1      39.526 -14.012  -0.355  1.00  0.00     0.261 C 
HETATM   31  C   UNL     1      40.828 -14.812  -0.481  1.00  0.00     0.195 C 
HETATM   32  O   UNL     1      41.717 -14.194  -1.418  1.00  0.00    -0.388 OA
HETATM   33  C   UNL     1      42.083 -12.874  -0.999  1.00  0.00     0.195 C 
HETATM   34  C   UNL     1      40.851 -11.969  -0.895  1.00  0.00     0.261 C 
ENDBRANCH  27  28
ENDBRANCH  26  27
ENDBRANCH  23  26
ENDBRANCH   4  22
TORSDOF 8
ENDMDL
MODEL 8
REMARK VINA RESULT:      -7.1      6.056      8.842
REMARK  8 active torsions:
REMARK  status: ('A' for Active; 'I' for Inactive)
REMARK    1  A    between atoms: N_2  and  C_4 
REMARK    2  A    between atoms: N_2  and  C_28 
REMARK    3  A    between atoms: N_7  and  C_8 
REMARK    4  A    between atoms: C_11  and  C_12 
REMARK       I    between atoms: C_12  and  N_13 
REMARK    5  A    between atoms: N_13  and  C_14 
REMARK    6  A    between atoms: C_14  and  C_15 
REMARK    7  A    between atoms: C_15  and  N_16 
REMARK    8  A    between atoms: C_28  and  C_29 
ROOT
HETATM    1  C   UNL     1      40.321 -11.736   6.589  1.00  0.00     0.030 A 
HETATM    2  C   UNL     1      39.407 -12.794   6.464  1.00  0.00     0.030 A 
HETATM    3  C   UNL     1      39.533 -13.766   5.457  1.00  0.00     0.019 A 
HETATM    4  C   UNL     1      40.592 -13.700   4.550  1.00  0.00     0.032 A 
HETATM    5  C   UNL     1      41.515 -12.661   4.655  1.00  0.00     0.019 A 
HETATM    6  C   UNL     1      41.373 -11.692   5.657  1.00  0.00     0.030 A 
ENDROOT
BRANCH   1   7
HETATM    7  N   UNL     1      40.268 -10.793   7.622  1.00  0.00    -0.381 N 
HETATM    8  C   UNL     1      41.515 -10.177   8.070  1.00  0.00     0.125 C 
HETATM    9  C   UNL     1      41.203  -8.856   8.767  1.00  0.00     0.053 C 
HETATM   10  C   UNL     1      40.173  -9.006   9.900  1.00  0.00     0.191 C 
HETATM   11  C   UNL     1      38.922  -9.700   9.336  1.00  0.00     0.053 C 
HETATM   12  C   UNL     1      39.244 -11.023   8.646  1.00  0.00     0.125 C 
BRANCH  10  13
HETATM   13  N   UNL     1      40.761  -9.739  11.122  1.00  0.00    -0.067 N 
HETATM   14  C   UNL     1      39.888  -9.660  12.360  1.00  0.00     0.270 C 
HETATM   15  H   UNL     1      40.846 -10.737  10.899  1.00  0.00     0.280 HD
BRANCH  13  16
HETATM   16  C   UNL     1      42.171  -9.264  11.480  1.00  0.00     0.273 C 
BRANCH  16  17
HETATM   17  C   UNL     1      43.191 -10.350  11.339  1.00  0.00    -0.026 A 
HETATM   18  C   UNL     1      43.108 -11.593  11.940  1.00  0.00     0.058 A 
HETATM   19  S   UNL     1      44.427 -12.610  11.556  1.00  0.00    -0.113 SA
HETATM   20  C   UNL     1      45.159 -11.392  10.609  1.00  0.00     0.050 A 
HETATM   21  C   UNL     1      44.406 -10.239  10.578  1.00  0.00     0.016 A 
ENDBRANCH  16  17
ENDBRANCH  13  16
ENDBRANCH  10  13
ENDBRANCH   1   7
BRANCH   4  22
HETATM   22  C   UNL     1      40.819 -14.760   3.532  1.00  0.00     0.251 C 
HETATM   23  N   UNL     1      40.808 -16.067   3.967  1.00  0.00    -0.355 N 
HETATM   24  H   UNL     1      40.630 -16.237   4.951  1.00  0.00     0.162 HD
HETATM   25  O   UNL     1      40.992 -14.465   2.352  1.00  0.00    -0.268 OA
BRANCH  23  26
HETATM   26  C   UNL     1      41.303 -17.201   3.189  1.00  0.00     0.150 C 
BRANCH  26  27
HETATM   27  C   UNL     1      42.837 -17.338   3.053  1.00  0.00     0.254 C 
BRANCH  27  28
HETATM   28  N   UNL     1      43.362 -18.662   3.551  1.00  0.00    -0.066 N 
HETATM   29  H   UNL     1      42.521 -19.247   3.743  1.00  0.00     0.280 HD
HETATM   30  C   UNL     1      44.192 -19.444   2.545  1.00  0.00     0.261 C 
HETATM   31  C   UNL     1      44.598 -20.793   3.153  1.00  0.00     0.195 C 
HETATM   32  O   UNL     1      45.321 -20.605   4.374  1.00  0.00    -0.388 OA
HETATM   33  C   UNL     1      44.524 -19.934   5.356  1.00  0.00     0.195 C 
HETATM   34  C   UNL     1      44.109 -18.542   4.870  1.00  0.00     0.261 C 
ENDBRANCH  27  28
ENDBRANCH  26  27
ENDBRANCH  23  26
ENDBRANCH   4  22
TORSDOF 8
ENDMDL
MODEL 9
REMARK VINA RESULT:      -6.9      3.659      4.920
REMARK  8 active torsions:
REMARK  status: ('A' for Active; 'I' for Inactive)
REMARK    1  A    between atoms: N_2  and  C_4 
REMARK    2  A    between atoms: N_2  and  C_28 
REMARK    3  A    between atoms: N_7  and  C_8 
REMARK    4  A    between atoms: C_11  and  C_12 
REMARK       I    between atoms: C_12  and  N_13 
REMARK    5  A    between atoms: N_13  and  C_14 
REMARK    6  A    between atoms: C_14  and  C_15 
REMARK    7  A    between atoms: C_15  and  N_16 
REMARK    8  A    between atoms: C_28  and  C_29 
ROOT
HETATM    1  C   UNL     1      40.439 -14.869   0.562  1.00  0.00     0.030 A 
HETATM    2  C   UNL     1      40.878 -14.990  -0.765  1.00  0.00     0.030 A 
HETATM    3  C   UNL     1      40.066 -14.619  -1.851  1.00  0.00     0.019 A 
HETATM    4  C   UNL     1      38.787 -14.109  -1.625  1.00  0.00     0.032 A 
HETATM    5  C   UNL     1      38.329 -13.976  -0.315  1.00  0.00     0.019 A 
HETATM    6  C   UNL     1      39.144 -14.359   0.759  1.00  0.00     0.030 A 
ENDROOT
BRANCH   1   7
HETATM    7  N   UNL     1      41.247 -15.159   1.668  1.00  0.00    -0.381 N 
HETATM    8  C   UNL     1      42.510 -15.858   1.445  1.00  0.00     0.125 C 
HETATM    9  C   UNL     1      43.445 -15.599   2.624  1.00  0.00     0.053 C 
HETATM   10  C   UNL     1      42.805 -15.944   3.980  1.00  0.00     0.191 C 
HETATM   11  C   UNL     1      41.467 -15.194   4.096  1.00  0.00     0.053 C 
HETATM   12  C   UNL     1      40.538 -15.465   2.915  1.00  0.00     0.125 C 
BRANCH  10  13
HETATM   13  N   UNL     1      42.655 -17.465   4.178  1.00  0.00    -0.067 N 
HETATM   14  C   UNL     1      41.806 -17.844   5.377  1.00  0.00     0.270 C 
HETATM   15  H   UNL     1      42.179 -17.860   3.359  1.00  0.00     0.280 HD
BRANCH  13  16
HETATM   16  C   UNL     1      44.000 -18.190   4.276  1.00  0.00     0.273 C 
BRANCH  16  17
HETATM   17  C   UNL     1      44.018 -19.466   3.494  1.00  0.00    -0.026 A 
HETATM   18  C   UNL     1      44.707 -20.607   3.864  1.00  0.00     0.058 A 
HETATM   19  S   UNL     1      44.500 -21.897   2.763  1.00  0.00    -0.113 SA
HETATM   20  C   UNL     1      43.516 -20.943   1.746  1.00  0.00     0.050 A 
HETATM   21  C   UNL     1      43.340 -19.670   2.242  1.00  0.00     0.016 A 
ENDBRANCH  16  17
ENDBRANCH  13  16
ENDBRANCH  10  13
ENDBRANCH   1   7
BRANCH   4  22
HETATM   22  C   UNL     1      37.933 -13.613  -2.737  1.00  0.00     0.251 C 
HETATM   23  N   UNL     1      37.252 -14.553  -3.478  1.00  0.00    -0.355 N 
HETATM   24  H   UNL     1      37.356 -15.528  -3.219  1.00  0.00     0.162 HD
HETATM   25  O   UNL     1      37.838 -12.409  -2.960  1.00  0.00    -0.268 OA
BRANCH  23  26
HETATM   26  C   UNL     1      36.621 -14.286  -4.770  1.00  0.00     0.150 C 
BRANCH  26  27
HETATM   27  C   UNL     1      35.105 -13.981  -4.758  1.00  0.00     0.254 C 
BRANCH  27  28
HETATM   28  N   UNL     1      34.626 -13.298  -6.014  1.00  0.00    -0.066 N 
HETATM   29  H   UNL     1      33.616 -13.540  -6.102  1.00  0.00     0.280 HD
HETATM   30  C   UNL     1      34.689 -11.779  -5.984  1.00  0.00     0.261 C 
HETATM   31  C   UNL     1      34.108 -11.215  -7.286  1.00  0.00     0.195 C 
HETATM   32  O   UNL     1      34.809 -11.731  -8.423  1.00  0.00    -0.388 OA
HETATM   33  C   UNL     1      34.696 -13.156  -8.505  1.00  0.00     0.195 C 
HETATM   34  C   UNL     1      35.303 -13.827  -7.268  1.00  0.00     0.261 C 
ENDBRANCH  27  28
ENDBRANCH  26  27
ENDBRANCH  23  26
ENDBRANCH   4  22
TORSDOF 8
ENDMDL
MODEL 10
REMARK VINA RESULT:      -6.8      5.353      7.900
REMARK  8 active torsions:
REMARK  status: ('A' for Active; 'I' for Inactive)
REMARK    1  A    between atoms: N_2  and  C_4 
REMARK    2  A    between atoms: N_2  and  C_28 
REMARK    3  A    between atoms: N_7  and  C_8 
REMARK    4  A    between atoms: C_11  and  C_12 
REMARK       I    between atoms: C_12  and  N_13 
REMARK    5  A    between atoms: N_13  and  C_14 
REMARK    6  A    between atoms: C_14  and  C_15 
REMARK    7  A    between atoms: C_15  and  N_16 
REMARK    8  A    between atoms: C_28  and  C_29 
ROOT
HETATM    1  C   UNL     1      41.312 -14.405   4.756  1.00  0.00     0.030 A 
HETATM    2  C   UNL     1      42.234 -13.350   4.668  1.00  0.00     0.030 A 
HETATM    3  C   UNL     1      42.039 -12.138   5.351  1.00  0.00     0.019 A 
HETATM    4  C   UNL     1      40.908 -11.958   6.149  1.00  0.00     0.032 A 
HETATM    5  C   UNL     1      39.979 -12.993   6.255  1.00  0.00     0.019 A 
HETATM    6  C   UNL     1      40.179 -14.193   5.561  1.00  0.00     0.030 A 
ENDROOT
BRANCH   1   7
HETATM    7  N   UNL     1      41.510 -15.651   4.149  1.00  0.00    -0.381 N 
HETATM    8  C   UNL     1      42.187 -16.699   4.910  1.00  0.00     0.125 C 
HETATM    9  C   UNL     1      41.829 -18.061   4.321  1.00  0.00     0.053 C 
HETATM   10  C   UNL     1      42.104 -18.151   2.810  1.00  0.00     0.191 C 
HETATM   11  C   UNL     1      41.386 -16.984   2.111  1.00  0.00     0.053 C 
HETATM   12  C   UNL     1      41.755 -15.627   2.703  1.00  0.00     0.125 C 
BRANCH  10  13
HETATM   13  N   UNL     1      43.613 -18.193   2.500  1.00  0.00    -0.067 N 
HETATM   14  C   UNL     1      44.093 -17.035   1.645  1.00  0.00     0.270 C 
HETATM   15  H   UNL     1      44.135 -18.128   3.382  1.00  0.00     0.280 HD
BRANCH  13  16
HETATM   16  C   UNL     1      44.052 -19.505   1.846  1.00  0.00     0.273 C 
BRANCH  16  17
HETATM   17  C   UNL     1      44.356 -20.570   2.852  1.00  0.00    -0.026 A 
HETATM   18  C   UNL     1      44.711 -20.333   4.168  1.00  0.00     0.058 A 
HETATM   19  S   UNL     1      44.969 -21.769   5.059  1.00  0.00    -0.113 SA
HETATM   20  C   UNL     1      44.650 -22.738   3.691  1.00  0.00     0.050 A 
HETATM   21  C   UNL     1      44.342 -21.982   2.581  1.00  0.00     0.016 A 
ENDBRANCH  16  17
ENDBRANCH  13  16
ENDBRANCH  10  13
ENDBRANCH   1   7
BRANCH   4  22
HETATM   22  C   UNL     1      40.711 -10.732   6.965  1.00  0.00     0.251 C 
HETATM   23  N   UNL     1      39.684 -10.741   7.883  1.00  0.00    -0.355 N 
HETATM   24  H   UNL     1      39.129 -11.586   7.964  1.00  0.00     0.162 HD
HETATM   25  O   UNL     1      41.455  -9.764   6.825  1.00  0.00    -0.268 OA
BRANCH  23  26
HETATM   26  C   UNL     1      39.157  -9.548   8.545  1.00  0.00     0.150 C 
BRANCH  26  27
HETATM   27  C   UNL     1      38.531  -9.745   9.944  1.00  0.00     0.254 C 
BRANCH  27  28
HETATM   28  N   UNL     1      39.528  -9.600  11.067  1.00  0.00    -0.066 N 
HETATM   29  H   UNL     1      38.979  -9.284  11.895  1.00  0.00     0.280 HD
HETATM   30  C   UNL     1      40.212 -10.891  11.489  1.00  0.00     0.261 C 
HETATM   31  C   UNL     1      41.139 -10.615  12.680  1.00  0.00     0.195 C 
HETATM   32  O   UNL     1      42.105  -9.610  12.351  1.00  0.00    -0.388 OA
HETATM   33  C   UNL     1      41.475  -8.366  12.023  1.00  0.00     0.195 C 
HETATM   34  C   UNL     1      40.562  -8.518  10.802  1.00  0.00     0.261 C 
ENDBRANCH  27  28
ENDBRANCH  26  27
ENDBRANCH  23  26
ENDBRANCH   4  22
TORSDOF 8
ENDMDL
