MODEL 1
REMARK VINA RESULT:      -9.3      0.000      0.000
REMARK  5 active torsions:
REMARK  status: ('A' for Active; 'I' for Inactive)
REMARK    1  A    between atoms: C_4  and  C_5 
REMARK    2  A    between atoms: C_5  and  N_6 
REMARK    3  A    between atoms: C_9  and  N_10 
REMARK       I    between atoms: N_10  and  C_11 
REMARK       I    between atoms: C_11  and  N_12 
REMARK    4  A    between atoms: N_12  and  N_13 
REMARK       I    between atoms: N_13  and  C_14 
REMARK    5  A    between atoms: C_14  and  C_15 
ROOT
HETATM    1  N   UNL     1      44.224 -13.638   8.103  1.00  0.00    -0.336 N 
HETATM    2  C   UNL     1      44.254 -14.356   6.940  1.00  0.00     0.335 C 
HETATM    3  N   UNL     1      43.900 -15.670   7.116  1.00  0.00    -0.249 N 
HETATM    4  O   UNL     1      44.627 -13.877   5.871  1.00  0.00    -0.246 OA
HETATM    5  H   UNL     1      43.883 -14.133   8.920  1.00  0.00     0.164 HD
HETATM    6  H   UNL     1      43.217 -15.901   7.839  1.00  0.00     0.192 HD
ENDROOT
BRANCH   1   7
HETATM    7  C   UNL     1      44.485 -12.202   8.269  1.00  0.00     0.112 C 
HETATM    8  C   UNL     1      43.315 -11.377   8.861  1.00  0.00     0.260 C 
HETATM    9  N   UNL     1      43.219 -11.561  10.355  1.00  0.00    -0.065 N 
HETATM   10  H   UNL     1      43.107 -12.590  10.480  1.00  0.00     0.280 HD
HETATM   11  C   UNL     1      44.482 -11.197  11.073  1.00  0.00     0.235 C 
HETATM   12  C   UNL     1      45.628 -12.057  10.554  1.00  0.00     0.030 C 
HETATM   13  C   UNL     1      45.788 -11.949   9.040  1.00  0.00     0.028 C 
BRANCH   9  14
HETATM   14  C   UNL     1      41.963 -10.999  10.970  1.00  0.00     0.273 C 
BRANCH  14  15
HETATM   15  C   UNL     1      42.160 -10.217  12.240  1.00  0.00    -0.033 A 
HETATM   16  C   UNL     1      42.390  -8.832  12.196  1.00  0.00     0.009 A 
HETATM   17  C   UNL     1      42.593  -8.109  13.373  1.00  0.00     0.001 A 
HETATM   18  C   UNL     1      42.564  -8.758  14.604  1.00  0.00     0.000 A 
HETATM   19  C   UNL     1      42.327 -10.128  14.663  1.00  0.00     0.001 A 
HETATM   20  C   UNL     1      42.122 -10.855  13.489  1.00  0.00     0.009 A 
ENDBRANCH  14  15
ENDBRANCH   9  14
ENDBRANCH   1   7
BRANCH   3  21
HETATM   21  N   UNL     1      43.763 -16.466   5.965  1.00  0.00    -0.261 N 
HETATM   22  C   UNL     1      44.459 -17.662   5.902  1.00  0.00     0.277 C 
HETATM   23  O   UNL     1      45.201 -17.989   6.831  1.00  0.00    -0.265 OA
HETATM   24  H   UNL     1      43.081 -16.199   5.261  1.00  0.00     0.190 HD
BRANCH  22  25
HETATM   25  C   UNL     1      44.257 -18.469   4.709  1.00  0.00     0.075 A 
HETATM   26  S   UNL     1      44.779 -20.101   4.606  1.00  0.00    -0.077 SA
HETATM   27  C   UNL     1      44.180 -20.256   3.030  1.00  0.00     0.052 A 
HETATM   28 BR   UNL     1      44.310 -21.840   2.039  1.00  0.00    -0.043 Br
HETATM   29  C   UNL     1      43.595 -19.111   2.557  1.00  0.00     0.028 A 
HETATM   30  C   UNL     1      43.641 -18.071   3.533  1.00  0.00     0.026 A 
ENDBRANCH  22  25
ENDBRANCH   3  21
TORSDOF 5
ENDMDL
MODEL 2
REMARK VINA RESULT:      -9.0      4.495     10.852
REMARK  5 active torsions:
REMARK  status: ('A' for Active; 'I' for Inactive)
REMARK    1  A    between atoms: C_4  and  C_5 
REMARK    2  A    between atoms: C_5  and  N_6 
REMARK    3  A    between atoms: C_9  and  N_10 
REMARK       I    between atoms: N_10  and  C_11 
REMARK       I    between atoms: C_11  and  N_12 
REMARK    4  A    between atoms: N_12  and  N_13 
REMARK       I    between atoms: N_13  and  C_14 
REMARK    5  A    between atoms: C_14  and  C_15 
ROOT
HETATM    1  N   UNL     1      43.397 -14.799   4.723  1.00  0.00    -0.336 N 
HETATM    2  C   UNL     1      42.937 -14.012   5.742  1.00  0.00     0.335 C 
HETATM    3  N   UNL     1      43.884 -13.785   6.709  1.00  0.00    -0.249 N 
HETATM    4  O   UNL     1      41.775 -13.616   5.806  1.00  0.00    -0.246 OA
HETATM    5  H   UNL     1      44.378 -15.053   4.768  1.00  0.00     0.164 HD
HETATM    6  H   UNL     1      44.866 -13.735   6.432  1.00  0.00     0.192 HD
ENDROOT
BRANCH   1   7
HETATM    7  C   UNL     1      42.674 -15.189   3.505  1.00  0.00     0.112 C 
HETATM    8  C   UNL     1      43.442 -16.138   2.551  1.00  0.00     0.260 C 
HETATM    9  N   UNL     1      43.415 -17.559   3.056  1.00  0.00    -0.065 N 
HETATM   10  H   UNL     1      43.833 -17.500   4.010  1.00  0.00     0.280 HD
HETATM   11  C   UNL     1      42.026 -18.085   3.250  1.00  0.00     0.235 C 
HETATM   12  C   UNL     1      41.284 -17.205   4.248  1.00  0.00     0.030 C 
HETATM   13  C   UNL     1      41.277 -15.738   3.827  1.00  0.00     0.028 C 
BRANCH   9  14
HETATM   14  C   UNL     1      44.344 -18.494   2.327  1.00  0.00     0.273 C 
BRANCH  14  15
HETATM   15  C   UNL     1      44.464 -19.874   2.915  1.00  0.00    -0.033 A 
HETATM   16  C   UNL     1      44.214 -21.009   2.127  1.00  0.00     0.009 A 
HETATM   17  C   UNL     1      44.305 -22.289   2.677  1.00  0.00     0.001 A 
HETATM   18  C   UNL     1      44.652 -22.450   4.016  1.00  0.00     0.000 A 
HETATM   19  C   UNL     1      44.913 -21.334   4.806  1.00  0.00     0.001 A 
HETATM   20  C   UNL     1      44.824 -20.052   4.260  1.00  0.00     0.009 A 
ENDBRANCH  14  15
ENDBRANCH   9  14
ENDBRANCH   1   7
BRANCH   3  21
HETATM   21  N   UNL     1      43.563 -12.876   7.733  1.00  0.00    -0.261 N 
HETATM   22  C   UNL     1      44.547 -12.536   8.647  1.00  0.00     0.277 C 
HETATM   23  O   UNL     1      45.664 -13.053   8.565  1.00  0.00    -0.265 OA
HETATM   24  H   UNL     1      42.658 -12.415   7.715  1.00  0.00     0.190 HD
BRANCH  22  25
HETATM   25  C   UNL     1      44.179 -11.565   9.665  1.00  0.00     0.075 A 
HETATM   26  S   UNL     1      42.791 -10.566   9.520  1.00  0.00    -0.077 SA
HETATM   27  C   UNL     1      43.093  -9.827  11.013  1.00  0.00     0.052 A 
HETATM   28 BR   UNL     1      41.990  -8.496  11.735  1.00  0.00    -0.043 Br
HETATM   29  C   UNL     1      44.219 -10.299  11.634  1.00  0.00     0.028 A 
HETATM   30  C   UNL     1      44.852 -11.309  10.849  1.00  0.00     0.026 A 
ENDBRANCH  22  25
ENDBRANCH   3  21
TORSDOF 5
ENDMDL
MODEL 3
REMARK VINA RESULT:      -8.6      6.889     10.392
REMARK  5 active torsions:
REMARK  status: ('A' for Active; 'I' for Inactive)
REMARK    1  A    between atoms: C_4  and  C_5 
REMARK    2  A    between atoms: C_5  and  N_6 
REMARK    3  A    between atoms: C_9  and  N_10 
REMARK       I    between atoms: N_10  and  C_11 
REMARK       I    between atoms: C_11  and  N_12 
REMARK    4  A    between atoms: N_12  and  N_13 
REMARK       I    between atoms: N_13  and  C_14 
REMARK    5  A    between atoms: C_14  and  C_15 
ROOT
HETATM    1  N   UNL     1      42.153 -16.104   3.569  1.00  0.00    -0.336 N 
HETATM    2  C   UNL     1      41.195 -16.087   2.594  1.00  0.00     0.335 C 
HETATM    3  N   UNL     1      41.654 -15.581   1.404  1.00  0.00    -0.249 N 
HETATM    4  O   UNL     1      40.031 -16.428   2.798  1.00  0.00    -0.246 OA
HETATM    5  H   UNL     1      43.082 -15.815   3.281  1.00  0.00     0.164 HD
HETATM    6  H   UNL     1      42.632 -15.731   1.152  1.00  0.00     0.192 HD
ENDROOT
BRANCH   1   7
HETATM    7  C   UNL     1      42.025 -16.631   4.934  1.00  0.00     0.112 C 
HETATM    8  C   UNL     1      42.633 -18.036   5.165  1.00  0.00     0.260 C 
HETATM    9  N   UNL     1      44.134 -17.966   5.302  1.00  0.00    -0.065 N 
HETATM   10  H   UNL     1      44.451 -17.516   4.417  1.00  0.00     0.280 HD
HETATM   11  C   UNL     1      44.579 -17.057   6.407  1.00  0.00     0.235 C 
HETATM   12  C   UNL     1      44.052 -15.651   6.151  1.00  0.00     0.030 C 
HETATM   13  C   UNL     1      42.536 -15.627   5.978  1.00  0.00     0.028 C 
BRANCH   9  14
HETATM   14  C   UNL     1      44.822 -19.306   5.276  1.00  0.00     0.273 C 
BRANCH  14  15
HETATM   15  C   UNL     1      44.528 -20.160   4.073  1.00  0.00    -0.033 A 
HETATM   16  C   UNL     1      44.031 -19.582   2.893  1.00  0.00     0.009 A 
HETATM   17  C   UNL     1      43.739 -20.376   1.782  1.00  0.00     0.001 A 
HETATM   18  C   UNL     1      43.944 -21.752   1.835  1.00  0.00     0.000 A 
HETATM   19  C   UNL     1      44.446 -22.337   2.995  1.00  0.00     0.001 A 
HETATM   20  C   UNL     1      44.740 -21.546   4.108  1.00  0.00     0.009 A 
ENDBRANCH  14  15
ENDBRANCH   9  14
ENDBRANCH   1   7
BRANCH   3  21
HETATM   21  N   UNL     1      40.792 -15.645   0.295  1.00  0.00    -0.261 N 
HETATM   22  C   UNL     1      41.003 -14.769  -0.758  1.00  0.00     0.277 C 
HETATM   23  O   UNL     1      41.913 -13.940  -0.691  1.00  0.00    -0.265 OA
HETATM   24  H   UNL     1      40.109 -16.396   0.246  1.00  0.00     0.190 HD
BRANCH  22  25
HETATM   25  C   UNL     1      40.111 -14.899  -1.898  1.00  0.00     0.075 A 
HETATM   26  S   UNL     1      38.590 -14.104  -1.968  1.00  0.00    -0.077 SA
HETATM   27  C   UNL     1      38.261 -14.738  -3.503  1.00  0.00     0.052 A 
HETATM   28 BR   UNL     1      36.686 -14.366  -4.445  1.00  0.00    -0.043 Br
HETATM   29  C   UNL     1      39.260 -15.544  -3.982  1.00  0.00     0.028 A 
HETATM   30  C   UNL     1      40.334 -15.640  -3.047  1.00  0.00     0.026 A 
ENDBRANCH  22  25
ENDBRANCH   3  21
TORSDOF 5
ENDMDL
MODEL 4
REMARK VINA RESULT:      -8.3      4.730     10.554
REMARK  5 active torsions:
REMARK  status: ('A' for Active; 'I' for Inactive)
REMARK    1  A    between atoms: C_4  and  C_5 
REMARK    2  A    between atoms: C_5  and  N_6 
REMARK    3  A    between atoms: C_9  and  N_10 
REMARK       I    between atoms: N_10  and  C_11 
REMARK       I    between atoms: C_11  and  N_12 
REMARK    4  A    between atoms: N_12  and  N_13 
REMARK       I    between atoms: N_13  and  C_14 
REMARK    5  A    between atoms: C_14  and  C_15 
ROOT
HETATM    1  N   UNL     1      42.549 -13.297   4.571  1.00  0.00    -0.336 N 
HETATM    2  C   UNL     1      43.044 -13.062   5.824  1.00  0.00     0.335 C 
HETATM    3  N   UNL     1      42.236 -12.241   6.570  1.00  0.00    -0.249 N 
HETATM    4  O   UNL     1      44.131 -13.492   6.203  1.00  0.00    -0.246 OA
HETATM    5  H   UNL     1      41.634 -12.905   4.376  1.00  0.00     0.164 HD
HETATM    6  H   UNL     1      41.226 -12.278   6.420  1.00  0.00     0.192 HD
ENDROOT
BRANCH   1   7
HETATM    7  C   UNL     1      43.121 -14.172   3.538  1.00  0.00     0.112 C 
HETATM    8  C   UNL     1      43.152 -15.681   3.886  1.00  0.00     0.260 C 
HETATM    9  N   UNL     1      41.793 -16.310   3.707  1.00  0.00    -0.065 N 
HETATM   10  H   UNL     1      41.169 -15.753   4.329  1.00  0.00     0.280 HD
HETATM   11  C   UNL     1      41.248 -16.143   2.322  1.00  0.00     0.235 C 
HETATM   12  C   UNL     1      41.139 -14.658   1.995  1.00  0.00     0.030 C 
HETATM   13  C   UNL     1      42.469 -13.931   2.170  1.00  0.00     0.028 C 
BRANCH   9  14
HETATM   14  C   UNL     1      41.679 -17.706   4.262  1.00  0.00     0.273 C 
BRANCH  14  15
HETATM   15  C   UNL     1      42.796 -18.643   3.890  1.00  0.00    -0.033 A 
HETATM   16  C   UNL     1      42.939 -19.091   2.566  1.00  0.00     0.009 A 
HETATM   17  C   UNL     1      43.963 -19.976   2.224  1.00  0.00     0.001 A 
HETATM   18  C   UNL     1      44.857 -20.419   3.196  1.00  0.00     0.000 A 
HETATM   19  C   UNL     1      44.732 -19.974   4.509  1.00  0.00     0.001 A 
HETATM   20  C   UNL     1      43.711 -19.089   4.856  1.00  0.00     0.009 A 
ENDBRANCH  14  15
ENDBRANCH   9  14
ENDBRANCH   1   7
BRANCH   3  21
HETATM   21  N   UNL     1      42.578 -12.044   7.920  1.00  0.00    -0.261 N 
HETATM   22  C   UNL     1      42.526 -10.758   8.434  1.00  0.00     0.277 C 
HETATM   23  O   UNL     1      42.214  -9.818   7.700  1.00  0.00    -0.265 OA
HETATM   24  H   UNL     1      42.750 -12.856   8.506  1.00  0.00     0.190 HD
BRANCH  22  25
HETATM   25  C   UNL     1      42.851 -10.610   9.843  1.00  0.00     0.075 A 
HETATM   26  S   UNL     1      41.642 -10.492  11.056  1.00  0.00    -0.077 SA
HETATM   27  C   UNL     1      42.801 -10.372  12.284  1.00  0.00     0.052 A 
HETATM   28 BR   UNL     1      42.356 -10.203  14.096  1.00  0.00    -0.043 Br
HETATM   29  C   UNL     1      44.090 -10.410  11.820  1.00  0.00     0.028 A 
HETATM   30  C   UNL     1      44.119 -10.546  10.399  1.00  0.00     0.026 A 
ENDBRANCH  22  25
ENDBRANCH   3  21
TORSDOF 5
ENDMDL
MODEL 5
REMARK VINA RESULT:      -8.1      2.490      3.148
REMARK  5 active torsions:
REMARK  status: ('A' for Active; 'I' for Inactive)
REMARK    1  A    between atoms: C_4  and  C_5 
REMARK    2  A    between atoms: C_5  and  N_6 
REMARK    3  A    between atoms: C_9  and  N_10 
REMARK       I    between atoms: N_10  and  C_11 
REMARK       I    between atoms: C_11  and  N_12 
REMARK    4  A    between atoms: N_12  and  N_13 
REMARK       I    between atoms: N_13  and  C_14 
REMARK    5  A    between atoms: C_14  and  C_15 
ROOT
HETATM    1  N   UNL     1      40.990 -12.957   6.457  1.00  0.00    -0.336 N 
HETATM    2  C   UNL     1      41.087 -13.851   5.427  1.00  0.00     0.335 C 
HETATM    3  N   UNL     1      42.185 -14.668   5.532  1.00  0.00    -0.249 N 
HETATM    4  O   UNL     1      40.304 -13.863   4.480  1.00  0.00    -0.246 OA
HETATM    5  H   UNL     1      41.682 -13.052   7.192  1.00  0.00     0.164 HD
HETATM    6  H   UNL     1      42.516 -14.926   6.463  1.00  0.00     0.192 HD
ENDROOT
BRANCH   1   7
HETATM    7  C   UNL     1      39.915 -11.983   6.692  1.00  0.00     0.112 C 
HETATM    8  C   UNL     1      39.455 -11.840   8.164  1.00  0.00     0.260 C 
HETATM    9  N   UNL     1      40.427 -11.004   8.960  1.00  0.00    -0.065 N 
HETATM   10  H   UNL     1      41.338 -11.500   8.855  1.00  0.00     0.280 HD
HETATM   11  C   UNL     1      40.635  -9.638   8.382  1.00  0.00     0.235 C 
HETATM   12  C   UNL     1      41.162  -9.764   6.958  1.00  0.00     0.030 C 
HETATM   13  C   UNL     1      40.249 -10.615   6.079  1.00  0.00     0.028 C 
BRANCH   9  14
HETATM   14  C   UNL     1      40.189 -11.027  10.448  1.00  0.00     0.273 C 
BRANCH  14  15
HETATM   15  C   UNL     1      41.350 -10.582  11.294  1.00  0.00    -0.033 A 
HETATM   16  C   UNL     1      42.652 -11.029  11.012  1.00  0.00     0.009 A 
HETATM   17  C   UNL     1      43.727 -10.633  11.809  1.00  0.00     0.001 A 
HETATM   18  C   UNL     1      43.517  -9.784  12.892  1.00  0.00     0.000 A 
HETATM   19  C   UNL     1      42.234  -9.325  13.178  1.00  0.00     0.001 A 
HETATM   20  C   UNL     1      41.156  -9.718  12.383  1.00  0.00     0.009 A 
ENDBRANCH  14  15
ENDBRANCH   9  14
ENDBRANCH   1   7
BRANCH   3  21
HETATM   21  N   UNL     1      42.307 -15.715   4.602  1.00  0.00    -0.261 N 
HETATM   22  C   UNL     1      43.214 -16.729   4.864  1.00  0.00     0.277 C 
HETATM   23  O   UNL     1      43.910 -16.681   5.881  1.00  0.00    -0.265 OA
HETATM   24  H   UNL     1      41.659 -15.757   3.821  1.00  0.00     0.190 HD
BRANCH  22  25
HETATM   25  C   UNL     1      43.279 -17.808   3.892  1.00  0.00     0.075 A 
HETATM   26  S   UNL     1      44.138 -19.264   4.194  1.00  0.00    -0.077 SA
HETATM   27  C   UNL     1      43.710 -19.900   2.684  1.00  0.00     0.052 A 
HETATM   28 BR   UNL     1      44.246 -21.598   2.102  1.00  0.00    -0.043 Br
HETATM   29  C   UNL     1      42.937 -19.051   1.937  1.00  0.00     0.028 A 
HETATM   30  C   UNL     1      42.688 -17.833   2.639  1.00  0.00     0.026 A 
ENDBRANCH  22  25
ENDBRANCH   3  21
TORSDOF 5
ENDMDL
MODEL 6
REMARK VINA RESULT:      -8.0      8.315     11.376
REMARK  5 active torsions:
REMARK  status: ('A' for Active; 'I' for Inactive)
REMARK    1  A    between atoms: C_4  and  C_5 
REMARK    2  A    between atoms: C_5  and  N_6 
REMARK    3  A    between atoms: C_9  and  N_10 
REMARK       I    between atoms: N_10  and  C_11 
REMARK       I    between atoms: C_11  and  N_12 
REMARK    4  A    between atoms: N_12  and  N_13 
REMARK       I    between atoms: N_13  and  C_14 
REMARK    5  A    between atoms: C_14  and  C_15 
ROOT
HETATM    1  N   UNL     1      40.583 -14.394   1.406  1.00  0.00    -0.336 N 
HETATM    2  C   UNL     1      39.485 -14.085   0.652  1.00  0.00     0.335 C 
HETATM    3  N   UNL     1      39.585 -14.532  -0.642  1.00  0.00    -0.249 N 
HETATM    4  O   UNL     1      38.547 -13.417   1.082  1.00  0.00    -0.246 OA
HETATM    5  H   UNL     1      41.287 -14.963   0.949  1.00  0.00     0.164 HD
HETATM    6  H   UNL     1      40.101 -15.393  -0.825  1.00  0.00     0.192 HD
ENDROOT
BRANCH   1   7
HETATM    7  C   UNL     1      40.785 -14.123   2.836  1.00  0.00     0.112 C 
HETATM    8  C   UNL     1      40.734 -15.364   3.762  1.00  0.00     0.260 C 
HETATM    9  N   UNL     1      42.022 -16.146   3.698  1.00  0.00    -0.065 N 
HETATM   10  H   UNL     1      42.127 -16.385   2.689  1.00  0.00     0.280 HD
HETATM   11  C   UNL     1      43.223 -15.325   4.053  1.00  0.00     0.235 C 
HETATM   12  C   UNL     1      43.330 -14.142   3.098  1.00  0.00     0.030 C 
HETATM   13  C   UNL     1      42.057 -13.300   3.081  1.00  0.00     0.028 C 
BRANCH   9  14
HETATM   14  C   UNL     1      41.962 -17.494   4.369  1.00  0.00     0.273 C 
BRANCH  14  15
HETATM   15  C   UNL     1      42.893 -18.535   3.809  1.00  0.00    -0.033 A 
HETATM   16  C   UNL     1      42.814 -18.910   2.458  1.00  0.00     0.009 A 
HETATM   17  C   UNL     1      43.663 -19.891   1.942  1.00  0.00     0.001 A 
HETATM   18  C   UNL     1      44.602 -20.504   2.768  1.00  0.00     0.000 A 
HETATM   19  C   UNL     1      44.698 -20.135   4.107  1.00  0.00     0.001 A 
HETATM   20  C   UNL     1      43.852 -19.154   4.626  1.00  0.00     0.009 A 
ENDBRANCH  14  15
ENDBRANCH   9  14
ENDBRANCH   1   7
BRANCH   3  21
HETATM   21  N   UNL     1      38.455 -14.390  -1.468  1.00  0.00    -0.261 N 
HETATM   22  C   UNL     1      38.592 -13.703  -2.663  1.00  0.00     0.277 C 
HETATM   23  O   UNL     1      39.681 -13.208  -2.964  1.00  0.00    -0.265 OA
HETATM   24  H   UNL     1      37.601 -14.881  -1.220  1.00  0.00     0.190 HD
BRANCH  22  25
HETATM   25  C   UNL     1      37.407 -13.614  -3.500  1.00  0.00     0.075 A 
HETATM   26  S   UNL     1      36.587 -12.131  -3.776  1.00  0.00    -0.077 SA
HETATM   27  C   UNL     1      35.446 -12.879  -4.778  1.00  0.00     0.052 A 
HETATM   28 BR   UNL     1      34.049 -11.947  -5.608  1.00  0.00    -0.043 Br
HETATM   29  C   UNL     1      35.647 -14.227  -4.918  1.00  0.00     0.028 A 
HETATM   30  C   UNL     1      36.787 -14.655  -4.173  1.00  0.00     0.026 A 
ENDBRANCH  22  25
ENDBRANCH   3  21
TORSDOF 5
ENDMDL
MODEL 7
REMARK VINA RESULT:      -7.8      2.444      3.042
REMARK  5 active torsions:
REMARK  status: ('A' for Active; 'I' for Inactive)
REMARK    1  A    between atoms: C_4  and  C_5 
REMARK    2  A    between atoms: C_5  and  N_6 
REMARK    3  A    between atoms: C_9  and  N_10 
REMARK       I    between atoms: N_10  and  C_11 
REMARK       I    between atoms: C_11  and  N_12 
REMARK    4  A    between atoms: N_12  and  N_13 
REMARK       I    between atoms: N_13  and  C_14 
REMARK    5  A    between atoms: C_14  and  C_15 
ROOT
HETATM    1  N   UNL     1      41.499 -12.134   6.967  1.00  0.00    -0.336 N 
HETATM    2  C   UNL     1      41.829 -12.961   5.929  1.00  0.00     0.335 C 
HETATM    3  N   UNL     1      42.947 -13.715   6.184  1.00  0.00    -0.249 N 
HETATM    4  O   UNL     1      41.221 -12.965   4.861  1.00  0.00    -0.246 OA
HETATM    5  H   UNL     1      42.062 -12.229   7.805  1.00  0.00     0.164 HD
HETATM    6  H   UNL     1      43.133 -14.006   7.145  1.00  0.00     0.192 HD
ENDROOT
BRANCH   1   7
HETATM    7  C   UNL     1      40.337 -11.240   7.057  1.00  0.00     0.112 C 
HETATM    8  C   UNL     1      39.718 -11.092   8.469  1.00  0.00     0.260 C 
HETATM    9  N   UNL     1      40.537 -10.162   9.329  1.00  0.00    -0.065 N 
HETATM   10  H   UNL     1      41.488 -10.588   9.335  1.00  0.00     0.280 HD
HETATM   11  C   UNL     1      40.701  -8.801   8.727  1.00  0.00     0.235 C 
HETATM   12  C   UNL     1      41.381  -8.925   7.369  1.00  0.00     0.030 C 
HETATM   13  C   UNL     1      40.630  -9.868   6.434  1.00  0.00     0.028 C 
BRANCH   9  14
HETATM   14  C   UNL     1      40.149 -10.162  10.785  1.00  0.00     0.273 C 
BRANCH  14  15
HETATM   15  C   UNL     1      41.282  -9.964  11.756  1.00  0.00    -0.033 A 
HETATM   16  C   UNL     1      41.029  -9.537  13.069  1.00  0.00     0.009 A 
HETATM   17  C   UNL     1      42.081  -9.334  13.964  1.00  0.00     0.001 A 
HETATM   18  C   UNL     1      43.394  -9.560  13.560  1.00  0.00     0.000 A 
HETATM   19  C   UNL     1      43.658  -9.993  12.264  1.00  0.00     0.001 A 
HETATM   20  C   UNL     1      42.609 -10.198  11.366  1.00  0.00     0.009 A 
ENDBRANCH  14  15
ENDBRANCH   9  14
ENDBRANCH   1   7
BRANCH   3  21
HETATM   21  N   UNL     1      43.296 -14.699   5.242  1.00  0.00    -0.261 N 
HETATM   22  C   UNL     1      43.004 -16.023   5.529  1.00  0.00     0.277 C 
HETATM   23  O   UNL     1      42.477 -16.314   6.605  1.00  0.00    -0.265 OA
HETATM   24  H   UNL     1      43.653 -14.407   4.337  1.00  0.00     0.190 HD
BRANCH  22  25
HETATM   25  C   UNL     1      43.349 -16.999   4.508  1.00  0.00     0.075 A 
HETATM   26  S   UNL     1      43.719 -18.632   4.888  1.00  0.00    -0.077 SA
HETATM   27  C   UNL     1      43.963 -19.019   3.259  1.00  0.00     0.052 A 
HETATM   28 BR   UNL     1      44.433 -20.736   2.676  1.00  0.00    -0.043 Br
HETATM   29  C   UNL     1      43.783 -17.955   2.415  1.00  0.00     0.028 A 
HETATM   30  C   UNL     1      43.429 -16.779   3.142  1.00  0.00     0.026 A 
ENDBRANCH  22  25
ENDBRANCH   3  21
TORSDOF 5
ENDMDL
MODEL 8
REMARK VINA RESULT:      -7.7      7.412     10.428
REMARK  5 active torsions:
REMARK  status: ('A' for Active; 'I' for Inactive)
REMARK    1  A    between atoms: C_4  and  C_5 
REMARK    2  A    between atoms: C_5  and  N_6 
REMARK    3  A    between atoms: C_9  and  N_10 
REMARK       I    between atoms: N_10  and  C_11 
REMARK       I    between atoms: C_11  and  N_12 
REMARK    4  A    between atoms: N_12  and  N_13 
REMARK       I    between atoms: N_13  and  C_14 
REMARK    5  A    between atoms: C_14  and  C_15 
ROOT
HETATM    1  N   UNL     1      42.211 -16.460   0.444  1.00  0.00    -0.336 N 
HETATM    2  C   UNL     1      41.505 -15.411  -0.074  1.00  0.00     0.335 C 
HETATM    3  N   UNL     1      40.573 -15.803  -1.002  1.00  0.00    -0.249 N 
HETATM    4  O   UNL     1      41.739 -14.240   0.219  1.00  0.00    -0.246 OA
HETATM    5  H   UNL     1      41.919 -17.383   0.142  1.00  0.00     0.164 HD
HETATM    6  H   UNL     1      40.123 -16.713  -0.891  1.00  0.00     0.192 HD
ENDROOT
BRANCH   1   7
HETATM    7  C   UNL     1      43.237 -16.409   1.496  1.00  0.00     0.112 C 
HETATM    8  C   UNL     1      42.700 -16.402   2.949  1.00  0.00     0.260 C 
HETATM    9  N   UNL     1      42.282 -17.784   3.383  1.00  0.00    -0.065 N 
HETATM   10  H   UNL     1      41.569 -18.070   2.678  1.00  0.00     0.280 HD
HETATM   11  C   UNL     1      43.387 -18.790   3.279  1.00  0.00     0.235 C 
HETATM   12  C   UNL     1      43.871 -18.865   1.836  1.00  0.00     0.030 C 
HETATM   13  C   UNL     1      44.299 -17.500   1.302  1.00  0.00     0.028 C 
BRANCH   9  14
HETATM   14  C   UNL     1      41.520 -17.822   4.682  1.00  0.00     0.273 C 
BRANCH  14  15
HETATM   15  C   UNL     1      42.365 -17.891   5.925  1.00  0.00    -0.033 A 
HETATM   16  C   UNL     1      42.515 -16.764   6.750  1.00  0.00     0.009 A 
HETATM   17  C   UNL     1      43.316 -16.822   7.892  1.00  0.00     0.001 A 
HETATM   18  C   UNL     1      43.970 -18.005   8.226  1.00  0.00     0.000 A 
HETATM   19  C   UNL     1      43.822 -19.132   7.423  1.00  0.00     0.001 A 
HETATM   20  C   UNL     1      43.022 -19.079   6.281  1.00  0.00     0.009 A 
ENDBRANCH  14  15
ENDBRANCH   9  14
ENDBRANCH   1   7
BRANCH   3  21
HETATM   21  N   UNL     1      39.696 -14.821  -1.498  1.00  0.00    -0.261 N 
HETATM   22  C   UNL     1      39.609 -14.646  -2.870  1.00  0.00     0.277 C 
HETATM   23  O   UNL     1      40.315 -15.324  -3.620  1.00  0.00    -0.265 OA
HETATM   24  H   UNL     1      39.076 -14.344  -0.850  1.00  0.00     0.190 HD
BRANCH  22  25
HETATM   25  C   UNL     1      38.662 -13.646  -3.336  1.00  0.00     0.075 A 
HETATM   26  S   UNL     1      39.080 -11.988  -3.490  1.00  0.00    -0.077 SA
HETATM   27  C   UNL     1      37.535 -11.589  -4.056  1.00  0.00     0.052 A 
HETATM   28 BR   UNL     1      37.039  -9.845  -4.527  1.00  0.00    -0.043 Br
HETATM   29  C   UNL     1      36.691 -12.665  -4.134  1.00  0.00     0.028 A 
HETATM   30  C   UNL     1      37.346 -13.862  -3.712  1.00  0.00     0.026 A 
ENDBRANCH  22  25
ENDBRANCH   3  21
TORSDOF 5
ENDMDL
MODEL 9
REMARK VINA RESULT:      -7.6      8.076     10.902
REMARK  5 active torsions:
REMARK  status: ('A' for Active; 'I' for Inactive)
REMARK    1  A    between atoms: C_4  and  C_5 
REMARK    2  A    between atoms: C_5  and  N_6 
REMARK    3  A    between atoms: C_9  and  N_10 
REMARK       I    between atoms: N_10  and  C_11 
REMARK       I    between atoms: C_11  and  N_12 
REMARK    4  A    between atoms: N_12  and  N_13 
REMARK       I    between atoms: N_13  and  C_14 
REMARK    5  A    between atoms: C_14  and  C_15 
ROOT
HETATM    1  N   UNL     1      39.953 -15.098  -0.352  1.00  0.00    -0.336 N 
HETATM    2  C   UNL     1      40.475 -15.497   0.847  1.00  0.00     0.335 C 
HETATM    3  N   UNL     1      40.712 -16.848   0.902  1.00  0.00    -0.249 N 
HETATM    4  O   UNL     1      40.645 -14.726   1.789  1.00  0.00    -0.246 OA
HETATM    5  H   UNL     1      39.873 -15.819  -1.062  1.00  0.00     0.164 HD
HETATM    6  H   UNL     1      40.977 -17.335   0.045  1.00  0.00     0.192 HD
ENDROOT
BRANCH   1   7
HETATM    7  C   UNL     1      39.638 -13.726  -0.773  1.00  0.00     0.112 C 
HETATM    8  C   UNL     1      40.858 -12.849  -1.149  1.00  0.00     0.260 C 
HETATM    9  N   UNL     1      41.369 -13.186  -2.528  1.00  0.00    -0.065 N 
HETATM   10  H   UNL     1      41.589 -14.204  -2.478  1.00  0.00     0.280 HD
HETATM   11  C   UNL     1      40.323 -13.043  -3.591  1.00  0.00     0.235 C 
HETATM   12  C   UNL     1      39.149 -13.961  -3.274  1.00  0.00     0.030 C 
HETATM   13  C   UNL     1      38.577 -13.705  -1.883  1.00  0.00     0.028 C 
BRANCH   9  14
HETATM   14  C   UNL     1      42.697 -12.560  -2.866  1.00  0.00     0.273 C 
BRANCH  14  15
HETATM   15  C   UNL     1      42.824 -11.097  -2.539  1.00  0.00    -0.033 A 
HETATM   16  C   UNL     1      42.338 -10.123  -3.426  1.00  0.00     0.009 A 
HETATM   17  C   UNL     1      42.474  -8.765  -3.133  1.00  0.00     0.001 A 
HETATM   18  C   UNL     1      43.091  -8.365  -1.950  1.00  0.00     0.000 A 
HETATM   19  C   UNL     1      43.568  -9.320  -1.057  1.00  0.00     0.001 A 
HETATM   20  C   UNL     1      43.434 -10.679  -1.346  1.00  0.00     0.009 A 
ENDBRANCH  14  15
ENDBRANCH   9  14
ENDBRANCH   1   7
BRANCH   3  21
HETATM   21  N   UNL     1      41.376 -17.345   2.037  1.00  0.00    -0.261 N 
HETATM   22  C   UNL     1      42.698 -17.741   1.909  1.00  0.00     0.277 C 
HETATM   23  O   UNL     1      43.252 -17.679   0.808  1.00  0.00    -0.265 OA
HETATM   24  H   UNL     1      40.908 -17.303   2.938  1.00  0.00     0.190 HD
BRANCH  22  25
HETATM   25  C   UNL     1      43.354 -18.213   3.117  1.00  0.00     0.075 A 
HETATM   26  S   UNL     1      43.254 -17.365   4.606  1.00  0.00    -0.077 SA
HETATM   27  C   UNL     1      44.203 -18.521   5.398  1.00  0.00     0.052 A 
HETATM   28 BR   UNL     1      44.647 -18.408   7.214  1.00  0.00    -0.043 Br
HETATM   29  C   UNL     1      44.611 -19.541   4.579  1.00  0.00     0.028 A 
HETATM   30  C   UNL     1      44.119 -19.361   3.252  1.00  0.00     0.026 A 
ENDBRANCH  22  25
ENDBRANCH   3  21
TORSDOF 5
ENDMDL
MODEL 10
REMARK VINA RESULT:      -7.5      6.083      9.712
REMARK  5 active torsions:
REMARK  status: ('A' for Active; 'I' for Inactive)
REMARK    1  A    between atoms: C_4  and  C_5 
REMARK    2  A    between atoms: C_5  and  N_6 
REMARK    3  A    between atoms: C_9  and  N_10 
REMARK       I    between atoms: N_10  and  C_11 
REMARK       I    between atoms: C_11  and  N_12 
REMARK    4  A    between atoms: N_12  and  N_13 
REMARK       I    between atoms: N_13  and  C_14 
REMARK    5  A    between atoms: C_14  and  C_15 
ROOT
HETATM    1  N   UNL     1      42.695 -13.991   4.103  1.00  0.00    -0.336 N 
HETATM    2  C   UNL     1      41.805 -13.715   3.103  1.00  0.00     0.335 C 
HETATM    3  N   UNL     1      42.405 -13.583   1.876  1.00  0.00    -0.249 N 
HETATM    4  O   UNL     1      40.606 -13.538   3.308  1.00  0.00    -0.246 OA
HETATM    5  H   UNL     1      43.657 -14.133   3.812  1.00  0.00     0.164 HD
HETATM    6  H   UNL     1      43.238 -14.139   1.675  1.00  0.00     0.192 HD
ENDROOT
BRANCH   1   7
HETATM    7  C   UNL     1      42.393 -14.252   5.517  1.00  0.00     0.112 C 
HETATM    8  C   UNL     1      42.061 -15.724   5.866  1.00  0.00     0.260 C 
HETATM    9  N   UNL     1      43.313 -16.561   5.950  1.00  0.00    -0.065 N 
HETATM   10  H   UNL     1      43.761 -16.446   5.015  1.00  0.00     0.280 HD
HETATM   11  C   UNL     1      44.302 -16.037   6.945  1.00  0.00     0.235 C 
HETATM   12  C   UNL     1      44.697 -14.615   6.568  1.00  0.00     0.030 C 
HETATM   13  C   UNL     1      43.486 -13.695   6.440  1.00  0.00     0.028 C 
BRANCH   9  14
HETATM   14  C   UNL     1      43.063 -18.044   6.034  1.00  0.00     0.273 C 
BRANCH  14  15
HETATM   15  C   UNL     1      43.535 -18.847   4.853  1.00  0.00    -0.033 A 
HETATM   16  C   UNL     1      44.455 -19.894   5.025  1.00  0.00     0.009 A 
HETATM   17  C   UNL     1      44.910 -20.627   3.927  1.00  0.00     0.001 A 
HETATM   18  C   UNL     1      44.448 -20.326   2.648  1.00  0.00     0.000 A 
HETATM   19  C   UNL     1      43.528 -19.298   2.465  1.00  0.00     0.001 A 
HETATM   20  C   UNL     1      43.071 -18.563   3.560  1.00  0.00     0.009 A 
ENDBRANCH  14  15
ENDBRANCH   9  14
ENDBRANCH   1   7
BRANCH   3  21
HETATM   21  N   UNL     1      41.569 -13.436   0.755  1.00  0.00    -0.261 N 
HETATM   22  C   UNL     1      41.856 -12.432  -0.156  1.00  0.00     0.277 C 
HETATM   23  O   UNL     1      42.810 -11.677   0.045  1.00  0.00    -0.265 OA
HETATM   24  H   UNL     1      40.845 -14.129   0.587  1.00  0.00     0.190 HD
BRANCH  22  25
HETATM   25  C   UNL     1      40.986 -12.342  -1.317  1.00  0.00     0.075 A 
HETATM   26  S   UNL     1      39.306 -12.687  -1.234  1.00  0.00    -0.077 SA
HETATM   27  C   UNL     1      39.093 -12.347  -2.879  1.00  0.00     0.052 A 
HETATM   28 BR   UNL     1      37.433 -12.460  -3.739  1.00  0.00    -0.043 Br
HETATM   29  C   UNL     1      40.252 -11.982  -3.512  1.00  0.00     0.028 A 
HETATM   30  C   UNL     1      41.354 -11.982  -2.604  1.00  0.00     0.026 A 
ENDBRANCH  22  25
ENDBRANCH   3  21
TORSDOF 5
ENDMDL
