MODEL 1
REMARK VINA RESULT:      -8.7      0.000      0.000
REMARK  10 active torsions:
REMARK  status: ('A' for Active; 'I' for Inactive)
REMARK    1  A    between atoms: C_2  and  C_3 
REMARK    2  A    between atoms: C_3  and  C_4 
REMARK    3  A    between atoms: C_4  and  O_5 
REMARK    4  A    between atoms: O_5  and  C_6 
REMARK    5  A    between atoms: C_9  and  C_10 
REMARK       I    between atoms: C_10  and  N_11 
REMARK    6  A    between atoms: N_11  and  C_12 
REMARK    7  A    between atoms: C_12  and  N_13 
REMARK    8  A    between atoms: N_13  and  C_14 
REMARK    9  A    between atoms: C_16  and  O_17 
REMARK   10  A    between atoms: C_18  and  C_19 
ROOT
HETATM    1  N   UNL     1      41.744 -11.292   4.619  1.00  0.00    -0.333 N 
HETATM    2  H   UNL     1      42.307 -10.649   4.074  1.00  0.00     0.168 HD
ENDROOT
BRANCH   1   3
HETATM    3  C   UNL     1      40.604 -10.733   5.083  1.00  0.00     0.179 C 
HETATM    4  S   UNL     1      39.321 -10.519   4.027  1.00  0.00    -0.040 SA
BRANCH   3   5
HETATM    5  N   UNL     1      40.455 -10.296   6.361  1.00  0.00    -0.299 N 
HETATM    6  C   UNL     1      39.873 -10.976   7.429  1.00  0.00     0.257 C 
HETATM    7  O   UNL     1      39.118 -11.936   7.342  1.00  0.00    -0.267 OA
HETATM    8  H   UNL     1      41.154  -9.609   6.597  1.00  0.00     0.171 HD
BRANCH   6   9
HETATM    9  C   UNL     1      40.187 -10.430   8.785  1.00  0.00     0.032 A 
HETATM   10  C   UNL     1      40.865  -9.205   8.861  1.00  0.00     0.020 A 
HETATM   11  C   UNL     1      41.211  -8.660  10.102  1.00  0.00     0.038 A 
HETATM   12  C   UNL     1      40.859  -9.329  11.273  1.00  0.00     0.068 A 
HETATM   13  C   UNL     1      40.180 -10.543  11.209  1.00  0.00     0.038 A 
HETATM   14  C   UNL     1      39.826 -11.087   9.970  1.00  0.00     0.020 A 
BRANCH  12  15
HETATM   15  O   UNL     1      41.234  -8.895  12.513  1.00  0.00    -0.351 OA
BRANCH  15  16
HETATM   16  C   UNL     1      41.935  -9.888  13.271  1.00  0.00     0.175 C 
BRANCH  16  17
HETATM   17  C   UNL     1      43.436  -9.633  13.132  1.00  0.00     0.026 C 
BRANCH  17  18
HETATM   18  C   UNL     1      44.037 -10.393  11.946  1.00  0.00    -0.002 C 
HETATM   19  C   UNL     1      43.550 -11.833  11.898  1.00  0.00     0.005 C 
ENDBRANCH  17  18
ENDBRANCH  16  17
ENDBRANCH  15  16
ENDBRANCH  12  15
ENDBRANCH   6   9
ENDBRANCH   3   5
ENDBRANCH   1   3
BRANCH   1  20
HETATM   20  C   UNL     1      42.058 -12.656   4.413  1.00  0.00     0.036 A 
HETATM   21  C   UNL     1      41.844 -13.525   5.490  1.00  0.00     0.067 A 
HETATM   22  C   UNL     1      42.233 -14.870   5.416  1.00  0.00     0.082 A 
HETATM   23  C   UNL     1      42.845 -15.384   4.265  1.00  0.00     0.050 A 
HETATM   24  C   UNL     1      43.044 -14.501   3.189  1.00  0.00     0.021 A 
HETATM   25  C   UNL     1      42.661 -13.154   3.261  1.00  0.00     0.030 A 
BRANCH  22  26
HETATM   26  O   UNL     1      42.038 -15.664   6.516  1.00  0.00    -0.360 OA
HETATM   27  H   UNL     1      41.964 -15.113   7.311  1.00  0.00     0.217 HD
ENDBRANCH  22  26
BRANCH  23  28
HETATM   28  C   UNL     1      43.330 -16.760   4.126  1.00  0.00     0.183 A 
HETATM   29  O   UNL     1      43.155 -17.382   2.915  1.00  0.00    -0.289 OA
HETATM   30  C   UNL     1      43.669 -18.630   3.100  1.00  0.00     0.107 A 
HETATM   31  C   UNL     1      44.145 -18.703   4.397  1.00  0.00     0.093 A 
HETATM   32  C   UNL     1      43.715 -19.668   2.177  1.00  0.00     0.046 A 
HETATM   33  N   UNL     1      43.941 -17.506   5.036  1.00  0.00    -0.221 NA
HETATM   34  C   UNL     1      44.715 -19.901   4.841  1.00  0.00     0.035 A 
HETATM   35  C   UNL     1      44.779 -20.978   3.942  1.00  0.00     0.009 A 
HETATM   36  C   UNL     1      44.299 -20.867   2.623  1.00  0.00    -0.059 A 
HETATM   37  C   UNL     1      44.358 -22.058   1.707  1.00  0.00     0.048 C 
ENDBRANCH  23  28
ENDBRANCH   1  20
TORSDOF 10
ENDMDL
MODEL 2
REMARK VINA RESULT:      -8.7      1.470      1.938
REMARK  10 active torsions:
REMARK  status: ('A' for Active; 'I' for Inactive)
REMARK    1  A    between atoms: C_2  and  C_3 
REMARK    2  A    between atoms: C_3  and  C_4 
REMARK    3  A    between atoms: C_4  and  O_5 
REMARK    4  A    between atoms: O_5  and  C_6 
REMARK    5  A    between atoms: C_9  and  C_10 
REMARK       I    between atoms: C_10  and  N_11 
REMARK    6  A    between atoms: N_11  and  C_12 
REMARK    7  A    between atoms: C_12  and  N_13 
REMARK    8  A    between atoms: N_13  and  C_14 
REMARK    9  A    between atoms: C_16  and  O_17 
REMARK   10  A    between atoms: C_18  and  C_19 
ROOT
HETATM    1  N   UNL     1      40.395 -11.281   4.367  1.00  0.00    -0.333 N 
HETATM    2  H   UNL     1      39.382 -11.328   4.359  1.00  0.00     0.168 HD
ENDROOT
BRANCH   1   3
HETATM    3  C   UNL     1      40.868 -10.176   4.986  1.00  0.00     0.179 C 
HETATM    4  S   UNL     1      41.229  -8.826   4.064  1.00  0.00    -0.040 SA
BRANCH   3   5
HETATM    5  N   UNL     1      41.106 -10.116   6.323  1.00  0.00    -0.299 N 
HETATM    6  C   UNL     1      40.261 -10.518   7.355  1.00  0.00     0.257 C 
HETATM    7  O   UNL     1      39.052 -10.694   7.265  1.00  0.00    -0.267 OA
HETATM    8  H   UNL     1      42.095 -10.140   6.521  1.00  0.00     0.171 HD
BRANCH   6   9
HETATM    9  C   UNL     1      40.916 -10.699   8.687  1.00  0.00     0.032 A 
HETATM   10  C   UNL     1      40.099 -10.992   9.788  1.00  0.00     0.020 A 
HETATM   11  C   UNL     1      40.653 -11.143  11.063  1.00  0.00     0.038 A 
HETATM   12  C   UNL     1      42.031 -11.023  11.238  1.00  0.00     0.068 A 
HETATM   13  C   UNL     1      42.852 -10.738  10.150  1.00  0.00     0.038 A 
HETATM   14  C   UNL     1      42.302 -10.594   8.872  1.00  0.00     0.020 A 
BRANCH  12  15
HETATM   15  O   UNL     1      42.628 -11.079  12.466  1.00  0.00    -0.351 OA
BRANCH  15  16
HETATM   16  C   UNL     1      43.626 -10.070  12.655  1.00  0.00     0.175 C 
BRANCH  16  17
HETATM   17  C   UNL     1      43.235  -9.223  13.866  1.00  0.00     0.026 C 
BRANCH  17  18
HETATM   18  C   UNL     1      42.287  -9.973  14.806  1.00  0.00    -0.002 C 
HETATM   19  C   UNL     1      42.041  -9.196  16.090  1.00  0.00     0.005 C 
ENDBRANCH  17  18
ENDBRANCH  16  17
ENDBRANCH  15  16
ENDBRANCH  12  15
ENDBRANCH   6   9
ENDBRANCH   3   5
ENDBRANCH   1   3
BRANCH   1  20
HETATM   20  C   UNL     1      41.035 -12.519   4.123  1.00  0.00     0.036 A 
HETATM   21  C   UNL     1      40.218 -13.592   3.749  1.00  0.00     0.067 A 
HETATM   22  C   UNL     1      40.749 -14.881   3.598  1.00  0.00     0.082 A 
HETATM   23  C   UNL     1      42.110 -15.133   3.816  1.00  0.00     0.050 A 
HETATM   24  C   UNL     1      42.919 -14.043   4.182  1.00  0.00     0.021 A 
HETATM   25  C   UNL     1      42.391 -12.753   4.339  1.00  0.00     0.030 A 
BRANCH  22  26
HETATM   26  O   UNL     1      39.895 -15.902   3.271  1.00  0.00    -0.360 OA
HETATM   27  H   UNL     1      40.347 -16.755   3.372  1.00  0.00     0.217 HD
ENDBRANCH  22  26
BRANCH  23  28
HETATM   28  C   UNL     1      42.733 -16.457   3.733  1.00  0.00     0.183 A 
HETATM   29  O   UNL     1      42.486 -17.212   2.613  1.00  0.00    -0.289 OA
HETATM   30  C   UNL     1      43.162 -18.374   2.835  1.00  0.00     0.107 A 
HETATM   31  C   UNL     1      43.798 -18.265   4.059  1.00  0.00     0.093 A 
HETATM   32  C   UNL     1      43.217 -19.488   2.006  1.00  0.00     0.046 A 
HETATM   33  N   UNL     1      43.534 -17.039   4.615  1.00  0.00    -0.221 NA
HETATM   34  C   UNL     1      44.555 -19.346   4.524  1.00  0.00     0.035 A 
HETATM   35  C   UNL     1      44.635 -20.495   3.720  1.00  0.00     0.009 A 
HETATM   36  C   UNL     1      43.988 -20.568   2.473  1.00  0.00    -0.059 A 
HETATM   37  C   UNL     1      44.075 -21.831   1.662  1.00  0.00     0.048 C 
ENDBRANCH  23  28
ENDBRANCH   1  20
TORSDOF 10
ENDMDL
MODEL 3
REMARK VINA RESULT:      -8.2      1.442      2.235
REMARK  10 active torsions:
REMARK  status: ('A' for Active; 'I' for Inactive)
REMARK    1  A    between atoms: C_2  and  C_3 
REMARK    2  A    between atoms: C_3  and  C_4 
REMARK    3  A    between atoms: C_4  and  O_5 
REMARK    4  A    between atoms: O_5  and  C_6 
REMARK    5  A    between atoms: C_9  and  C_10 
REMARK       I    between atoms: C_10  and  N_11 
REMARK    6  A    between atoms: N_11  and  C_12 
REMARK    7  A    between atoms: C_12  and  N_13 
REMARK    8  A    between atoms: N_13  and  C_14 
REMARK    9  A    between atoms: C_16  and  O_17 
REMARK   10  A    between atoms: C_18  and  C_19 
ROOT
HETATM    1  N   UNL     1      41.641 -11.814   3.088  1.00  0.00    -0.333 N 
HETATM    2  H   UNL     1      41.986 -11.244   2.325  1.00  0.00     0.168 HD
ENDROOT
BRANCH   1   3
HETATM    3  C   UNL     1      40.512 -11.323   3.647  1.00  0.00     0.179 C 
HETATM    4  S   UNL     1      39.158 -11.115   2.684  1.00  0.00    -0.040 SA
BRANCH   3   5
HETATM    5  N   UNL     1      40.430 -10.949   4.951  1.00  0.00    -0.299 N 
HETATM    6  C   UNL     1      39.872 -11.667   6.007  1.00  0.00     0.257 C 
HETATM    7  O   UNL     1      39.085 -12.600   5.903  1.00  0.00    -0.267 OA
HETATM    8  H   UNL     1      41.158 -10.295   5.192  1.00  0.00     0.171 HD
BRANCH   6   9
HETATM    9  C   UNL     1      40.257 -11.200   7.374  1.00  0.00     0.032 A 
HETATM   10  C   UNL     1      41.488 -10.547   7.525  1.00  0.00     0.020 A 
HETATM   11  C   UNL     1      41.914 -10.115   8.785  1.00  0.00     0.038 A 
HETATM   12  C   UNL     1      41.098 -10.316   9.897  1.00  0.00     0.068 A 
HETATM   13  C   UNL     1      39.871 -10.959   9.758  1.00  0.00     0.038 A 
HETATM   14  C   UNL     1      39.438 -11.385   8.497  1.00  0.00     0.020 A 
BRANCH  12  15
HETATM   15  O   UNL     1      41.486  -9.992  11.167  1.00  0.00    -0.351 OA
BRANCH  15  16
HETATM   16  C   UNL     1      42.805  -9.440  11.231  1.00  0.00     0.175 C 
BRANCH  16  17
HETATM   17  C   UNL     1      43.658 -10.326  12.139  1.00  0.00     0.026 C 
BRANCH  17  18
HETATM   18  C   UNL     1      44.039 -11.644  11.457  1.00  0.00    -0.002 C 
HETATM   19  C   UNL     1      45.268 -11.484  10.576  1.00  0.00     0.005 C 
ENDBRANCH  17  18
ENDBRANCH  16  17
ENDBRANCH  15  16
ENDBRANCH  12  15
ENDBRANCH   6   9
ENDBRANCH   3   5
ENDBRANCH   1   3
BRANCH   1  20
HETATM   20  C   UNL     1      42.150 -13.134   3.101  1.00  0.00     0.036 A 
HETATM   21  C   UNL     1      42.146 -13.828   1.886  1.00  0.00     0.067 A 
HETATM   22  C   UNL     1      42.524 -15.177   1.827  1.00  0.00     0.082 A 
HETATM   23  C   UNL     1      42.917 -15.870   2.979  1.00  0.00     0.050 A 
HETATM   24  C   UNL     1      42.925 -15.156   4.191  1.00  0.00     0.021 A 
HETATM   25  C   UNL     1      42.543 -13.808   4.255  1.00  0.00     0.030 A 
BRANCH  22  26
HETATM   26  O   UNL     1      42.459 -15.818   0.616  1.00  0.00    -0.360 OA
HETATM   27  H   UNL     1      41.932 -15.292  -0.007  1.00  0.00     0.217 HD
ENDBRANCH  22  26
BRANCH  23  28
HETATM   28  C   UNL     1      43.274 -17.291   3.013  1.00  0.00     0.183 A 
HETATM   29  O   UNL     1      43.737 -17.807   4.199  1.00  0.00    -0.289 OA
HETATM   30  C   UNL     1      44.007 -19.112   3.915  1.00  0.00     0.107 A 
HETATM   31  C   UNL     1      43.680 -19.332   2.588  1.00  0.00     0.093 A 
HETATM   32  C   UNL     1      44.523 -20.072   4.776  1.00  0.00     0.046 A 
HETATM   33  N   UNL     1      43.200 -18.174   2.028  1.00  0.00    -0.221 NA
HETATM   34  C   UNL     1      43.880 -20.606   2.046  1.00  0.00     0.035 A 
HETATM   35  C   UNL     1      44.404 -21.607   2.881  1.00  0.00     0.009 A 
HETATM   36  C   UNL     1      44.712 -21.354   4.231  1.00  0.00    -0.059 A 
HETATM   37  C   UNL     1      45.303 -22.448   5.076  1.00  0.00     0.048 C 
ENDBRANCH  23  28
ENDBRANCH   1  20
TORSDOF 10
ENDMDL
MODEL 4
REMARK VINA RESULT:      -8.1      2.365      9.678
REMARK  10 active torsions:
REMARK  status: ('A' for Active; 'I' for Inactive)
REMARK    1  A    between atoms: C_2  and  C_3 
REMARK    2  A    between atoms: C_3  and  C_4 
REMARK    3  A    between atoms: C_4  and  O_5 
REMARK    4  A    between atoms: O_5  and  C_6 
REMARK    5  A    between atoms: C_9  and  C_10 
REMARK       I    between atoms: C_10  and  N_11 
REMARK    6  A    between atoms: N_11  and  C_12 
REMARK    7  A    between atoms: C_12  and  N_13 
REMARK    8  A    between atoms: N_13  and  C_14 
REMARK    9  A    between atoms: C_16  and  O_17 
REMARK   10  A    between atoms: C_18  and  C_19 
ROOT
HETATM    1  N   UNL     1      38.292 -11.305   3.360  1.00  0.00    -0.333 N 
HETATM    2  H   UNL     1      37.764 -10.451   3.223  1.00  0.00     0.168 HD
ENDROOT
BRANCH   1   3
HETATM    3  C   UNL     1      38.300 -12.103   2.269  1.00  0.00     0.179 C 
HETATM    4  S   UNL     1      37.308 -11.715   0.977  1.00  0.00    -0.040 SA
BRANCH   3   5
HETATM    5  N   UNL     1      39.045 -13.236   2.181  1.00  0.00    -0.299 N 
HETATM    6  C   UNL     1      40.433 -13.336   2.104  1.00  0.00     0.257 C 
HETATM    7  O   UNL     1      41.200 -12.436   1.785  1.00  0.00    -0.267 OA
HETATM    8  H   UNL     1      38.563 -14.025   2.582  1.00  0.00     0.171 HD
BRANCH   6   9
HETATM    9  C   UNL     1      40.997 -14.688   2.403  1.00  0.00     0.032 A 
HETATM   10  C   UNL     1      40.235 -15.811   2.055  1.00  0.00     0.020 A 
HETATM   11  C   UNL     1      40.698 -17.100   2.337  1.00  0.00     0.038 A 
HETATM   12  C   UNL     1      41.939 -17.270   2.950  1.00  0.00     0.068 A 
HETATM   13  C   UNL     1      42.707 -16.161   3.295  1.00  0.00     0.038 A 
HETATM   14  C   UNL     1      42.249 -14.871   3.007  1.00  0.00     0.020 A 
BRANCH  12  15
HETATM   15  O   UNL     1      42.416 -18.494   3.326  1.00  0.00    -0.351 OA
BRANCH  15  16
HETATM   16  C   UNL     1      43.835 -18.513   3.516  1.00  0.00     0.175 C 
BRANCH  16  17
HETATM   17  C   UNL     1      44.442 -19.518   2.538  1.00  0.00     0.026 C 
BRANCH  17  18
HETATM   18  C   UNL     1      43.394 -20.495   1.998  1.00  0.00    -0.002 C 
HETATM   19  C   UNL     1      44.011 -21.839   1.643  1.00  0.00     0.005 C 
ENDBRANCH  17  18
ENDBRANCH  16  17
ENDBRANCH  15  16
ENDBRANCH  12  15
ENDBRANCH   6   9
ENDBRANCH   3   5
ENDBRANCH   1   3
BRANCH   1  20
HETATM   20  C   UNL     1      39.197 -11.259   4.447  1.00  0.00     0.036 A 
HETATM   21  C   UNL     1      38.903 -12.067   5.552  1.00  0.00     0.067 A 
HETATM   22  C   UNL     1      39.678 -12.001   6.718  1.00  0.00     0.082 A 
HETATM   23  C   UNL     1      40.770 -11.128   6.812  1.00  0.00     0.050 A 
HETATM   24  C   UNL     1      41.058 -10.330   5.691  1.00  0.00     0.021 A 
HETATM   25  C   UNL     1      40.282 -10.390   4.525  1.00  0.00     0.030 A 
BRANCH  22  26
HETATM   26  O   UNL     1      39.318 -12.784   7.783  1.00  0.00    -0.360 OA
HETATM   27  H   UNL     1      39.023 -12.224   8.519  1.00  0.00     0.217 HD
ENDBRANCH  22  26
BRANCH  23  28
HETATM   28  C   UNL     1      41.597 -10.959   8.011  1.00  0.00     0.183 A 
HETATM   29  O   UNL     1      40.963 -10.638   9.186  1.00  0.00    -0.289 OA
HETATM   30  C   UNL     1      41.973 -10.522  10.092  1.00  0.00     0.107 A 
HETATM   31  C   UNL     1      43.162 -10.793   9.437  1.00  0.00     0.093 A 
HETATM   32  C   UNL     1      41.865 -10.186  11.436  1.00  0.00     0.046 A 
HETATM   33  N   UNL     1      42.911 -11.085   8.120  1.00  0.00    -0.221 NA
HETATM   34  C   UNL     1      44.360 -10.725  10.156  1.00  0.00     0.035 A 
HETATM   35  C   UNL     1      44.298 -10.385  11.518  1.00  0.00     0.009 A 
HETATM   36  C   UNL     1      43.071 -10.129  12.158  1.00  0.00    -0.059 A 
HETATM   37  C   UNL     1      43.057  -9.736  13.609  1.00  0.00     0.048 C 
ENDBRANCH  23  28
ENDBRANCH   1  20
TORSDOF 10
ENDMDL
MODEL 5
REMARK VINA RESULT:      -8.1      2.003     10.153
REMARK  10 active torsions:
REMARK  status: ('A' for Active; 'I' for Inactive)
REMARK    1  A    between atoms: C_2  and  C_3 
REMARK    2  A    between atoms: C_3  and  C_4 
REMARK    3  A    between atoms: C_4  and  O_5 
REMARK    4  A    between atoms: O_5  and  C_6 
REMARK    5  A    between atoms: C_9  and  C_10 
REMARK       I    between atoms: C_10  and  N_11 
REMARK    6  A    between atoms: N_11  and  C_12 
REMARK    7  A    between atoms: C_12  and  N_13 
REMARK    8  A    between atoms: N_13  and  C_14 
REMARK    9  A    between atoms: C_16  and  O_17 
REMARK   10  A    between atoms: C_18  and  C_19 
ROOT
HETATM    1  N   UNL     1      40.279 -12.206   3.299  1.00  0.00    -0.333 N 
HETATM    2  H   UNL     1      39.524 -11.681   2.872  1.00  0.00     0.168 HD
ENDROOT
BRANCH   1   3
HETATM    3  C   UNL     1      41.103 -12.780   2.395  1.00  0.00     0.179 C 
HETATM    4  S   UNL     1      41.310 -12.040   0.907  1.00  0.00    -0.040 SA
BRANCH   3   5
HETATM    5  N   UNL     1      41.747 -13.956   2.615  1.00  0.00    -0.299 N 
HETATM    6  C   UNL     1      42.963 -14.149   3.268  1.00  0.00     0.257 C 
HETATM    7  O   UNL     1      43.811 -13.289   3.475  1.00  0.00    -0.267 OA
HETATM    8  H   UNL     1      41.101 -14.730   2.638  1.00  0.00     0.171 HD
BRANCH   6   9
HETATM    9  C   UNL     1      43.242 -15.552   3.705  1.00  0.00     0.032 A 
HETATM   10  C   UNL     1      43.517 -16.506   2.716  1.00  0.00     0.020 A 
HETATM   11  C   UNL     1      43.757 -17.840   3.063  1.00  0.00     0.038 A 
HETATM   12  C   UNL     1      43.743 -18.218   4.405  1.00  0.00     0.068 A 
HETATM   13  C   UNL     1      43.476 -17.277   5.395  1.00  0.00     0.038 A 
HETATM   14  C   UNL     1      43.244 -15.940   5.052  1.00  0.00     0.020 A 
BRANCH  12  15
HETATM   15  O   UNL     1      43.888 -19.516   4.809  1.00  0.00    -0.351 OA
BRANCH  15  16
HETATM   16  C   UNL     1      44.902 -20.222   4.085  1.00  0.00     0.175 C 
BRANCH  16  17
HETATM   17  C   UNL     1      44.826 -21.702   4.462  1.00  0.00     0.026 C 
BRANCH  17  18
HETATM   18  C   UNL     1      44.566 -22.590   3.242  1.00  0.00    -0.002 C 
HETATM   19  C   UNL     1      44.223 -21.764   2.011  1.00  0.00     0.005 C 
ENDBRANCH  17  18
ENDBRANCH  16  17
ENDBRANCH  15  16
ENDBRANCH  12  15
ENDBRANCH   6   9
ENDBRANCH   3   5
ENDBRANCH   1   3
BRANCH   1  20
HETATM   20  C   UNL     1      40.522 -11.874   4.653  1.00  0.00     0.036 A 
HETATM   21  C   UNL     1      39.764 -12.549   5.617  1.00  0.00     0.067 A 
HETATM   22  C   UNL     1      39.855 -12.204   6.973  1.00  0.00     0.082 A 
HETATM   23  C   UNL     1      40.705 -11.177   7.404  1.00  0.00     0.050 A 
HETATM   24  C   UNL     1      41.466 -10.515   6.425  1.00  0.00     0.021 A 
HETATM   25  C   UNL     1      41.374 -10.853   5.067  1.00  0.00     0.030 A 
BRANCH  22  26
HETATM   26  O   UNL     1      39.058 -12.871   7.867  1.00  0.00    -0.360 OA
HETATM   27  H   UNL     1      38.943 -13.792   7.584  1.00  0.00     0.217 HD
ENDBRANCH  22  26
BRANCH  23  28
HETATM   28  C   UNL     1      40.817 -10.719   8.791  1.00  0.00     0.183 A 
HETATM   29  O   UNL     1      42.077 -10.590   9.323  1.00  0.00    -0.289 OA
HETATM   30  C   UNL     1      41.861 -10.185  10.606  1.00  0.00     0.107 A 
HETATM   31  C   UNL     1      40.494 -10.070  10.787  1.00  0.00     0.093 A 
HETATM   32  C   UNL     1      42.817  -9.932  11.582  1.00  0.00     0.046 A 
HETATM   33  N   UNL     1      39.840 -10.395   9.626  1.00  0.00    -0.221 NA
HETATM   34  C   UNL     1      40.011  -9.677  12.040  1.00  0.00     0.035 A 
HETATM   35  C   UNL     1      40.942  -9.415  13.058  1.00  0.00     0.009 A 
HETATM   36  C   UNL     1      42.327  -9.527  12.836  1.00  0.00    -0.059 A 
HETATM   37  C   UNL     1      43.285  -9.269  13.966  1.00  0.00     0.048 C 
ENDBRANCH  23  28
ENDBRANCH   1  20
TORSDOF 10
ENDMDL
MODEL 6
REMARK VINA RESULT:      -8.1      4.406      8.125
REMARK  10 active torsions:
REMARK  status: ('A' for Active; 'I' for Inactive)
REMARK    1  A    between atoms: C_2  and  C_3 
REMARK    2  A    between atoms: C_3  and  C_4 
REMARK    3  A    between atoms: C_4  and  O_5 
REMARK    4  A    between atoms: O_5  and  C_6 
REMARK    5  A    between atoms: C_9  and  C_10 
REMARK       I    between atoms: C_10  and  N_11 
REMARK    6  A    between atoms: N_11  and  C_12 
REMARK    7  A    between atoms: C_12  and  N_13 
REMARK    8  A    between atoms: N_13  and  C_14 
REMARK    9  A    between atoms: C_16  and  O_17 
REMARK   10  A    between atoms: C_18  and  C_19 
ROOT
HETATM    1  N   UNL     1      40.056 -11.950   5.362  1.00  0.00    -0.333 N 
HETATM    2  H   UNL     1      40.463 -11.499   6.173  1.00  0.00     0.168 HD
ENDROOT
BRANCH   1   3
HETATM    3  C   UNL     1      39.341 -11.104   4.587  1.00  0.00     0.179 C 
HETATM    4  S   UNL     1      38.913  -9.609   5.207  1.00  0.00    -0.040 SA
BRANCH   3   5
HETATM    5  N   UNL     1      38.914 -11.420   3.337  1.00  0.00    -0.299 N 
HETATM    6  C   UNL     1      39.567 -11.177   2.129  1.00  0.00     0.257 C 
HETATM    7  O   UNL     1      40.469 -10.367   1.952  1.00  0.00    -0.267 OA
HETATM    8  H   UNL     1      38.283 -12.206   3.352  1.00  0.00     0.171 HD
BRANCH   6   9
HETATM    9  C   UNL     1      39.066 -11.962   0.959  1.00  0.00     0.032 A 
HETATM   10  C   UNL     1      38.249 -13.072   1.212  1.00  0.00     0.020 A 
HETATM   11  C   UNL     1      37.774 -13.860   0.159  1.00  0.00     0.038 A 
HETATM   12  C   UNL     1      38.099 -13.527  -1.155  1.00  0.00     0.068 A 
HETATM   13  C   UNL     1      38.906 -12.423  -1.418  1.00  0.00     0.038 A 
HETATM   14  C   UNL     1      39.375 -11.627  -0.367  1.00  0.00     0.020 A 
BRANCH  12  15
HETATM   15  O   UNL     1      37.738 -14.297  -2.224  1.00  0.00    -0.351 OA
BRANCH  15  16
HETATM   16  C   UNL     1      38.613 -14.151  -3.347  1.00  0.00     0.175 C 
BRANCH  16  17
HETATM   17  C   UNL     1      39.130 -15.534  -3.744  1.00  0.00     0.026 C 
BRANCH  17  18
HETATM   18  C   UNL     1      40.475 -15.851  -3.086  1.00  0.00    -0.002 C 
HETATM   19  C   UNL     1      41.394 -14.639  -3.076  1.00  0.00     0.005 C 
ENDBRANCH  17  18
ENDBRANCH  16  17
ENDBRANCH  15  16
ENDBRANCH  12  15
ENDBRANCH   6   9
ENDBRANCH   3   5
ENDBRANCH   1   3
BRANCH   1  20
HETATM   20  C   UNL     1      40.654 -13.188   5.027  1.00  0.00     0.036 A 
HETATM   21  C   UNL     1      40.134 -14.332   5.645  1.00  0.00     0.067 A 
HETATM   22  C   UNL     1      40.737 -15.584   5.461  1.00  0.00     0.082 A 
HETATM   23  C   UNL     1      41.874 -15.730   4.655  1.00  0.00     0.050 A 
HETATM   24  C   UNL     1      42.378 -14.574   4.034  1.00  0.00     0.021 A 
HETATM   25  C   UNL     1      41.781 -13.318   4.219  1.00  0.00     0.030 A 
BRANCH  22  26
HETATM   26  O   UNL     1      40.210 -16.662   6.125  1.00  0.00    -0.360 OA
HETATM   27  H   UNL     1      40.056 -17.390   5.502  1.00  0.00     0.217 HD
ENDBRANCH  22  26
BRANCH  23  28
HETATM   28  C   UNL     1      42.594 -16.990   4.455  1.00  0.00     0.183 A 
HETATM   29  O   UNL     1      42.510 -17.587   3.221  1.00  0.00    -0.289 OA
HETATM   30  C   UNL     1      43.242 -18.729   3.350  1.00  0.00     0.107 A 
HETATM   31  C   UNL     1      43.748 -18.764   4.637  1.00  0.00     0.093 A 
HETATM   32  C   UNL     1      43.456 -19.706   2.385  1.00  0.00     0.046 A 
HETATM   33  N   UNL     1      43.345 -17.648   5.326  1.00  0.00    -0.221 NA
HETATM   34  C   UNL     1      44.532 -19.856   5.025  1.00  0.00     0.035 A 
HETATM   35  C   UNL     1      44.770 -20.870   4.082  1.00  0.00     0.009 A 
HETATM   36  C   UNL     1      44.253 -20.797   2.775  1.00  0.00    -0.059 A 
HETATM   37  C   UNL     1      44.507 -21.922   1.810  1.00  0.00     0.048 C 
ENDBRANCH  23  28
ENDBRANCH   1  20
TORSDOF 10
ENDMDL
MODEL 7
REMARK VINA RESULT:      -7.9      5.249      9.064
REMARK  10 active torsions:
REMARK  status: ('A' for Active; 'I' for Inactive)
REMARK    1  A    between atoms: C_2  and  C_3 
REMARK    2  A    between atoms: C_3  and  C_4 
REMARK    3  A    between atoms: C_4  and  O_5 
REMARK    4  A    between atoms: O_5  and  C_6 
REMARK    5  A    between atoms: C_9  and  C_10 
REMARK       I    between atoms: C_10  and  N_11 
REMARK    6  A    between atoms: N_11  and  C_12 
REMARK    7  A    between atoms: C_12  and  N_13 
REMARK    8  A    between atoms: N_13  and  C_14 
REMARK    9  A    between atoms: C_16  and  O_17 
REMARK   10  A    between atoms: C_18  and  C_19 
ROOT
HETATM    1  N   UNL     1      41.312 -11.612   3.445  1.00  0.00    -0.333 N 
HETATM    2  H   UNL     1      41.691 -10.992   4.152  1.00  0.00     0.168 HD
ENDROOT
BRANCH   1   3
HETATM    3  C   UNL     1      40.702 -10.952   2.435  1.00  0.00     0.179 C 
HETATM    4  S   UNL     1      39.967  -9.482   2.759  1.00  0.00    -0.040 SA
BRANCH   3   5
HETATM    5  N   UNL     1      40.618 -11.440   1.170  1.00  0.00    -0.299 N 
HETATM    6  C   UNL     1      41.662 -11.660   0.274  1.00  0.00     0.257 C 
HETATM    7  O   UNL     1      42.781 -11.166   0.340  1.00  0.00    -0.267 OA
HETATM    8  H   UNL     1      39.800 -12.018   1.053  1.00  0.00     0.171 HD
BRANCH   6   9
HETATM    9  C   UNL     1      41.338 -12.551  -0.883  1.00  0.00     0.032 A 
HETATM   10  C   UNL     1      40.717 -13.779  -0.615  1.00  0.00     0.020 A 
HETATM   11  C   UNL     1      40.416 -14.665  -1.654  1.00  0.00     0.038 A 
HETATM   12  C   UNL     1      40.717 -14.316  -2.969  1.00  0.00     0.068 A 
HETATM   13  C   UNL     1      41.329 -13.097  -3.247  1.00  0.00     0.038 A 
HETATM   14  C   UNL     1      41.623 -12.204  -2.211  1.00  0.00     0.020 A 
BRANCH  12  15
HETATM   15  O   UNL     1      40.525 -15.166  -4.022  1.00  0.00    -0.351 OA
BRANCH  15  16
HETATM   16  C   UNL     1      39.544 -16.176  -3.761  1.00  0.00     0.175 C 
BRANCH  16  17
HETATM   17  C   UNL     1      38.254 -15.799  -4.489  1.00  0.00     0.026 C 
BRANCH  17  18
HETATM   18  C   UNL     1      37.257 -15.100  -3.560  1.00  0.00    -0.002 C 
HETATM   19  C   UNL     1      37.182 -13.607  -3.839  1.00  0.00     0.005 C 
ENDBRANCH  17  18
ENDBRANCH  16  17
ENDBRANCH  15  16
ENDBRANCH  12  15
ENDBRANCH   6   9
ENDBRANCH   3   5
ENDBRANCH   1   3
BRANCH   1  20
HETATM   20  C   UNL     1      41.855 -12.918   3.466  1.00  0.00     0.036 A 
HETATM   21  C   UNL     1      40.950 -13.983   3.383  1.00  0.00     0.067 A 
HETATM   22  C   UNL     1      41.387 -15.309   3.511  1.00  0.00     0.082 A 
HETATM   23  C   UNL     1      42.739 -15.608   3.726  1.00  0.00     0.050 A 
HETATM   24  C   UNL     1      43.636 -14.528   3.798  1.00  0.00     0.021 A 
HETATM   25  C   UNL     1      43.203 -13.200   3.675  1.00  0.00     0.030 A 
BRANCH  22  26
HETATM   26  O   UNL     1      40.451 -16.309   3.464  1.00  0.00    -0.360 OA
HETATM   27  H   UNL     1      39.577 -15.953   3.691  1.00  0.00     0.217 HD
ENDBRANCH  22  26
BRANCH  23  28
HETATM   28  C   UNL     1      43.269 -16.960   3.925  1.00  0.00     0.183 A 
HETATM   29  O   UNL     1      43.228 -17.827   2.861  1.00  0.00    -0.289 OA
HETATM   30  C   UNL     1      43.752 -18.985   3.351  1.00  0.00     0.107 A 
HETATM   31  C   UNL     1      44.102 -18.765   4.671  1.00  0.00     0.093 A 
HETATM   32  C   UNL     1      43.913 -20.189   2.675  1.00  0.00     0.046 A 
HETATM   33  N   UNL     1      43.807 -17.472   5.022  1.00  0.00    -0.221 NA
HETATM   34  C   UNL     1      44.656 -19.819   5.407  1.00  0.00     0.035 A 
HETATM   35  C   UNL     1      44.833 -21.055   4.764  1.00  0.00     0.009 A 
HETATM   36  C   UNL     1      44.480 -21.242   3.415  1.00  0.00    -0.059 A 
HETATM   37  C   UNL     1      44.658 -22.593   2.779  1.00  0.00     0.048 C 
ENDBRANCH  23  28
ENDBRANCH   1  20
TORSDOF 10
ENDMDL
MODEL 8
REMARK VINA RESULT:      -7.8      4.075      5.990
REMARK  10 active torsions:
REMARK  status: ('A' for Active; 'I' for Inactive)
REMARK    1  A    between atoms: C_2  and  C_3 
REMARK    2  A    between atoms: C_3  and  C_4 
REMARK    3  A    between atoms: C_4  and  O_5 
REMARK    4  A    between atoms: O_5  and  C_6 
REMARK    5  A    between atoms: C_9  and  C_10 
REMARK       I    between atoms: C_10  and  N_11 
REMARK    6  A    between atoms: N_11  and  C_12 
REMARK    7  A    between atoms: C_12  and  N_13 
REMARK    8  A    between atoms: N_13  and  C_14 
REMARK    9  A    between atoms: C_16  and  O_17 
REMARK   10  A    between atoms: C_18  and  C_19 
ROOT
HETATM    1  N   UNL     1      42.488 -15.960   6.181  1.00  0.00    -0.333 N 
HETATM    2  H   UNL     1      41.843 -16.681   6.483  1.00  0.00     0.168 HD
ENDROOT
BRANCH   1   3
HETATM    3  C   UNL     1      43.608 -15.902   6.935  1.00  0.00     0.179 C 
HETATM    4  S   UNL     1      44.707 -17.162   6.848  1.00  0.00    -0.040 SA
BRANCH   3   5
HETATM    5  N   UNL     1      43.873 -14.886   7.797  1.00  0.00    -0.299 N 
HETATM    6  C   UNL     1      44.678 -13.770   7.574  1.00  0.00     0.257 C 
HETATM    7  O   UNL     1      45.530 -13.664   6.701  1.00  0.00    -0.267 OA
HETATM    8  H   UNL     1      43.130 -14.772   8.470  1.00  0.00     0.171 HD
BRANCH   6   9
HETATM    9  C   UNL     1      44.485 -12.638   8.532  1.00  0.00     0.032 A 
HETATM   10  C   UNL     1      45.478 -12.414   9.495  1.00  0.00     0.020 A 
HETATM   11  C   UNL     1      45.338 -11.388  10.435  1.00  0.00     0.038 A 
HETATM   12  C   UNL     1      44.212 -10.566  10.399  1.00  0.00     0.068 A 
HETATM   13  C   UNL     1      43.223 -10.777   9.443  1.00  0.00     0.038 A 
HETATM   14  C   UNL     1      43.364 -11.797   8.496  1.00  0.00     0.020 A 
BRANCH  12  15
HETATM   15  O   UNL     1      43.973  -9.599  11.334  1.00  0.00    -0.351 OA
BRANCH  15  16
HETATM   16  C   UNL     1      43.623 -10.128  12.618  1.00  0.00     0.175 C 
BRANCH  16  17
HETATM   17  C   UNL     1      42.400  -9.372  13.136  1.00  0.00     0.026 C 
BRANCH  17  18
HETATM   18  C   UNL     1      41.104  -9.875  12.494  1.00  0.00    -0.002 C 
HETATM   19  C   UNL     1      40.896 -11.361  12.740  1.00  0.00     0.005 C 
ENDBRANCH  17  18
ENDBRANCH  16  17
ENDBRANCH  15  16
ENDBRANCH  12  15
ENDBRANCH   6   9
ENDBRANCH   3   5
ENDBRANCH   1   3
BRANCH   1  20
HETATM   20  C   UNL     1      42.269 -15.503   4.859  1.00  0.00     0.036 A 
HETATM   21  C   UNL     1      41.138 -15.995   4.198  1.00  0.00     0.067 A 
HETATM   22  C   UNL     1      40.903 -15.687   2.850  1.00  0.00     0.082 A 
HETATM   23  C   UNL     1      41.791 -14.878   2.127  1.00  0.00     0.050 A 
HETATM   24  C   UNL     1      42.916 -14.384   2.809  1.00  0.00     0.021 A 
HETATM   25  C   UNL     1      43.157 -14.694   4.155  1.00  0.00     0.030 A 
BRANCH  22  26
HETATM   26  O   UNL     1      39.802 -16.231   2.241  1.00  0.00    -0.360 OA
HETATM   27  H   UNL     1      39.860 -17.200   2.262  1.00  0.00     0.217 HD
ENDBRANCH  22  26
BRANCH  23  28
HETATM   28  C   UNL     1      41.648 -14.554   0.705  1.00  0.00     0.183 A 
HETATM   29  O   UNL     1      42.230 -13.396   0.250  1.00  0.00    -0.289 OA
HETATM   30  C   UNL     1      41.908 -13.355  -1.073  1.00  0.00     0.107 A 
HETATM   31  C   UNL     1      41.168 -14.487  -1.363  1.00  0.00     0.093 A 
HETATM   32  C   UNL     1      42.240 -12.365  -1.990  1.00  0.00     0.046 A 
HETATM   33  N   UNL     1      41.022 -15.251  -0.232  1.00  0.00    -0.221 NA
HETATM   34  C   UNL     1      40.701 -14.672  -2.669  1.00  0.00     0.035 A 
HETATM   35  C   UNL     1      41.011 -13.694  -3.628  1.00  0.00     0.009 A 
HETATM   36  C   UNL     1      41.779 -12.560  -3.304  1.00  0.00    -0.059 A 
HETATM   37  C   UNL     1      42.057 -11.524  -4.357  1.00  0.00     0.048 C 
ENDBRANCH  23  28
ENDBRANCH   1  20
TORSDOF 10
ENDMDL
MODEL 9
REMARK VINA RESULT:      -7.6      5.436     10.228
REMARK  10 active torsions:
REMARK  status: ('A' for Active; 'I' for Inactive)
REMARK    1  A    between atoms: C_2  and  C_3 
REMARK    2  A    between atoms: C_3  and  C_4 
REMARK    3  A    between atoms: C_4  and  O_5 
REMARK    4  A    between atoms: O_5  and  C_6 
REMARK    5  A    between atoms: C_9  and  C_10 
REMARK       I    between atoms: C_10  and  N_11 
REMARK    6  A    between atoms: N_11  and  C_12 
REMARK    7  A    between atoms: C_12  and  N_13 
REMARK    8  A    between atoms: N_13  and  C_14 
REMARK    9  A    between atoms: C_16  and  O_17 
REMARK   10  A    between atoms: C_18  and  C_19 
ROOT
HETATM    1  N   UNL     1      39.566 -14.719   3.502  1.00  0.00    -0.333 N 
HETATM    2  H   UNL     1      38.961 -15.527   3.405  1.00  0.00     0.168 HD
ENDROOT
BRANCH   1   3
HETATM    3  C   UNL     1      40.310 -14.748   4.630  1.00  0.00     0.179 C 
HETATM    4  S   UNL     1      39.999 -13.622   5.831  1.00  0.00    -0.040 SA
BRANCH   3   5
HETATM    5  N   UNL     1      41.330 -15.622   4.827  1.00  0.00    -0.299 N 
HETATM    6  C   UNL     1      41.301 -16.814   5.549  1.00  0.00     0.257 C 
HETATM    7  O   UNL     1      40.462 -17.126   6.385  1.00  0.00    -0.267 OA
HETATM    8  H   UNL     1      42.009 -15.568   4.084  1.00  0.00     0.171 HD
BRANCH   6   9
HETATM    9  C   UNL     1      42.432 -17.755   5.282  1.00  0.00     0.032 A 
HETATM   10  C   UNL     1      42.844 -17.929   3.954  1.00  0.00     0.020 A 
HETATM   11  C   UNL     1      43.878 -18.818   3.641  1.00  0.00     0.038 A 
HETATM   12  C   UNL     1      44.519 -19.520   4.661  1.00  0.00     0.068 A 
HETATM   13  C   UNL     1      44.121 -19.350   5.984  1.00  0.00     0.038 A 
HETATM   14  C   UNL     1      43.093 -18.455   6.301  1.00  0.00     0.020 A 
BRANCH  12  15
HETATM   15  O   UNL     1      45.479 -20.461   4.420  1.00  0.00    -0.351 OA
BRANCH  15  16
HETATM   16  C   UNL     1      45.160 -21.746   4.965  1.00  0.00     0.175 C 
BRANCH  16  17
HETATM   17  C   UNL     1      44.300 -22.502   3.952  1.00  0.00     0.026 C 
BRANCH  17  18
HETATM   18  C   UNL     1      44.837 -22.358   2.526  1.00  0.00    -0.002 C 
HETATM   19  C   UNL     1      43.763 -21.859   1.571  1.00  0.00     0.005 C 
ENDBRANCH  17  18
ENDBRANCH  16  17
ENDBRANCH  15  16
ENDBRANCH  12  15
ENDBRANCH   6   9
ENDBRANCH   3   5
ENDBRANCH   1   3
BRANCH   1  20
HETATM   20  C   UNL     1      39.788 -14.013   2.296  1.00  0.00     0.036 A 
HETATM   21  C   UNL     1      39.063 -14.430   1.174  1.00  0.00     0.067 A 
HETATM   22  C   UNL     1      39.301 -13.865  -0.087  1.00  0.00     0.082 A 
HETATM   23  C   UNL     1      40.269 -12.867  -0.261  1.00  0.00     0.050 A 
HETATM   24  C   UNL     1      40.982 -12.452   0.877  1.00  0.00     0.021 A 
HETATM   25  C   UNL     1      40.750 -13.018   2.139  1.00  0.00     0.030 A 
BRANCH  22  26
HETATM   26  O   UNL     1      38.591 -14.343  -1.158  1.00  0.00    -0.360 OA
HETATM   27  H   UNL     1      37.827 -13.769  -1.329  1.00  0.00     0.217 HD
ENDBRANCH  22  26
BRANCH  23  28
HETATM   28  C   UNL     1      40.617 -12.265  -1.551  1.00  0.00     0.183 A 
HETATM   29  O   UNL     1      39.593 -11.796  -2.336  1.00  0.00    -0.289 OA
HETATM   30  C   UNL     1      40.213 -11.331  -3.456  1.00  0.00     0.107 A 
HETATM   31  C   UNL     1      41.575 -11.519  -3.294  1.00  0.00     0.093 A 
HETATM   32  C   UNL     1      39.616 -10.771  -4.579  1.00  0.00     0.046 A 
HETATM   33  N   UNL     1      41.823 -12.097  -2.075  1.00  0.00    -0.221 NA
HETATM   34  C   UNL     1      42.437 -11.130  -4.325  1.00  0.00     0.035 A 
HETATM   35  C   UNL     1      41.876 -10.563  -5.481  1.00  0.00     0.009 A 
HETATM   36  C   UNL     1      40.488 -10.371  -5.608  1.00  0.00    -0.059 A 
HETATM   37  C   UNL     1      39.930  -9.790  -6.878  1.00  0.00     0.048 C 
ENDBRANCH  23  28
ENDBRANCH   1  20
TORSDOF 10
ENDMDL
MODEL 10
REMARK VINA RESULT:      -7.4      4.234      6.224
REMARK  10 active torsions:
REMARK  status: ('A' for Active; 'I' for Inactive)
REMARK    1  A    between atoms: C_2  and  C_3 
REMARK    2  A    between atoms: C_3  and  C_4 
REMARK    3  A    between atoms: C_4  and  O_5 
REMARK    4  A    between atoms: O_5  and  C_6 
REMARK    5  A    between atoms: C_9  and  C_10 
REMARK       I    between atoms: C_10  and  N_11 
REMARK    6  A    between atoms: N_11  and  C_12 
REMARK    7  A    between atoms: C_12  and  N_13 
REMARK    8  A    between atoms: N_13  and  C_14 
REMARK    9  A    between atoms: C_16  and  O_17 
REMARK   10  A    between atoms: C_18  and  C_19 
ROOT
HETATM    1  N   UNL     1      43.922 -15.601   5.161  1.00  0.00    -0.333 N 
HETATM    2  H   UNL     1      44.931 -15.515   5.210  1.00  0.00     0.168 HD
ENDROOT
BRANCH   1   3
HETATM    3  C   UNL     1      43.335 -15.651   6.378  1.00  0.00     0.179 C 
HETATM    4  S   UNL     1      42.142 -16.794   6.653  1.00  0.00    -0.040 SA
BRANCH   3   5
HETATM    5  N   UNL     1      43.636 -14.791   7.386  1.00  0.00    -0.299 N 
HETATM    6  C   UNL     1      44.585 -13.771   7.377  1.00  0.00     0.257 C 
HETATM    7  O   UNL     1      45.522 -13.669   6.595  1.00  0.00    -0.267 OA
HETATM    8  H   UNL     1      42.853 -14.667   8.008  1.00  0.00     0.171 HD
BRANCH   6   9
HETATM    9  C   UNL     1      44.439 -12.749   8.459  1.00  0.00     0.032 A 
HETATM   10  C   UNL     1      43.376 -11.839   8.367  1.00  0.00     0.020 A 
HETATM   11  C   UNL     1      43.207 -10.844   9.334  1.00  0.00     0.038 A 
HETATM   12  C   UNL     1      44.089 -10.768  10.411  1.00  0.00     0.068 A 
HETATM   13  C   UNL     1      45.145 -11.670  10.515  1.00  0.00     0.038 A 
HETATM   14  C   UNL     1      45.312 -12.672   9.553  1.00  0.00     0.020 A 
BRANCH  12  15
HETATM   15  O   UNL     1      44.030  -9.774  11.346  1.00  0.00    -0.351 OA
BRANCH  15  16
HETATM   16  C   UNL     1      42.801  -9.041  11.316  1.00  0.00     0.175 C 
BRANCH  16  17
HETATM   17  C   UNL     1      42.476  -8.579  12.736  1.00  0.00     0.026 C 
BRANCH  17  18
HETATM   18  C   UNL     1      43.289  -9.342  13.786  1.00  0.00    -0.002 C 
HETATM   19  C   UNL     1      42.393  -9.960  14.848  1.00  0.00     0.005 C 
ENDBRANCH  17  18
ENDBRANCH  16  17
ENDBRANCH  15  16
ENDBRANCH  12  15
ENDBRANCH   6   9
ENDBRANCH   3   5
ENDBRANCH   1   3
BRANCH   1  20
HETATM   20  C   UNL     1      43.369 -15.235   3.911  1.00  0.00     0.036 A 
HETATM   21  C   UNL     1      43.246 -13.865   3.649  1.00  0.00     0.067 A 
HETATM   22  C   UNL     1      42.606 -13.411   2.487  1.00  0.00     0.082 A 
HETATM   23  C   UNL     1      42.072 -14.311   1.555  1.00  0.00     0.050 A 
HETATM   24  C   UNL     1      42.212 -15.683   1.829  1.00  0.00     0.021 A 
HETATM   25  C   UNL     1      42.848 -16.141   2.992  1.00  0.00     0.030 A 
BRANCH  22  26
HETATM   26  O   UNL     1      42.476 -12.059   2.303  1.00  0.00    -0.360 OA
HETATM   27  H   UNL     1      41.541 -11.831   2.180  1.00  0.00     0.217 HD
ENDBRANCH  22  26
BRANCH  23  28
HETATM   28  C   UNL     1      41.342 -13.920   0.346  1.00  0.00     0.183 A 
HETATM   29  O   UNL     1      40.111 -14.487   0.130  1.00  0.00    -0.289 OA
HETATM   30  C   UNL     1      39.703 -13.961  -1.059  1.00  0.00     0.107 A 
HETATM   31  C   UNL     1      40.686 -13.092  -1.497  1.00  0.00     0.093 A 
HETATM   32  C   UNL     1      38.522 -14.233  -1.739  1.00  0.00     0.046 A 
HETATM   33  N   UNL     1      41.716 -13.060  -0.590  1.00  0.00    -0.221 NA
HETATM   34  C   UNL     1      40.507 -12.429  -2.715  1.00  0.00     0.035 A 
HETATM   35  C   UNL     1      39.329 -12.677  -3.439  1.00  0.00     0.009 A 
HETATM   36  C   UNL     1      38.340 -13.556  -2.958  1.00  0.00    -0.059 A 
HETATM   37  C   UNL     1      37.111 -13.815  -3.784  1.00  0.00     0.048 C 
ENDBRANCH  23  28
ENDBRANCH   1  20
TORSDOF 10
ENDMDL
