MODEL 1
REMARK VINA RESULT:      -7.9      0.000      0.000
REMARK  6 active torsions:
REMARK  status: ('A' for Active; 'I' for Inactive)
REMARK    1  A    between atoms: O_2  and  C_3 
REMARK    2  A    between atoms: C_4  and  O_5 
REMARK    3  A    between atoms: O_5  and  C_6 
REMARK    4  A    between atoms: C_11  and  C_12 
REMARK    5  A    between atoms: C_12  and  N_13 
REMARK       I    between atoms: N_13  and  C_14 
REMARK    6  A    between atoms: C_14  and  C_15 
ROOT
HETATM    1  N   UNL     1      42.350 -16.286   6.022  1.00  0.00    -0.353 N 
HETATM    2  C   UNL     1      40.982 -16.126   6.009  1.00  0.00     0.252 C 
HETATM    3  O   UNL     1      40.213 -16.905   6.560  1.00  0.00    -0.268 OA
HETATM    4  H   UNL     1      42.920 -15.758   5.376  1.00  0.00     0.163 HD
ENDROOT
BRANCH   1   5
HETATM    5  C   UNL     1      42.945 -17.449   6.636  1.00  0.00     0.161 C 
BRANCH   5   6
HETATM    6  C   UNL     1      43.558 -18.340   5.589  1.00  0.00    -0.038 A 
HETATM    7  C   UNL     1      44.141 -19.562   5.948  1.00  0.00     0.012 A 
HETATM    8  C   UNL     1      44.664 -20.406   4.970  1.00  0.00     0.040 A 
HETATM    9  C   UNL     1      44.615 -20.029   3.627  1.00  0.00     0.108 A 
HETATM   10  C   UNL     1      44.008 -18.824   3.242  1.00  0.00     0.102 A 
HETATM   11  C   UNL     1      43.488 -17.983   4.230  1.00  0.00     0.048 A 
BRANCH   9  12
HETATM   12  O   UNL     1      45.080 -20.873   2.650  1.00  0.00    -0.287 OA
BRANCH  12  13
HETATM   13  C   UNL     1      44.181 -21.951   2.440  1.00  0.00     0.505 C 
HETATM   14  F   UNL     1      44.161 -22.248   1.114  1.00  0.00    -0.184 F 
HETATM   15  F   UNL     1      44.694 -23.040   3.066  1.00  0.00    -0.184 F 
ENDBRANCH  12  13
ENDBRANCH   9  12
BRANCH  10  16
HETATM   16  O   UNL     1      44.005 -18.551   1.900  1.00  0.00    -0.353 OA
HETATM   17  C   UNL     1      44.079 -17.181   1.521  1.00  0.00     0.210 C 
ENDBRANCH  10  16
ENDBRANCH   5   6
ENDBRANCH   1   5
BRANCH   2  18
HETATM   18  C   UNL     1      40.450 -14.960   5.245  1.00  0.00     0.034 A 
HETATM   19  C   UNL     1      39.912 -13.838   5.894  1.00  0.00     0.051 A 
HETATM   20  C   UNL     1      39.439 -12.776   5.109  1.00  0.00     0.085 A 
HETATM   21  C   UNL     1      39.498 -12.865   3.723  1.00  0.00     0.062 A 
HETATM   22  N   UNL     1      38.884 -11.583   5.500  1.00  0.00    -0.242 NA
HETATM   23  N   UNL     1      38.960 -11.681   3.286  1.00  0.00    -0.349 N 
HETATM   24  C   UNL     1      40.010 -13.972   3.046  1.00  0.00     0.033 A 
HETATM   25  H   UNL     1      38.841 -11.401   2.323  1.00  0.00     0.167 HD
HETATM   26  C   UNL     1      38.609 -10.947   4.385  1.00  0.00     0.208 A 
HETATM   27  C   UNL     1      40.484 -15.023   3.842  1.00  0.00     0.019 A 
ENDBRANCH   2  18
TORSDOF 6
ENDMDL
MODEL 2
REMARK VINA RESULT:      -7.9      3.783      4.921
REMARK  6 active torsions:
REMARK  status: ('A' for Active; 'I' for Inactive)
REMARK    1  A    between atoms: O_2  and  C_3 
REMARK    2  A    between atoms: C_4  and  O_5 
REMARK    3  A    between atoms: O_5  and  C_6 
REMARK    4  A    between atoms: C_11  and  C_12 
REMARK    5  A    between atoms: C_12  and  N_13 
REMARK       I    between atoms: N_13  and  C_14 
REMARK    6  A    between atoms: C_14  and  C_15 
ROOT
HETATM    1  N   UNL     1      40.868 -16.186   1.691  1.00  0.00    -0.353 N 
HETATM    2  C   UNL     1      41.279 -15.101   0.949  1.00  0.00     0.252 C 
HETATM    3  O   UNL     1      42.125 -14.305   1.342  1.00  0.00    -0.268 OA
HETATM    4  H   UNL     1      40.022 -16.675   1.432  1.00  0.00     0.163 HD
ENDROOT
BRANCH   1   5
HETATM    5  C   UNL     1      41.374 -16.394   3.027  1.00  0.00     0.161 C 
BRANCH   5   6
HETATM    6  C   UNL     1      42.282 -17.594   3.064  1.00  0.00    -0.038 A 
HETATM    7  C   UNL     1      42.473 -18.376   1.918  1.00  0.00     0.012 A 
HETATM    8  C   UNL     1      43.352 -19.458   1.943  1.00  0.00     0.040 A 
HETATM    9  C   UNL     1      44.038 -19.770   3.119  1.00  0.00     0.108 A 
HETATM   10  C   UNL     1      43.884 -18.981   4.269  1.00  0.00     0.102 A 
HETATM   11  C   UNL     1      43.000 -17.900   4.234  1.00  0.00     0.048 A 
BRANCH   9  12
HETATM   12  O   UNL     1      44.944 -20.800   3.143  1.00  0.00    -0.287 OA
BRANCH  12  13
HETATM   13  C   UNL     1      44.359 -22.002   2.668  1.00  0.00     0.505 C 
HETATM   14  F   UNL     1      44.825 -22.247   1.415  1.00  0.00    -0.184 F 
HETATM   15  F   UNL     1      44.814 -23.015   3.448  1.00  0.00    -0.184 F 
ENDBRANCH  12  13
ENDBRANCH   9  12
BRANCH  10  16
HETATM   16  O   UNL     1      44.608 -19.366   5.366  1.00  0.00    -0.353 OA
HETATM   17  C   UNL     1      45.109 -18.330   6.203  1.00  0.00     0.210 C 
ENDBRANCH  10  16
ENDBRANCH   5   6
ENDBRANCH   1   5
BRANCH   2  18
HETATM   18  C   UNL     1      40.611 -14.897  -0.369  1.00  0.00     0.034 A 
HETATM   19  C   UNL     1      39.507 -14.041  -0.511  1.00  0.00     0.051 A 
HETATM   20  C   UNL     1      38.936 -13.893  -1.783  1.00  0.00     0.085 A 
HETATM   21  C   UNL     1      39.459 -14.602  -2.859  1.00  0.00     0.062 A 
HETATM   22  N   UNL     1      37.873 -13.119  -2.176  1.00  0.00    -0.242 NA
HETATM   23  N   UNL     1      38.674 -14.229  -3.921  1.00  0.00    -0.349 N 
HETATM   24  C   UNL     1      40.542 -15.475  -2.750  1.00  0.00     0.033 A 
HETATM   25  H   UNL     1      38.767 -14.556  -4.872  1.00  0.00     0.167 HD
HETATM   26  C   UNL     1      37.741 -13.341  -3.464  1.00  0.00     0.208 A 
HETATM   27  C   UNL     1      41.106 -15.609  -1.475  1.00  0.00     0.019 A 
ENDBRANCH   2  18
TORSDOF 6
ENDMDL
MODEL 3
REMARK VINA RESULT:      -7.7      5.421      6.625
REMARK  6 active torsions:
REMARK  status: ('A' for Active; 'I' for Inactive)
REMARK    1  A    between atoms: O_2  and  C_3 
REMARK    2  A    between atoms: C_4  and  O_5 
REMARK    3  A    between atoms: O_5  and  C_6 
REMARK    4  A    between atoms: C_11  and  C_12 
REMARK    5  A    between atoms: C_12  and  N_13 
REMARK       I    between atoms: N_13  and  C_14 
REMARK    6  A    between atoms: C_14  and  C_15 
ROOT
HETATM    1  N   UNL     1      44.225 -12.692   8.617  1.00  0.00    -0.353 N 
HETATM    2  C   UNL     1      44.624 -11.530   9.240  1.00  0.00     0.252 C 
HETATM    3  O   UNL     1      45.682 -10.965   8.986  1.00  0.00    -0.268 OA
HETATM    4  H   UNL     1      43.470 -13.235   9.012  1.00  0.00     0.163 HD
ENDROOT
BRANCH   1   5
HETATM    5  C   UNL     1      45.094 -13.351   7.671  1.00  0.00     0.161 C 
BRANCH   5   6
HETATM    6  C   UNL     1      44.322 -14.358   6.862  1.00  0.00    -0.038 A 
HETATM    7  C   UNL     1      43.956 -14.077   5.539  1.00  0.00     0.012 A 
HETATM    8  C   UNL     1      43.284 -15.032   4.778  1.00  0.00     0.040 A 
HETATM    9  C   UNL     1      42.965 -16.270   5.338  1.00  0.00     0.108 A 
HETATM   10  C   UNL     1      43.349 -16.583   6.650  1.00  0.00     0.102 A 
HETATM   11  C   UNL     1      44.021 -15.619   7.407  1.00  0.00     0.048 A 
BRANCH   9  12
HETATM   12  O   UNL     1      42.349 -17.237   4.583  1.00  0.00    -0.287 OA
BRANCH  12  13
HETATM   13  C   UNL     1      43.185 -17.659   3.518  1.00  0.00     0.505 C 
HETATM   14  F   UNL     1      44.333 -18.163   4.040  1.00  0.00    -0.184 F 
HETATM   15  F   UNL     1      42.563 -18.691   2.893  1.00  0.00    -0.184 F 
ENDBRANCH  12  13
ENDBRANCH   9  12
BRANCH  10  16
HETATM   16  O   UNL     1      42.996 -17.828   7.102  1.00  0.00    -0.353 OA
HETATM   17  C   UNL     1      43.987 -18.560   7.814  1.00  0.00     0.210 C 
ENDBRANCH  10  16
ENDBRANCH   5   6
ENDBRANCH   1   5
BRANCH   2  18
HETATM   18  C   UNL     1      43.717 -10.988  10.293  1.00  0.00     0.034 A 
HETATM   19  C   UNL     1      42.324 -10.963  10.123  1.00  0.00     0.051 A 
HETATM   20  C   UNL     1      41.534 -10.447  11.161  1.00  0.00     0.085 A 
HETATM   21  C   UNL     1      42.142  -9.962  12.314  1.00  0.00     0.062 A 
HETATM   22  N   UNL     1      40.169 -10.324  11.238  1.00  0.00    -0.242 NA
HETATM   23  N   UNL     1      41.096  -9.541  13.095  1.00  0.00    -0.349 N 
HETATM   24  C   UNL     1      43.524  -9.955  12.507  1.00  0.00     0.033 A 
HETATM   25  H   UNL     1      41.169  -9.126  14.013  1.00  0.00     0.167 HD
HETATM   26  C   UNL     1      39.937  -9.779  12.411  1.00  0.00     0.208 A 
HETATM   27  C   UNL     1      44.301 -10.479  11.466  1.00  0.00     0.019 A 
ENDBRANCH   2  18
TORSDOF 6
ENDMDL
MODEL 4
REMARK VINA RESULT:      -7.7      3.856      4.989
REMARK  6 active torsions:
REMARK  status: ('A' for Active; 'I' for Inactive)
REMARK    1  A    between atoms: O_2  and  C_3 
REMARK    2  A    between atoms: C_4  and  O_5 
REMARK    3  A    between atoms: O_5  and  C_6 
REMARK    4  A    between atoms: C_11  and  C_12 
REMARK    5  A    between atoms: C_12  and  N_13 
REMARK       I    between atoms: N_13  and  C_14 
REMARK    6  A    between atoms: C_14  and  C_15 
ROOT
HETATM    1  N   UNL     1      42.315 -15.259   1.932  1.00  0.00    -0.353 N 
HETATM    2  C   UNL     1      41.211 -15.283   1.108  1.00  0.00     0.252 C 
HETATM    3  O   UNL     1      40.142 -15.784   1.439  1.00  0.00    -0.268 OA
HETATM    4  H   UNL     1      43.223 -15.045   1.542  1.00  0.00     0.163 HD
ENDROOT
BRANCH   1   5
HETATM    5  C   UNL     1      42.281 -15.906   3.221  1.00  0.00     0.161 C 
BRANCH   5   6
HETATM    6  C   UNL     1      42.969 -17.244   3.156  1.00  0.00    -0.038 A 
HETATM    7  C   UNL     1      43.209 -17.860   1.921  1.00  0.00     0.012 A 
HETATM    8  C   UNL     1      43.889 -19.075   1.861  1.00  0.00     0.040 A 
HETATM    9  C   UNL     1      44.324 -19.687   3.038  1.00  0.00     0.108 A 
HETATM   10  C   UNL     1      44.121 -19.073   4.283  1.00  0.00     0.102 A 
HETATM   11  C   UNL     1      43.437 -17.855   4.333  1.00  0.00     0.048 A 
BRANCH   9  12
HETATM   12  O   UNL     1      45.040 -20.858   2.990  1.00  0.00    -0.287 OA
BRANCH  12  13
HETATM   13  C   UNL     1      44.214 -21.942   2.596  1.00  0.00     0.505 C 
HETATM   14  F   UNL     1      44.504 -22.264   1.308  1.00  0.00    -0.184 F 
HETATM   15  F   UNL     1      44.563 -23.017   3.346  1.00  0.00    -0.184 F 
ENDBRANCH  12  13
ENDBRANCH   9  12
BRANCH  10  16
HETATM   16  O   UNL     1      44.594 -19.751   5.375  1.00  0.00    -0.353 OA
HETATM   17  C   UNL     1      43.855 -19.620   6.585  1.00  0.00     0.210 C 
ENDBRANCH  10  16
ENDBRANCH   5   6
ENDBRANCH   1   5
BRANCH   2  18
HETATM   18  C   UNL     1      41.377 -14.698  -0.254  1.00  0.00     0.034 A 
HETATM   19  C   UNL     1      41.850 -13.390  -0.441  1.00  0.00     0.051 A 
HETATM   20  C   UNL     1      41.989 -12.911  -1.751  1.00  0.00     0.085 A 
HETATM   21  C   UNL     1      41.643 -13.727  -2.823  1.00  0.00     0.062 A 
HETATM   22  N   UNL     1      42.434 -11.689  -2.190  1.00  0.00    -0.242 NA
HETATM   23  N   UNL     1      41.895 -12.955  -3.929  1.00  0.00    -0.349 N 
HETATM   24  C   UNL     1      41.152 -15.024  -2.672  1.00  0.00     0.033 A 
HETATM   25  H   UNL     1      41.753 -13.231  -4.890  1.00  0.00     0.167 HD
HETATM   26  C   UNL     1      42.367 -11.746  -3.501  1.00  0.00     0.208 A 
HETATM   27  C   UNL     1      41.025 -15.492  -1.358  1.00  0.00     0.019 A 
ENDBRANCH   2  18
TORSDOF 6
ENDMDL
MODEL 5
REMARK VINA RESULT:      -7.4      5.823      6.799
REMARK  6 active torsions:
REMARK  status: ('A' for Active; 'I' for Inactive)
REMARK    1  A    between atoms: O_2  and  C_3 
REMARK    2  A    between atoms: C_4  and  O_5 
REMARK    3  A    between atoms: O_5  and  C_6 
REMARK    4  A    between atoms: C_11  and  C_12 
REMARK    5  A    between atoms: C_12  and  N_13 
REMARK       I    between atoms: N_13  and  C_14 
REMARK    6  A    between atoms: C_14  and  C_15 
ROOT
HETATM    1  N   UNL     1      44.233 -12.586   8.571  1.00  0.00    -0.353 N 
HETATM    2  C   UNL     1      44.690 -11.439   9.182  1.00  0.00     0.252 C 
HETATM    3  O   UNL     1      45.796 -10.960   8.959  1.00  0.00    -0.268 OA
HETATM    4  H   UNL     1      43.424 -13.063   8.947  1.00  0.00     0.163 HD
ENDROOT
BRANCH   1   5
HETATM    5  C   UNL     1      45.088 -13.331   7.678  1.00  0.00     0.161 C 
BRANCH   5   6
HETATM    6  C   UNL     1      44.272 -14.270   6.830  1.00  0.00    -0.038 A 
HETATM    7  C   UNL     1      44.171 -15.626   7.167  1.00  0.00     0.012 A 
HETATM    8  C   UNL     1      43.375 -16.482   6.408  1.00  0.00     0.040 A 
HETATM    9  C   UNL     1      42.684 -15.989   5.300  1.00  0.00     0.108 A 
HETATM   10  C   UNL     1      42.747 -14.629   4.962  1.00  0.00     0.102 A 
HETATM   11  C   UNL     1      43.549 -13.778   5.729  1.00  0.00     0.048 A 
BRANCH   9  12
HETATM   12  O   UNL     1      41.857 -16.810   4.574  1.00  0.00    -0.287 OA
BRANCH  12  13
HETATM   13  C   UNL     1      42.606 -17.644   3.704  1.00  0.00     0.505 C 
HETATM   14  F   UNL     1      43.826 -17.080   3.505  1.00  0.00    -0.184 F 
HETATM   15  F   UNL     1      42.828 -18.816   4.351  1.00  0.00    -0.184 F 
ENDBRANCH  12  13
ENDBRANCH   9  12
BRANCH  10  16
HETATM   16  O   UNL     1      42.025 -14.244   3.863  1.00  0.00    -0.353 OA
HETATM   17  C   UNL     1      42.762 -13.771   2.742  1.00  0.00     0.210 C 
ENDBRANCH  10  16
ENDBRANCH   5   6
ENDBRANCH   1   5
BRANCH   2  18
HETATM   18  C   UNL     1      43.784 -10.806  10.183  1.00  0.00     0.034 A 
HETATM   19  C   UNL     1      44.232 -10.461  11.468  1.00  0.00     0.051 A 
HETATM   20  C   UNL     1      43.325  -9.861  12.353  1.00  0.00     0.085 A 
HETATM   21  C   UNL     1      42.013  -9.638  11.948  1.00  0.00     0.062 A 
HETATM   22  N   UNL     1      43.520  -9.429  13.641  1.00  0.00    -0.242 NA
HETATM   23  N   UNL     1      41.419  -9.055  13.039  1.00  0.00    -0.349 N 
HETATM   24  C   UNL     1      41.530  -9.985  10.687  1.00  0.00     0.033 A 
HETATM   25  H   UNL     1      40.456  -8.758  13.103  1.00  0.00     0.167 HD
HETATM   26  C   UNL     1      42.359  -8.949  14.025  1.00  0.00     0.208 A 
HETATM   27  C   UNL     1      42.448 -10.579   9.811  1.00  0.00     0.019 A 
ENDBRANCH   2  18
TORSDOF 6
ENDMDL
MODEL 6
REMARK VINA RESULT:      -7.4      2.166      3.197
REMARK  6 active torsions:
REMARK  status: ('A' for Active; 'I' for Inactive)
REMARK    1  A    between atoms: O_2  and  C_3 
REMARK    2  A    between atoms: C_4  and  O_5 
REMARK    3  A    between atoms: O_5  and  C_6 
REMARK    4  A    between atoms: C_11  and  C_12 
REMARK    5  A    between atoms: C_12  and  N_13 
REMARK       I    between atoms: N_13  and  C_14 
REMARK    6  A    between atoms: C_14  and  C_15 
ROOT
HETATM    1  N   UNL     1      41.315 -16.641   2.356  1.00  0.00    -0.353 N 
HETATM    2  C   UNL     1      40.689 -15.569   1.757  1.00  0.00     0.252 C 
HETATM    3  O   UNL     1      40.534 -15.478   0.545  1.00  0.00    -0.268 OA
HETATM    4  H   UNL     1      41.618 -16.568   3.317  1.00  0.00     0.163 HD
ENDROOT
BRANCH   1   5
HETATM    5  C   UNL     1      41.897 -17.690   1.553  1.00  0.00     0.161 C 
BRANCH   5   6
HETATM    6  C   UNL     1      42.783 -18.567   2.397  1.00  0.00    -0.038 A 
HETATM    7  C   UNL     1      43.486 -19.632   1.820  1.00  0.00     0.012 A 
HETATM    8  C   UNL     1      44.344 -20.411   2.596  1.00  0.00     0.040 A 
HETATM    9  C   UNL     1      44.496 -20.135   3.956  1.00  0.00     0.108 A 
HETATM   10  C   UNL     1      43.826 -19.053   4.547  1.00  0.00     0.102 A 
HETATM   11  C   UNL     1      42.967 -18.279   3.762  1.00  0.00     0.048 A 
BRANCH   9  12
HETATM   12  O   UNL     1      45.376 -20.861   4.719  1.00  0.00    -0.287 OA
BRANCH  12  13
HETATM   13  C   UNL     1      44.845 -22.140   5.027  1.00  0.00     0.505 C 
HETATM   14  F   UNL     1      45.870 -22.967   5.362  1.00  0.00    -0.184 F 
HETATM   15  F   UNL     1      44.081 -22.009   6.141  1.00  0.00    -0.184 F 
ENDBRANCH  12  13
ENDBRANCH   9  12
BRANCH  10  16
HETATM   16  O   UNL     1      44.050 -18.862   5.885  1.00  0.00    -0.353 OA
HETATM   17  C   UNL     1      44.783 -17.699   6.255  1.00  0.00     0.210 C 
ENDBRANCH  10  16
ENDBRANCH   5   6
ENDBRANCH   1   5
BRANCH   2  18
HETATM   18  C   UNL     1      40.229 -14.473   2.658  1.00  0.00     0.034 A 
HETATM   19  C   UNL     1      40.344 -14.570   4.054  1.00  0.00     0.051 A 
HETATM   20  C   UNL     1      39.898 -13.495   4.836  1.00  0.00     0.085 A 
HETATM   21  C   UNL     1      39.342 -12.379   4.221  1.00  0.00     0.062 A 
HETATM   22  N   UNL     1      39.911 -13.346   6.201  1.00  0.00    -0.242 NA
HETATM   23  N   UNL     1      39.019 -11.546   5.262  1.00  0.00    -0.349 N 
HETATM   24  C   UNL     1      39.196 -12.258   2.839  1.00  0.00     0.033 A 
HETATM   25  H   UNL     1      38.589 -10.636   5.183  1.00  0.00     0.167 HD
HETATM   26  C   UNL     1      39.379 -12.166   6.425  1.00  0.00     0.208 A 
HETATM   27  C   UNL     1      39.651 -13.336   2.069  1.00  0.00     0.019 A 
ENDBRANCH   2  18
TORSDOF 6
ENDMDL
MODEL 7
REMARK VINA RESULT:      -7.4      7.111      9.945
REMARK  6 active torsions:
REMARK  status: ('A' for Active; 'I' for Inactive)
REMARK    1  A    between atoms: O_2  and  C_3 
REMARK    2  A    between atoms: C_4  and  O_5 
REMARK    3  A    between atoms: O_5  and  C_6 
REMARK    4  A    between atoms: C_11  and  C_12 
REMARK    5  A    between atoms: C_12  and  N_13 
REMARK       I    between atoms: N_13  and  C_14 
REMARK    6  A    between atoms: C_14  and  C_15 
ROOT
HETATM    1  N   UNL     1      44.382 -13.250   8.333  1.00  0.00    -0.353 N 
HETATM    2  C   UNL     1      44.847 -13.899   7.211  1.00  0.00     0.252 C 
HETATM    3  O   UNL     1      45.882 -13.581   6.636  1.00  0.00    -0.268 OA
HETATM    4  H   UNL     1      43.428 -13.395   8.634  1.00  0.00     0.163 HD
ENDROOT
BRANCH   1   5
HETATM    5  C   UNL     1      45.071 -12.089   8.846  1.00  0.00     0.161 C 
BRANCH   5   6
HETATM    6  C   UNL     1      44.232 -11.397   9.886  1.00  0.00    -0.038 A 
HETATM    7  C   UNL     1      44.772 -11.078  11.139  1.00  0.00     0.012 A 
HETATM    8  C   UNL     1      44.007 -10.393  12.081  1.00  0.00     0.040 A 
HETATM    9  C   UNL     1      42.692 -10.032  11.780  1.00  0.00     0.108 A 
HETATM   10  C   UNL     1      42.142 -10.314  10.521  1.00  0.00     0.102 A 
HETATM   11  C   UNL     1      42.916 -11.002   9.583  1.00  0.00     0.048 A 
BRANCH   9  12
HETATM   12  O   UNL     1      41.946  -9.313  12.680  1.00  0.00    -0.287 OA
BRANCH  12  13
HETATM   13  C   UNL     1      41.472 -10.145  13.726  1.00  0.00     0.505 C 
HETATM   14  F   UNL     1      41.237 -11.385  13.223  1.00  0.00    -0.184 F 
HETATM   15  F   UNL     1      42.478 -10.284  14.627  1.00  0.00    -0.184 F 
ENDBRANCH  12  13
ENDBRANCH   9  12
BRANCH  10  16
HETATM   16  O   UNL     1      40.848  -9.909  10.323  1.00  0.00    -0.353 OA
HETATM   17  C   UNL     1      39.884 -10.928  10.083  1.00  0.00     0.210 C 
ENDBRANCH  10  16
ENDBRANCH   5   6
ENDBRANCH   1   5
BRANCH   2  18
HETATM   18  C   UNL     1      44.004 -15.009   6.681  1.00  0.00     0.034 A 
HETATM   19  C   UNL     1      43.480 -14.978   5.379  1.00  0.00     0.051 A 
HETATM   20  C   UNL     1      42.702 -16.062   4.946  1.00  0.00     0.085 A 
HETATM   21  C   UNL     1      42.457 -17.122   5.812  1.00  0.00     0.062 A 
HETATM   22  N   UNL     1      42.095 -16.270   3.732  1.00  0.00    -0.242 NA
HETATM   23  N   UNL     1      41.678 -17.982   5.079  1.00  0.00    -0.349 N 
HETATM   24  C   UNL     1      42.945 -17.176   7.117  1.00  0.00     0.033 A 
HETATM   25  H   UNL     1      41.307 -18.866   5.397  1.00  0.00     0.167 HD
HETATM   26  C   UNL     1      41.490 -17.430   3.843  1.00  0.00     0.208 A 
HETATM   27  C   UNL     1      43.726 -16.090   7.534  1.00  0.00     0.019 A 
ENDBRANCH   2  18
TORSDOF 6
ENDMDL
MODEL 8
REMARK VINA RESULT:      -7.3      2.514      3.797
REMARK  6 active torsions:
REMARK  status: ('A' for Active; 'I' for Inactive)
REMARK    1  A    between atoms: O_2  and  C_3 
REMARK    2  A    between atoms: C_4  and  O_5 
REMARK    3  A    between atoms: O_5  and  C_6 
REMARK    4  A    between atoms: C_11  and  C_12 
REMARK    5  A    between atoms: C_12  and  N_13 
REMARK       I    between atoms: N_13  and  C_14 
REMARK    6  A    between atoms: C_14  and  C_15 
ROOT
HETATM    1  N   UNL     1      40.464 -16.554   1.482  1.00  0.00    -0.353 N 
HETATM    2  C   UNL     1      40.576 -15.344   0.834  1.00  0.00     0.252 C 
HETATM    3  O   UNL     1      41.274 -15.182  -0.161  1.00  0.00    -0.268 OA
HETATM    4  H   UNL     1      40.068 -16.587   2.412  1.00  0.00     0.163 HD
ENDROOT
BRANCH   1   5
HETATM    5  C   UNL     1      41.243 -17.691   1.051  1.00  0.00     0.161 C 
BRANCH   5   6
HETATM    6  C   UNL     1      42.162 -18.146   2.154  1.00  0.00    -0.038 A 
HETATM    7  C   UNL     1      42.058 -17.598   3.438  1.00  0.00     0.012 A 
HETATM    8  C   UNL     1      42.877 -18.057   4.468  1.00  0.00     0.040 A 
HETATM    9  C   UNL     1      43.814 -19.061   4.216  1.00  0.00     0.108 A 
HETATM   10  C   UNL     1      43.914 -19.646   2.945  1.00  0.00     0.102 A 
HETATM   11  C   UNL     1      43.089 -19.178   1.919  1.00  0.00     0.048 A 
BRANCH   9  12
HETATM   12  O   UNL     1      44.591 -19.558   5.233  1.00  0.00    -0.287 OA
BRANCH  12  13
HETATM   13  C   UNL     1      43.787 -20.071   6.283  1.00  0.00     0.505 C 
HETATM   14  F   UNL     1      44.085 -21.386   6.455  1.00  0.00    -0.184 F 
HETATM   15  F   UNL     1      44.157 -19.444   7.427  1.00  0.00    -0.184 F 
ENDBRANCH  12  13
ENDBRANCH   9  12
BRANCH  10  16
HETATM   16  O   UNL     1      44.857 -20.629   2.805  1.00  0.00    -0.353 OA
HETATM   17  C   UNL     1      44.416 -21.875   2.278  1.00  0.00     0.210 C 
ENDBRANCH  10  16
ENDBRANCH   5   6
ENDBRANCH   1   5
BRANCH   2  18
HETATM   18  C   UNL     1      39.831 -14.195   1.424  1.00  0.00     0.034 A 
HETATM   19  C   UNL     1      40.172 -13.661   2.676  1.00  0.00     0.051 A 
HETATM   20  C   UNL     1      39.431 -12.575   3.164  1.00  0.00     0.085 A 
HETATM   21  C   UNL     1      38.377 -12.068   2.412  1.00  0.00     0.062 A 
HETATM   22  N   UNL     1      39.573 -11.880   4.339  1.00  0.00    -0.242 NA
HETATM   23  N   UNL     1      37.884 -11.039   3.174  1.00  0.00    -0.349 N 
HETATM   24  C   UNL     1      37.999 -12.587   1.174  1.00  0.00     0.033 A 
HETATM   25  H   UNL     1      37.104 -10.444   2.935  1.00  0.00     0.167 HD
HETATM   26  C   UNL     1      38.632 -10.964   4.315  1.00  0.00     0.208 A 
HETATM   27  C   UNL     1      38.751 -13.668   0.696  1.00  0.00     0.019 A 
ENDBRANCH   2  18
TORSDOF 6
ENDMDL
MODEL 9
REMARK VINA RESULT:      -7.1      3.633      4.838
REMARK  6 active torsions:
REMARK  status: ('A' for Active; 'I' for Inactive)
REMARK    1  A    between atoms: O_2  and  C_3 
REMARK    2  A    between atoms: C_4  and  O_5 
REMARK    3  A    between atoms: O_5  and  C_6 
REMARK    4  A    between atoms: C_11  and  C_12 
REMARK    5  A    between atoms: C_12  and  N_13 
REMARK       I    between atoms: N_13  and  C_14 
REMARK    6  A    between atoms: C_14  and  C_15 
ROOT
HETATM    1  N   UNL     1      41.540 -15.575   2.967  1.00  0.00    -0.353 N 
HETATM    2  C   UNL     1      40.587 -15.278   2.017  1.00  0.00     0.252 C 
HETATM    3  O   UNL     1      39.418 -15.634   2.110  1.00  0.00    -0.268 OA
HETATM    4  H   UNL     1      42.519 -15.461   2.743  1.00  0.00     0.163 HD
ENDROOT
BRANCH   1   5
HETATM    5  C   UNL     1      41.209 -16.403   4.102  1.00  0.00     0.161 C 
BRANCH   5   6
HETATM    6  C   UNL     1      42.259 -17.463   4.302  1.00  0.00    -0.038 A 
HETATM    7  C   UNL     1      42.532 -18.394   3.292  1.00  0.00     0.012 A 
HETATM    8  C   UNL     1      43.539 -19.343   3.463  1.00  0.00     0.040 A 
HETATM    9  C   UNL     1      44.273 -19.372   4.650  1.00  0.00     0.108 A 
HETATM   10  C   UNL     1      44.037 -18.430   5.662  1.00  0.00     0.102 A 
HETATM   11  C   UNL     1      43.025 -17.484   5.482  1.00  0.00     0.048 A 
BRANCH   9  12
HETATM   12  O   UNL     1      45.301 -20.268   4.810  1.00  0.00    -0.287 OA
BRANCH  12  13
HETATM   13  C   UNL     1      44.803 -21.583   4.998  1.00  0.00     0.505 C 
HETATM   14  F   UNL     1      45.856 -22.426   5.165  1.00  0.00    -0.184 F 
HETATM   15  F   UNL     1      44.115 -21.598   6.167  1.00  0.00    -0.184 F 
ENDBRANCH  12  13
ENDBRANCH   9  12
BRANCH  10  16
HETATM   16  O   UNL     1      44.817 -18.539   6.783  1.00  0.00    -0.353 OA
HETATM   17  C   UNL     1      44.142 -18.713   8.024  1.00  0.00     0.210 C 
ENDBRANCH  10  16
ENDBRANCH   5   6
ENDBRANCH   1   5
BRANCH   2  18
HETATM   18  C   UNL     1      41.049 -14.522   0.817  1.00  0.00     0.034 A 
HETATM   19  C   UNL     1      40.867 -15.020  -0.482  1.00  0.00     0.051 A 
HETATM   20  C   UNL     1      41.320 -14.249  -1.563  1.00  0.00     0.085 A 
HETATM   21  C   UNL     1      41.946 -13.031  -1.324  1.00  0.00     0.062 A 
HETATM   22  N   UNL     1      41.251 -14.510  -2.909  1.00  0.00    -0.242 NA
HETATM   23  N   UNL     1      42.255 -12.561  -2.576  1.00  0.00    -0.349 N 
HETATM   24  C   UNL     1      42.159 -12.515  -0.046  1.00  0.00     0.033 A 
HETATM   25  H   UNL     1      42.724 -11.691  -2.785  1.00  0.00     0.167 HD
HETATM   26  C   UNL     1      41.819 -13.478  -3.490  1.00  0.00     0.208 A 
HETATM   27  C   UNL     1      41.697 -13.292   1.024  1.00  0.00     0.019 A 
ENDBRANCH   2  18
TORSDOF 6
ENDMDL
MODEL 10
REMARK VINA RESULT:      -7.0      2.489      3.567
REMARK  6 active torsions:
REMARK  status: ('A' for Active; 'I' for Inactive)
REMARK    1  A    between atoms: O_2  and  C_3 
REMARK    2  A    between atoms: C_4  and  O_5 
REMARK    3  A    between atoms: O_5  and  C_6 
REMARK    4  A    between atoms: C_11  and  C_12 
REMARK    5  A    between atoms: C_12  and  N_13 
REMARK       I    between atoms: N_13  and  C_14 
REMARK    6  A    between atoms: C_14  and  C_15 
ROOT
HETATM    1  N   UNL     1      40.680 -15.703   4.110  1.00  0.00    -0.353 N 
HETATM    2  C   UNL     1      41.118 -14.410   3.928  1.00  0.00     0.252 C 
HETATM    3  O   UNL     1      41.737 -14.048   2.933  1.00  0.00    -0.268 OA
HETATM    4  H   UNL     1      40.381 -16.003   5.028  1.00  0.00     0.163 HD
ENDROOT
BRANCH   1   5
HETATM    5  C   UNL     1      41.006 -16.729   3.148  1.00  0.00     0.161 C 
BRANCH   5   6
HETATM    6  C   UNL     1      42.024 -17.680   3.718  1.00  0.00    -0.038 A 
HETATM    7  C   UNL     1      42.804 -18.478   2.872  1.00  0.00     0.012 A 
HETATM    8  C   UNL     1      43.779 -19.321   3.402  1.00  0.00     0.040 A 
HETATM    9  C   UNL     1      43.973 -19.379   4.783  1.00  0.00     0.108 A 
HETATM   10  C   UNL     1      43.224 -18.566   5.647  1.00  0.00     0.102 A 
HETATM   11  C   UNL     1      42.248 -17.725   5.106  1.00  0.00     0.048 A 
BRANCH   9  12
HETATM   12  O   UNL     1      44.964 -20.167   5.314  1.00  0.00    -0.287 OA
BRANCH  12  13
HETATM   13  C   UNL     1      44.588 -21.535   5.297  1.00  0.00     0.505 C 
HETATM   14  F   UNL     1      45.715 -22.295   5.293  1.00  0.00    -0.184 F 
HETATM   15  F   UNL     1      43.954 -21.800   6.468  1.00  0.00    -0.184 F 
ENDBRANCH  12  13
ENDBRANCH   9  12
BRANCH  10  16
HETATM   16  O   UNL     1      43.498 -18.692   6.983  1.00  0.00    -0.353 OA
HETATM   17  C   UNL     1      43.116 -17.608   7.824  1.00  0.00     0.210 C 
ENDBRANCH  10  16
ENDBRANCH   5   6
ENDBRANCH   1   5
BRANCH   2  18
HETATM   18  C   UNL     1      40.842 -13.446   5.032  1.00  0.00     0.034 A 
HETATM   19  C   UNL     1      41.831 -12.571   5.510  1.00  0.00     0.051 A 
HETATM   20  C   UNL     1      41.496 -11.687   6.546  1.00  0.00     0.085 A 
HETATM   21  C   UNL     1      40.212 -11.708   7.081  1.00  0.00     0.062 A 
HETATM   22  N   UNL     1      42.271 -10.741   7.170  1.00  0.00    -0.242 NA
HETATM   23  N   UNL     1      40.237 -10.740   8.052  1.00  0.00    -0.349 N 
HETATM   24  C   UNL     1      39.213 -12.577   6.643  1.00  0.00     0.033 A 
HETATM   25  H   UNL     1      39.467 -10.481   8.653  1.00  0.00     0.167 HD
HETATM   26  C   UNL     1      41.487 -10.189   8.067  1.00  0.00     0.208 A 
HETATM   27  C   UNL     1      39.559 -13.450   5.604  1.00  0.00     0.019 A 
ENDBRANCH   2  18
TORSDOF 6
ENDMDL
