MODEL 1
REMARK VINA RESULT:      -8.6      0.000      0.000
REMARK  7 active torsions:
REMARK  status: ('A' for Active; 'I' for Inactive)
REMARK    1  A    between atoms: C_3  and  C_4 
REMARK    2  A    between atoms: C_9  and  N_10 
REMARK       I    between atoms: N_10  and  C_11 
REMARK       I    between atoms: C_11  and  N_15 
REMARK    3  A    between atoms: N_15  and  CA_16 
REMARK    4  A    between atoms: CA_16  and  C_17 
REMARK    5  A    between atoms: CA_16  and  CB_19 
REMARK    6  A    between atoms: C_17  and  O_18 
REMARK    7  A    between atoms: CB_19  and  CG_20 
ROOT
HETATM    1  N   UNK A   0      42.959 -17.095   1.207  1.00  0.00    -0.309 N 
HETATM    2  C   UNK A   0      42.139 -16.009   1.252  1.00  0.00     0.321 C 
HETATM    3  O   UNK A   0      42.051 -15.280   0.267  1.00  0.00    -0.247 OA
HETATM    4  H   UNK A   0      43.305 -17.235   0.265  1.00  0.00     0.170 HD
ATOM      5  N   TRP A   1      41.424 -15.808   2.388  1.00  0.00    -0.336 N 
ATOM      6  H   TRP A   1      41.097 -16.670   2.805  1.00  0.00     0.164 HD
ENDROOT
BRANCH   5   7
ATOM      7  CA  TRP A   1      40.446 -14.713   2.502  1.00  0.00     0.114 C 
BRANCH   7   8
ATOM      8  C   TRP A   1      39.090 -15.198   1.956  1.00  0.00     0.189 C 
BRANCH   8   9
ATOM      9  O   TRP A   1      38.947 -14.807   0.587  1.00  0.00    -0.399 OA
ATOM     10  H   TRP A   1      39.811 -14.456   0.309  1.00  0.00     0.209 HD
ENDBRANCH   8   9
ENDBRANCH   7   8
BRANCH   7  11
ATOM     11  CB  TRP A   1      40.338 -14.264   3.976  1.00  0.00     0.068 C 
BRANCH  11  12
ATOM     12  CG  TRP A   1      41.631 -14.316   4.747  1.00  0.00    -0.028 A 
ATOM     13  CD2 TRP A   1      42.060 -15.289   5.714  1.00  0.00    -0.002 A 
ATOM     14  CE2 TRP A   1      43.323 -14.902   6.166  1.00  0.00     0.042 A 
ATOM     15  CE3 TRP A   1      41.502 -16.470   6.247  1.00  0.00     0.014 A 
ATOM     16  CZ2 TRP A   1      44.053 -15.635   7.110  1.00  0.00     0.030 A 
ATOM     17  NE1 TRP A   1      43.645 -13.733   5.520  1.00  0.00    -0.365 N 
ATOM     18  CH2 TRP A   1      43.481 -16.808   7.607  1.00  0.00     0.002 A 
ATOM     19  CZ3 TRP A   1      42.222 -17.222   7.182  1.00  0.00     0.001 A 
ATOM     20  HE1 TRP A   1      44.502 -13.217   5.664  1.00  0.00     0.165 HD
ATOM     21  CD1 TRP A   1      42.640 -13.372   4.666  1.00  0.00     0.096 A 
ENDBRANCH  11  12
ENDBRANCH   7  11
ENDBRANCH   5   7
BRANCH   1  22
HETATM   22  C   UNK A   0      43.419 -17.998   2.183  1.00  0.00     0.036 A 
HETATM   23  C   UNK A   0      43.803 -17.646   3.475  1.00  0.00     0.030 A 
HETATM   24  C   UNK A   0      44.220 -18.627   4.386  1.00  0.00     0.018 A 
HETATM   25  C   UNK A   0      44.289 -19.975   4.006  1.00  0.00     0.015 A 
HETATM   26  C   UNK A   0      43.960 -20.340   2.688  1.00  0.00    -0.046 A 
HETATM   27  C   UNK A   0      44.033 -21.762   2.200  1.00  0.00     0.049 C 
HETATM   28  C   UNK A   0      43.523 -19.342   1.797  1.00  0.00     0.037 A 
BRANCH  25  29
HETATM   29  C   UNK A   0      44.694 -20.994   5.020  1.00  0.00     0.156 C 
HETATM   30  C   UNK A   0      43.945 -21.045   6.326  1.00  0.00     0.097 C 
HETATM   31  O   UNK A   0      45.596 -21.792   4.775  1.00  0.00    -0.293 OA
ENDBRANCH  25  29
ENDBRANCH   1  22
TORSDOF 7
ENDMDL
MODEL 2
REMARK VINA RESULT:      -8.5      5.082      8.687
REMARK  7 active torsions:
REMARK  status: ('A' for Active; 'I' for Inactive)
REMARK    1  A    between atoms: C_3  and  C_4 
REMARK    2  A    between atoms: C_9  and  N_10 
REMARK       I    between atoms: N_10  and  C_11 
REMARK       I    between atoms: C_11  and  N_15 
REMARK    3  A    between atoms: N_15  and  CA_16 
REMARK    4  A    between atoms: CA_16  and  C_17 
REMARK    5  A    between atoms: CA_16  and  CB_19 
REMARK    6  A    between atoms: C_17  and  O_18 
REMARK    7  A    between atoms: CB_19  and  CG_20 
ROOT
HETATM    1  N   UNK A   0      45.107 -12.617   8.341  1.00  0.00    -0.309 N 
HETATM    2  C   UNK A   0      44.873 -13.632   7.464  1.00  0.00     0.321 C 
HETATM    3  O   UNK A   0      45.490 -13.663   6.402  1.00  0.00    -0.247 OA
HETATM    4  H   UNK A   0      45.901 -12.066   8.036  1.00  0.00     0.170 HD
ATOM      5  N   TRP A   1      43.984 -14.589   7.833  1.00  0.00    -0.336 N 
ATOM      6  H   TRP A   1      44.032 -14.813   8.819  1.00  0.00     0.164 HD
ENDROOT
BRANCH   5   7
ATOM      7  CA  TRP A   1      43.728 -15.771   6.993  1.00  0.00     0.114 C 
BRANCH   7   8
ATOM      8  C   TRP A   1      43.395 -16.967   7.905  1.00  0.00     0.189 C 
BRANCH   8   9
ATOM      9  O   TRP A   1      43.563 -16.596   9.277  1.00  0.00    -0.399 OA
ATOM     10  H   TRP A   1      43.867 -15.672   9.278  1.00  0.00     0.209 HD
ENDBRANCH   8   9
ENDBRANCH   7   8
BRANCH   7  11
ATOM     11  CB  TRP A   1      42.578 -15.469   6.007  1.00  0.00     0.068 C 
BRANCH  11  12
ATOM     12  CG  TRP A   1      42.947 -15.595   4.552  1.00  0.00    -0.028 A 
ATOM     13  CD2 TRP A   1      43.251 -16.782   3.803  1.00  0.00    -0.002 A 
ATOM     14  CE2 TRP A   1      43.550 -16.389   2.497  1.00  0.00     0.042 A 
ATOM     15  CE3 TRP A   1      43.295 -18.161   4.103  1.00  0.00     0.014 A 
ATOM     16  CZ2 TRP A   1      43.880 -17.297   1.483  1.00  0.00     0.030 A 
ATOM     17  NE1 TRP A   1      43.454 -15.019   2.453  1.00  0.00    -0.365 N 
ATOM     18  CH2 TRP A   1      43.899 -18.656   1.807  1.00  0.00     0.002 A 
ATOM     19  CZ3 TRP A   1      43.611 -19.083   3.099  1.00  0.00     0.001 A 
ATOM     20  HE1 TRP A   1      43.631 -14.459   1.631  1.00  0.00     0.165 HD
ATOM     21  CD1 TRP A   1      43.092 -14.531   3.678  1.00  0.00     0.096 A 
ENDBRANCH  11  12
ENDBRANCH   7  11
ENDBRANCH   5   7
BRANCH   1  22
HETATM   22  C   UNK A   0      44.465 -12.193   9.519  1.00  0.00     0.036 A 
HETATM   23  C   UNK A   0      44.664 -12.752  10.780  1.00  0.00     0.030 A 
HETATM   24  C   UNK A   0      43.997 -12.238  11.900  1.00  0.00     0.018 A 
HETATM   25  C   UNK A   0      43.094 -11.174  11.770  1.00  0.00     0.015 A 
HETATM   26  C   UNK A   0      42.837 -10.635  10.497  1.00  0.00    -0.046 A 
HETATM   27  C   UNK A   0      41.863  -9.510  10.275  1.00  0.00     0.049 C 
HETATM   28  C   UNK A   0      43.534 -11.153   9.388  1.00  0.00     0.037 A 
BRANCH  25  29
HETATM   29  C   UNK A   0      42.439 -10.625  12.995  1.00  0.00     0.156 C 
HETATM   30  C   UNK A   0      43.139  -9.528  13.755  1.00  0.00     0.097 C 
HETATM   31  O   UNK A   0      41.339 -11.040  13.352  1.00  0.00    -0.293 OA
ENDBRANCH  25  29
ENDBRANCH   1  22
TORSDOF 7
ENDMDL
MODEL 3
REMARK VINA RESULT:      -7.7      2.235      4.698
REMARK  7 active torsions:
REMARK  status: ('A' for Active; 'I' for Inactive)
REMARK    1  A    between atoms: C_3  and  C_4 
REMARK    2  A    between atoms: C_9  and  N_10 
REMARK       I    between atoms: N_10  and  C_11 
REMARK       I    between atoms: C_11  and  N_15 
REMARK    3  A    between atoms: N_15  and  CA_16 
REMARK    4  A    between atoms: CA_16  and  C_17 
REMARK    5  A    between atoms: CA_16  and  CB_19 
REMARK    6  A    between atoms: C_17  and  O_18 
REMARK    7  A    between atoms: CB_19  and  CG_20 
ROOT
HETATM    1  N   UNK A   0      40.688 -15.537   6.591  1.00  0.00    -0.309 N 
HETATM    2  C   UNK A   0      40.368 -14.456   5.827  1.00  0.00     0.321 C 
HETATM    3  O   UNK A   0      39.509 -13.672   6.223  1.00  0.00    -0.247 OA
HETATM    4  H   UNK A   0      40.241 -15.469   7.498  1.00  0.00     0.170 HD
ATOM      5  N   TRP A   1      41.051 -14.283   4.667  1.00  0.00    -0.336 N 
ATOM      6  H   TRP A   1      42.027 -14.540   4.742  1.00  0.00     0.164 HD
ENDROOT
BRANCH   5   7
ATOM      7  CA  TRP A   1      40.839 -13.101   3.815  1.00  0.00     0.114 C 
BRANCH   7   8
ATOM      8  C   TRP A   1      42.038 -12.147   3.979  1.00  0.00     0.189 C 
BRANCH   8   9
ATOM      9  O   TRP A   1      43.253 -12.899   4.050  1.00  0.00    -0.399 OA
ATOM     10  H   TRP A   1      43.043 -13.794   3.730  1.00  0.00     0.209 HD
ENDBRANCH   8   9
ENDBRANCH   7   8
BRANCH   7  11
ATOM     11  CB  TRP A   1      40.661 -13.544   2.346  1.00  0.00     0.068 C 
BRANCH  11  12
ATOM     12  CG  TRP A   1      40.638 -15.035   2.136  1.00  0.00    -0.028 A 
ATOM     13  CD2 TRP A   1      41.745 -15.932   1.955  1.00  0.00    -0.002 A 
ATOM     14  CE2 TRP A   1      41.221 -17.215   1.781  1.00  0.00     0.042 A 
ATOM     15  CE3 TRP A   1      43.149 -15.784   1.928  1.00  0.00     0.014 A 
ATOM     16  CZ2 TRP A   1      42.023 -18.348   1.591  1.00  0.00     0.030 A 
ATOM     17  NE1 TRP A   1      39.853 -17.105   1.832  1.00  0.00    -0.365 N 
ATOM     18  CH2 TRP A   1      43.409 -18.171   1.587  1.00  0.00     0.002 A 
ATOM     19  CZ3 TRP A   1      43.965 -16.907   1.753  1.00  0.00     0.001 A 
ATOM     20  HE1 TRP A   1      39.212 -17.879   1.723  1.00  0.00     0.165 HD
ATOM     21  CD1 TRP A   1      39.491 -15.804   2.047  1.00  0.00     0.096 A 
ENDBRANCH  11  12
ENDBRANCH   7  11
ENDBRANCH   5   7
BRANCH   1  22
HETATM   22  C   UNK A   0      41.463 -16.688   6.359  1.00  0.00     0.036 A 
HETATM   23  C   UNK A   0      41.319 -17.537   5.263  1.00  0.00     0.030 A 
HETATM   24  C   UNK A   0      42.162 -18.645   5.107  1.00  0.00     0.018 A 
HETATM   25  C   UNK A   0      43.143 -18.940   6.063  1.00  0.00     0.015 A 
HETATM   26  C   UNK A   0      43.265 -18.128   7.204  1.00  0.00    -0.046 A 
HETATM   27  C   UNK A   0      44.276 -18.395   8.285  1.00  0.00     0.049 C 
HETATM   28  C   UNK A   0      42.422 -17.007   7.331  1.00  0.00     0.037 A 
BRANCH  25  29
HETATM   29  C   UNK A   0      44.051 -20.104   5.834  1.00  0.00     0.156 C 
HETATM   30  C   UNK A   0      45.090 -20.003   4.747  1.00  0.00     0.097 C 
HETATM   31  O   UNK A   0      43.970 -21.105   6.542  1.00  0.00    -0.293 OA
ENDBRANCH  25  29
ENDBRANCH   1  22
TORSDOF 7
ENDMDL
MODEL 4
REMARK VINA RESULT:      -7.7      1.376      2.353
REMARK  7 active torsions:
REMARK  status: ('A' for Active; 'I' for Inactive)
REMARK    1  A    between atoms: C_3  and  C_4 
REMARK    2  A    between atoms: C_9  and  N_10 
REMARK       I    between atoms: N_10  and  C_11 
REMARK       I    between atoms: C_11  and  N_15 
REMARK    3  A    between atoms: N_15  and  CA_16 
REMARK    4  A    between atoms: CA_16  and  C_17 
REMARK    5  A    between atoms: CA_16  and  CB_19 
REMARK    6  A    between atoms: C_17  and  O_18 
REMARK    7  A    between atoms: CB_19  and  CG_20 
ROOT
HETATM    1  N   UNK A   0      43.579 -15.846   2.056  1.00  0.00    -0.309 N 
HETATM    2  C   UNK A   0      42.618 -14.926   2.348  1.00  0.00     0.321 C 
HETATM    3  O   UNK A   0      42.804 -13.748   2.051  1.00  0.00    -0.247 OA
HETATM    4  H   UNK A   0      44.301 -15.428   1.480  1.00  0.00     0.170 HD
ATOM      5  N   TRP A   1      41.476 -15.373   2.928  1.00  0.00    -0.336 N 
ATOM      6  H   TRP A   1      41.180 -16.274   2.573  1.00  0.00     0.164 HD
ENDROOT
BRANCH   5   7
ATOM      7  CA  TRP A   1      40.345 -14.472   3.203  1.00  0.00     0.114 C 
BRANCH   7   8
ATOM      8  C   TRP A   1      39.193 -14.809   2.237  1.00  0.00     0.189 C 
BRANCH   8   9
ATOM      9  O   TRP A   1      39.217 -16.203   1.916  1.00  0.00    -0.399 OA
ATOM     10  H   TRP A   1      39.880 -16.312   1.212  1.00  0.00     0.209 HD
ENDBRANCH   8   9
ENDBRANCH   7   8
BRANCH   7  11
ATOM     11  CB  TRP A   1      39.911 -14.616   4.678  1.00  0.00     0.068 C 
BRANCH  11  12
ATOM     12  CG  TRP A   1      40.895 -15.346   5.555  1.00  0.00    -0.028 A 
ATOM     13  CD2 TRP A   1      42.207 -14.933   5.967  1.00  0.00    -0.002 A 
ATOM     14  CE2 TRP A   1      42.738 -15.953   6.760  1.00  0.00     0.042 A 
ATOM     15  CE3 TRP A   1      42.999 -13.784   5.752  1.00  0.00     0.014 A 
ATOM     16  CZ2 TRP A   1      44.007 -15.879   7.350  1.00  0.00     0.030 A 
ATOM     17  NE1 TRP A   1      41.801 -16.955   6.813  1.00  0.00    -0.365 N 
ATOM     18  CH2 TRP A   1      44.759 -14.723   7.132  1.00  0.00     0.002 A 
ATOM     19  CZ3 TRP A   1      44.264 -13.689   6.344  1.00  0.00     0.001 A 
ATOM     20  HE1 TRP A   1      41.923 -17.826   7.310  1.00  0.00     0.165 HD
ATOM     21  CD1 TRP A   1      40.690 -16.603   6.096  1.00  0.00     0.096 A 
ENDBRANCH  11  12
ENDBRANCH   7  11
ENDBRANCH   5   7
BRANCH   1  22
HETATM   22  C   UNK A   0      43.762 -17.196   2.410  1.00  0.00     0.036 A 
HETATM   23  C   UNK A   0      43.635 -18.273   1.535  1.00  0.00     0.030 A 
HETATM   24  C   UNK A   0      43.867 -19.582   1.979  1.00  0.00     0.018 A 
HETATM   25  C   UNK A   0      44.199 -19.836   3.317  1.00  0.00     0.015 A 
HETATM   26  C   UNK A   0      44.275 -18.767   4.227  1.00  0.00    -0.046 A 
HETATM   27  C   UNK A   0      44.602 -18.964   5.683  1.00  0.00     0.049 C 
HETATM   28  C   UNK A   0      44.059 -17.458   3.755  1.00  0.00     0.037 A 
BRANCH  25  29
HETATM   29  C   UNK A   0      44.484 -21.241   3.738  1.00  0.00     0.156 C 
HETATM   30  C   UNK A   0      44.460 -22.324   2.692  1.00  0.00     0.097 C 
HETATM   31  O   UNK A   0      44.762 -21.495   4.908  1.00  0.00    -0.293 OA
ENDBRANCH  25  29
ENDBRANCH   1  22
TORSDOF 7
ENDMDL
MODEL 5
REMARK VINA RESULT:      -7.7      2.403      7.069
REMARK  7 active torsions:
REMARK  status: ('A' for Active; 'I' for Inactive)
REMARK    1  A    between atoms: C_3  and  C_4 
REMARK    2  A    between atoms: C_9  and  N_10 
REMARK       I    between atoms: N_10  and  C_11 
REMARK       I    between atoms: C_11  and  N_15 
REMARK    3  A    between atoms: N_15  and  CA_16 
REMARK    4  A    between atoms: CA_16  and  C_17 
REMARK    5  A    between atoms: CA_16  and  CB_19 
REMARK    6  A    between atoms: C_17  and  O_18 
REMARK    7  A    between atoms: CB_19  and  CG_20 
ROOT
HETATM    1  N   UNK A   0      43.125 -13.792   6.420  1.00  0.00    -0.309 N 
HETATM    2  C   UNK A   0      43.895 -14.783   6.948  1.00  0.00     0.321 C 
HETATM    3  O   UNK A   0      44.843 -14.486   7.672  1.00  0.00    -0.247 OA
HETATM    4  H   UNK A   0      43.375 -12.898   6.827  1.00  0.00     0.170 HD
ATOM      5  N   TRP A   1      43.548 -16.065   6.671  1.00  0.00    -0.336 N 
ATOM      6  H   TRP A   1      42.546 -16.204   6.643  1.00  0.00     0.164 HD
ENDROOT
BRANCH   5   7
ATOM      7  CA  TRP A   1      44.264 -17.205   7.264  1.00  0.00     0.114 C 
BRANCH   7   8
ATOM      8  C   TRP A   1      43.243 -18.302   7.623  1.00  0.00     0.189 C 
BRANCH   8   9
ATOM      9  O   TRP A   1      43.856 -19.281   8.468  1.00  0.00    -0.399 OA
ATOM     10  H   TRP A   1      44.533 -18.813   8.988  1.00  0.00     0.209 HD
ENDBRANCH   8   9
ENDBRANCH   7   8
BRANCH   7  11
ATOM     11  CB  TRP A   1      45.330 -17.723   6.274  1.00  0.00     0.068 C 
BRANCH  11  12
ATOM     12  CG  TRP A   1      44.788 -18.566   5.149  1.00  0.00    -0.028 A 
ATOM     13  CD2 TRP A   1      43.975 -18.160   4.036  1.00  0.00    -0.002 A 
ATOM     14  CE2 TRP A   1      43.712 -19.300   3.273  1.00  0.00     0.042 A 
ATOM     15  CE3 TRP A   1      43.440 -16.932   3.594  1.00  0.00     0.014 A 
ATOM     16  CZ2 TRP A   1      42.953 -19.270   2.095  1.00  0.00     0.030 A 
ATOM     17  NE1 TRP A   1      44.319 -20.359   3.901  1.00  0.00    -0.365 N 
ATOM     18  CH2 TRP A   1      42.452 -18.037   1.675  1.00  0.00     0.002 A 
ATOM     19  CZ3 TRP A   1      42.690 -16.882   2.413  1.00  0.00     0.001 A 
ATOM     20  HE1 TRP A   1      44.283 -21.315   3.575  1.00  0.00     0.165 HD
ATOM     21  CD1 TRP A   1      44.969 -19.932   5.027  1.00  0.00     0.096 A 
ENDBRANCH  11  12
ENDBRANCH   7  11
ENDBRANCH   5   7
BRANCH   1  22
HETATM   22  C   UNK A   0      42.116 -13.773   5.439  1.00  0.00     0.036 A 
HETATM   23  C   UNK A   0      40.788 -14.135   5.656  1.00  0.00     0.030 A 
HETATM   24  C   UNK A   0      39.850 -14.054   4.619  1.00  0.00     0.018 A 
HETATM   25  C   UNK A   0      40.233 -13.639   3.336  1.00  0.00     0.015 A 
HETATM   26  C   UNK A   0      41.581 -13.325   3.084  1.00  0.00    -0.046 A 
HETATM   27  C   UNK A   0      42.073 -12.897   1.728  1.00  0.00     0.049 C 
HETATM   28  C   UNK A   0      42.503 -13.393   4.146  1.00  0.00     0.037 A 
BRANCH  25  29
HETATM   29  C   UNK A   0      39.193 -13.522   2.270  1.00  0.00     0.156 C 
HETATM   30  C   UNK A   0      38.845 -14.749   1.468  1.00  0.00     0.097 C 
HETATM   31  O   UNK A   0      38.615 -12.455   2.079  1.00  0.00    -0.293 OA
ENDBRANCH  25  29
ENDBRANCH   1  22
TORSDOF 7
ENDMDL
MODEL 6
REMARK VINA RESULT:      -7.6      2.126      3.098
REMARK  7 active torsions:
REMARK  status: ('A' for Active; 'I' for Inactive)
REMARK    1  A    between atoms: C_3  and  C_4 
REMARK    2  A    between atoms: C_9  and  N_10 
REMARK       I    between atoms: N_10  and  C_11 
REMARK       I    between atoms: C_11  and  N_15 
REMARK    3  A    between atoms: N_15  and  CA_16 
REMARK    4  A    between atoms: CA_16  and  C_17 
REMARK    5  A    between atoms: CA_16  and  CB_19 
REMARK    6  A    between atoms: C_17  and  O_18 
REMARK    7  A    between atoms: CB_19  and  CG_20 
ROOT
HETATM    1  N   UNK A   0      41.795 -16.370  -0.111  1.00  0.00    -0.309 N 
HETATM    2  C   UNK A   0      41.034 -15.268  -0.358  1.00  0.00     0.321 C 
HETATM    3  O   UNK A   0      40.787 -14.957  -1.521  1.00  0.00    -0.247 OA
HETATM    4  H   UNK A   0      41.952 -16.887  -0.968  1.00  0.00     0.170 HD
ATOM      5  N   TRP A   1      40.553 -14.584   0.710  1.00  0.00    -0.336 N 
ATOM      6  H   TRP A   1      40.281 -15.188   1.475  1.00  0.00     0.164 HD
ENDROOT
BRANCH   5   7
ATOM      7  CA  TRP A   1      39.651 -13.432   0.548  1.00  0.00     0.114 C 
BRANCH   7   8
ATOM      8  C   TRP A   1      38.196 -13.911   0.717  1.00  0.00     0.189 C 
BRANCH   8   9
ATOM      9  O   TRP A   1      37.707 -14.429  -0.523  1.00  0.00    -0.399 OA
ATOM     10  H   TRP A   1      38.223 -15.233  -0.710  1.00  0.00     0.209 HD
ENDBRANCH   8   9
ENDBRANCH   7   8
BRANCH   7  11
ATOM     11  CB  TRP A   1      40.013 -12.338   1.577  1.00  0.00     0.068 C 
BRANCH  11  12
ATOM     12  CG  TRP A   1      40.337 -12.853   2.955  1.00  0.00    -0.028 A 
ATOM     13  CD2 TRP A   1      41.586 -13.359   3.452  1.00  0.00    -0.002 A 
ATOM     14  CE2 TRP A   1      41.387 -13.732   4.784  1.00  0.00     0.042 A 
ATOM     15  CE3 TRP A   1      42.875 -13.532   2.905  1.00  0.00     0.014 A 
ATOM     16  CZ2 TRP A   1      42.406 -14.256   5.590  1.00  0.00     0.030 A 
ATOM     17  NE1 TRP A   1      40.069 -13.484   5.082  1.00  0.00    -0.365 N 
ATOM     18  CH2 TRP A   1      43.675 -14.399   5.024  1.00  0.00     0.002 A 
ATOM     19  CZ3 TRP A   1      43.908 -14.043   3.699  1.00  0.00     0.001 A 
ATOM     20  HE1 TRP A   1      39.641 -13.671   5.978  1.00  0.00     0.165 HD
ATOM     21  CD1 TRP A   1      39.429 -12.956   3.995  1.00  0.00     0.096 A 
ENDBRANCH  11  12
ENDBRANCH   7  11
ENDBRANCH   5   7
BRANCH   1  22
HETATM   22  C   UNK A   0      42.399 -16.884   1.051  1.00  0.00     0.036 A 
HETATM   23  C   UNK A   0      43.718 -17.325   1.134  1.00  0.00     0.030 A 
HETATM   24  C   UNK A   0      44.237 -17.795   2.348  1.00  0.00     0.018 A 
HETATM   25  C   UNK A   0      43.432 -17.861   3.493  1.00  0.00     0.015 A 
HETATM   26  C   UNK A   0      42.082 -17.475   3.414  1.00  0.00    -0.046 A 
HETATM   27  C   UNK A   0      41.149 -17.541   4.593  1.00  0.00     0.049 C 
HETATM   28  C   UNK A   0      41.587 -16.986   2.189  1.00  0.00     0.037 A 
BRANCH  25  29
HETATM   29  C   UNK A   0      44.036 -18.324   4.779  1.00  0.00     0.156 C 
HETATM   30  C   UNK A   0      44.394 -19.781   4.921  1.00  0.00     0.097 C 
HETATM   31  O   UNK A   0      44.263 -17.524   5.683  1.00  0.00    -0.293 OA
ENDBRANCH  25  29
ENDBRANCH   1  22
TORSDOF 7
ENDMDL
MODEL 7
REMARK VINA RESULT:      -7.4      4.788      8.445
REMARK  7 active torsions:
REMARK  status: ('A' for Active; 'I' for Inactive)
REMARK    1  A    between atoms: C_3  and  C_4 
REMARK    2  A    between atoms: C_9  and  N_10 
REMARK       I    between atoms: N_10  and  C_11 
REMARK       I    between atoms: C_11  and  N_15 
REMARK    3  A    between atoms: N_15  and  CA_16 
REMARK    4  A    between atoms: CA_16  and  C_17 
REMARK    5  A    between atoms: CA_16  and  CB_19 
REMARK    6  A    between atoms: C_17  and  O_18 
REMARK    7  A    between atoms: CB_19  and  CG_20 
ROOT
HETATM    1  N   UNK A   0      41.563 -11.431   6.215  1.00  0.00    -0.309 N 
HETATM    2  C   UNK A   0      42.057 -12.538   5.593  1.00  0.00     0.321 C 
HETATM    3  O   UNK A   0      42.173 -12.538   4.370  1.00  0.00    -0.247 OA
HETATM    4  H   UNK A   0      41.478 -10.667   5.555  1.00  0.00     0.170 HD
ATOM      5  N   TRP A   1      42.434 -13.582   6.374  1.00  0.00    -0.336 N 
ATOM      6  H   TRP A   1      42.867 -13.289   7.241  1.00  0.00     0.164 HD
ENDROOT
BRANCH   5   7
ATOM      7  CA  TRP A   1      43.059 -14.787   5.804  1.00  0.00     0.114 C 
BRANCH   7   8
ATOM      8  C   TRP A   1      44.261 -15.187   6.681  1.00  0.00     0.189 C 
BRANCH   8   9
ATOM      9  O   TRP A   1      44.115 -14.630   7.991  1.00  0.00    -0.399 OA
ATOM     10  H   TRP A   1      44.712 -15.132   8.572  1.00  0.00     0.209 HD
ENDBRANCH   8   9
ENDBRANCH   7   8
BRANCH   7  11
ATOM     11  CB  TRP A   1      42.016 -15.922   5.716  1.00  0.00     0.068 C 
BRANCH  11  12
ATOM     12  CG  TRP A   1      42.034 -16.696   4.424  1.00  0.00    -0.028 A 
ATOM     13  CD2 TRP A   1      42.848 -17.824   4.066  1.00  0.00    -0.002 A 
ATOM     14  CE2 TRP A   1      42.516 -18.182   2.757  1.00  0.00     0.042 A 
ATOM     15  CE3 TRP A   1      43.834 -18.587   4.728  1.00  0.00     0.014 A 
ATOM     16  CZ2 TRP A   1      43.109 -19.259   2.087  1.00  0.00     0.030 A 
ATOM     17  NE1 TRP A   1      41.556 -17.299   2.326  1.00  0.00    -0.365 N 
ATOM     18  CH2 TRP A   1      44.069 -20.005   2.775  1.00  0.00     0.002 A 
ATOM     19  CZ3 TRP A   1      44.428 -19.674   4.078  1.00  0.00     0.001 A 
ATOM     20  HE1 TRP A   1      41.138 -17.312   1.406  1.00  0.00     0.165 HD
ATOM     21  CD1 TRP A   1      41.257 -16.404   3.316  1.00  0.00     0.096 A 
ENDBRANCH  11  12
ENDBRANCH   7  11
ENDBRANCH   5   7
BRANCH   1  22
HETATM   22  C   UNK A   0      41.143 -11.172   7.533  1.00  0.00     0.036 A 
HETATM   23  C   UNK A   0      39.829 -11.279   7.985  1.00  0.00     0.030 A 
HETATM   24  C   UNK A   0      39.516 -11.026   9.327  1.00  0.00     0.018 A 
HETATM   25  C   UNK A   0      40.509 -10.630  10.233  1.00  0.00     0.015 A 
HETATM   26  C   UNK A   0      41.831 -10.461   9.781  1.00  0.00    -0.046 A 
HETATM   27  C   UNK A   0      42.946 -10.015  10.687  1.00  0.00     0.049 C 
HETATM   28  C   UNK A   0      42.127 -10.741   8.434  1.00  0.00     0.037 A 
BRANCH  25  29
HETATM   29  C   UNK A   0      40.142 -10.416  11.665  1.00  0.00     0.156 C 
HETATM   30  C   UNK A   0      40.259 -11.576  12.619  1.00  0.00     0.097 C 
HETATM   31  O   UNK A   0      39.784  -9.307  12.056  1.00  0.00    -0.293 OA
ENDBRANCH  25  29
ENDBRANCH   1  22
TORSDOF 7
ENDMDL
MODEL 8
REMARK VINA RESULT:      -7.4      2.175      5.722
REMARK  7 active torsions:
REMARK  status: ('A' for Active; 'I' for Inactive)
REMARK    1  A    between atoms: C_3  and  C_4 
REMARK    2  A    between atoms: C_9  and  N_10 
REMARK       I    between atoms: N_10  and  C_11 
REMARK       I    between atoms: C_11  and  N_15 
REMARK    3  A    between atoms: N_15  and  CA_16 
REMARK    4  A    between atoms: CA_16  and  C_17 
REMARK    5  A    between atoms: CA_16  and  CB_19 
REMARK    6  A    between atoms: C_17  and  O_18 
REMARK    7  A    between atoms: CB_19  and  CG_20 
ROOT
HETATM    1  N   UNK A   0      40.630 -15.443   3.998  1.00  0.00    -0.309 N 
HETATM    2  C   UNK A   0      40.649 -16.215   2.876  1.00  0.00     0.321 C 
HETATM    3  O   UNK A   0      39.605 -16.729   2.482  1.00  0.00    -0.247 OA
HETATM    4  H   UNK A   0      39.675 -15.281   4.296  1.00  0.00     0.170 HD
ATOM      5  N   TRP A   1      41.832 -16.348   2.225  1.00  0.00    -0.336 N 
ATOM      6  H   TRP A   1      42.381 -15.497   2.227  1.00  0.00     0.164 HD
ENDROOT
BRANCH   5   7
ATOM      7  CA  TRP A   1      41.937 -17.089   0.957  1.00  0.00     0.114 C 
BRANCH   7   8
ATOM      8  C   TRP A   1      41.720 -16.110  -0.212  1.00  0.00     0.189 C 
BRANCH   8   9
ATOM      9  O   TRP A   1      40.338 -15.752  -0.299  1.00  0.00    -0.399 OA
ATOM     10  H   TRP A   1      40.096 -15.810  -1.239  1.00  0.00     0.209 HD
ENDBRANCH   8   9
ENDBRANCH   7   8
BRANCH   7  11
ATOM     11  CB  TRP A   1      43.315 -17.781   0.871  1.00  0.00     0.068 C 
BRANCH  11  12
ATOM     12  CG  TRP A   1      43.768 -18.443   2.146  1.00  0.00    -0.028 A 
ATOM     13  CD2 TRP A   1      43.994 -19.838   2.401  1.00  0.00    -0.002 A 
ATOM     14  CE2 TRP A   1      44.388 -19.962   3.735  1.00  0.00     0.042 A 
ATOM     15  CE3 TRP A   1      43.912 -21.015   1.625  1.00  0.00     0.014 A 
ATOM     16  CZ2 TRP A   1      44.708 -21.193   4.325  1.00  0.00     0.030 A 
ATOM     17  NE1 TRP A   1      44.383 -18.701   4.279  1.00  0.00    -0.365 N 
ATOM     18  CH2 TRP A   1      44.632 -22.336   3.527  1.00  0.00     0.002 A 
ATOM     19  CZ3 TRP A   1      44.239 -22.250   2.195  1.00  0.00     0.001 A 
ATOM     20  HE1 TRP A   1      44.615 -18.492   5.240  1.00  0.00     0.165 HD
ATOM     21  CD1 TRP A   1      44.014 -17.781   3.337  1.00  0.00     0.096 A 
ENDBRANCH  11  12
ENDBRANCH   7  11
ENDBRANCH   5   7
BRANCH   1  22
HETATM   22  C   UNK A   0      41.641 -14.879   4.798  1.00  0.00     0.036 A 
HETATM   23  C   UNK A   0      42.002 -13.533   4.794  1.00  0.00     0.030 A 
HETATM   24  C   UNK A   0      43.005 -13.063   5.652  1.00  0.00     0.018 A 
HETATM   25  C   UNK A   0      43.687 -13.940   6.507  1.00  0.00     0.015 A 
HETATM   26  C   UNK A   0      43.376 -15.311   6.483  1.00  0.00    -0.046 A 
HETATM   27  C   UNK A   0      44.081 -16.317   7.352  1.00  0.00     0.049 C 
HETATM   28  C   UNK A   0      42.350 -15.759   5.628  1.00  0.00     0.037 A 
BRANCH  25  29
HETATM   29  C   UNK A   0      44.717 -13.390   7.439  1.00  0.00     0.156 C 
HETATM   30  C   UNK A   0      44.267 -12.859   8.775  1.00  0.00     0.097 C 
HETATM   31  O   UNK A   0      45.906 -13.404   7.130  1.00  0.00    -0.293 OA
ENDBRANCH  25  29
ENDBRANCH   1  22
TORSDOF 7
ENDMDL
MODEL 9
REMARK VINA RESULT:      -7.4      2.737      7.202
REMARK  7 active torsions:
REMARK  status: ('A' for Active; 'I' for Inactive)
REMARK    1  A    between atoms: C_3  and  C_4 
REMARK    2  A    between atoms: C_9  and  N_10 
REMARK       I    between atoms: N_10  and  C_11 
REMARK       I    between atoms: C_11  and  N_15 
REMARK    3  A    between atoms: N_15  and  CA_16 
REMARK    4  A    between atoms: CA_16  and  C_17 
REMARK    5  A    between atoms: CA_16  and  CB_19 
REMARK    6  A    between atoms: C_17  and  O_18 
REMARK    7  A    between atoms: CB_19  and  CG_20 
ROOT
HETATM    1  N   UNK A   0      39.591 -15.243   2.900  1.00  0.00    -0.309 N 
HETATM    2  C   UNK A   0      40.413 -16.269   2.547  1.00  0.00     0.321 C 
HETATM    3  O   UNK A   0      39.991 -17.147   1.797  1.00  0.00    -0.247 OA
HETATM    4  H   UNK A   0      38.736 -15.276   2.357  1.00  0.00     0.170 HD
ATOM      5  N   TRP A   1      41.684 -16.249   3.022  1.00  0.00    -0.336 N 
ATOM      6  H   TRP A   1      42.076 -15.317   3.059  1.00  0.00     0.164 HD
ENDROOT
BRANCH   5   7
ATOM      7  CA  TRP A   1      42.673 -17.266   2.629  1.00  0.00     0.114 C 
BRANCH   7   8
ATOM      8  C   TRP A   1      43.112 -16.998   1.176  1.00  0.00     0.189 C 
BRANCH   8   9
ATOM      9  O   TRP A   1      44.533 -17.120   1.066  1.00  0.00    -0.399 OA
ATOM     10  H   TRP A   1      44.833 -16.373   0.519  1.00  0.00     0.209 HD
ENDBRANCH   8   9
ENDBRANCH   7   8
BRANCH   7  11
ATOM     11  CB  TRP A   1      43.872 -17.231   3.601  1.00  0.00     0.068 C 
BRANCH  11  12
ATOM     12  CG  TRP A   1      44.150 -18.532   4.306  1.00  0.00    -0.028 A 
ATOM     13  CD2 TRP A   1      44.274 -19.848   3.743  1.00  0.00    -0.002 A 
ATOM     14  CE2 TRP A   1      44.515 -20.734   4.796  1.00  0.00     0.042 A 
ATOM     15  CE3 TRP A   1      44.213 -20.378   2.436  1.00  0.00     0.014 A 
ATOM     16  CZ2 TRP A   1      44.705 -22.109   4.608  1.00  0.00     0.030 A 
ATOM     17  NE1 TRP A   1      44.518 -19.996   5.954  1.00  0.00    -0.365 N 
ATOM     18  CH2 TRP A   1      44.655 -22.600   3.302  1.00  0.00     0.002 A 
ATOM     19  CZ3 TRP A   1      44.412 -21.748   2.229  1.00  0.00     0.001 A 
ATOM     20  HE1 TRP A   1      44.657 -20.381   6.878  1.00  0.00     0.165 HD
ATOM     21  CD1 TRP A   1      44.302 -18.674   5.674  1.00  0.00     0.096 A 
ENDBRANCH  11  12
ENDBRANCH   7  11
ENDBRANCH   5   7
BRANCH   1  22
HETATM   22  C   UNK A   0      39.690 -14.211   3.851  1.00  0.00     0.036 A 
HETATM   23  C   UNK A   0      39.845 -14.404   5.222  1.00  0.00     0.030 A 
HETATM   24  C   UNK A   0      39.963 -13.308   6.087  1.00  0.00     0.018 A 
HETATM   25  C   UNK A   0      39.896 -11.997   5.595  1.00  0.00     0.015 A 
HETATM   26  C   UNK A   0      39.683 -11.783   4.222  1.00  0.00    -0.046 A 
HETATM   27  C   UNK A   0      39.574 -10.406   3.624  1.00  0.00     0.049 C 
HETATM   28  C   UNK A   0      39.588 -12.898   3.368  1.00  0.00     0.037 A 
BRANCH  25  29
HETATM   29  C   UNK A   0      40.074 -10.857   6.544  1.00  0.00     0.156 C 
HETATM   30  C   UNK A   0      41.469 -10.357   6.814  1.00  0.00     0.097 C 
HETATM   31  O   UNK A   0      39.097 -10.321   7.063  1.00  0.00    -0.293 OA
ENDBRANCH  25  29
ENDBRANCH   1  22
TORSDOF 7
ENDMDL
MODEL 10
REMARK VINA RESULT:      -7.3      3.230      7.283
REMARK  7 active torsions:
REMARK  status: ('A' for Active; 'I' for Inactive)
REMARK    1  A    between atoms: C_3  and  C_4 
REMARK    2  A    between atoms: C_9  and  N_10 
REMARK       I    between atoms: N_10  and  C_11 
REMARK       I    between atoms: C_11  and  N_15 
REMARK    3  A    between atoms: N_15  and  CA_16 
REMARK    4  A    between atoms: CA_16  and  C_17 
REMARK    5  A    between atoms: CA_16  and  CB_19 
REMARK    6  A    between atoms: C_17  and  O_18 
REMARK    7  A    between atoms: CB_19  and  CG_20 
ROOT
HETATM    1  N   UNK A   0      39.901 -13.683   2.418  1.00  0.00    -0.309 N 
HETATM    2  C   UNK A   0      40.557 -14.411   3.363  1.00  0.00     0.321 C 
HETATM    3  O   UNK A   0      40.382 -14.150   4.551  1.00  0.00    -0.247 OA
HETATM    4  H   UNK A   0      39.216 -13.076   2.854  1.00  0.00     0.170 HD
ATOM      5  N   TRP A   1      41.353 -15.424   2.937  1.00  0.00    -0.336 N 
ATOM      6  H   TRP A   1      40.972 -15.914   2.138  1.00  0.00     0.164 HD
ENDROOT
BRANCH   5   7
ATOM      7  CA  TRP A   1      42.035 -16.322   3.883  1.00  0.00     0.114 C 
BRANCH   7   8
ATOM      8  C   TRP A   1      41.106 -17.511   4.198  1.00  0.00     0.189 C 
BRANCH   8   9
ATOM      9  O   TRP A   1      40.506 -17.333   5.484  1.00  0.00    -0.399 OA
ATOM     10  H   TRP A   1      41.227 -17.384   6.135  1.00  0.00     0.209 HD
ENDBRANCH   8   9
ENDBRANCH   7   8
BRANCH   7  11
ATOM     11  CB  TRP A   1      43.376 -16.792   3.280  1.00  0.00     0.068 C 
BRANCH  11  12
ATOM     12  CG  TRP A   1      43.924 -18.062   3.876  1.00  0.00    -0.028 A 
ATOM     13  CD2 TRP A   1      43.965 -19.378   3.302  1.00  0.00    -0.002 A 
ATOM     14  CE2 TRP A   1      44.550 -20.228   4.243  1.00  0.00     0.042 A 
ATOM     15  CE3 TRP A   1      43.568 -19.934   2.067  1.00  0.00     0.014 A 
ATOM     16  CZ2 TRP A   1      44.764 -21.593   4.009  1.00  0.00     0.030 A 
ATOM     17  NE1 TRP A   1      44.836 -19.471   5.352  1.00  0.00    -0.365 N 
ATOM     18  CH2 TRP A   1      44.376 -22.110   2.771  1.00  0.00     0.002 A 
ATOM     19  CZ3 TRP A   1      43.786 -21.293   1.811  1.00  0.00     0.001 A 
ATOM     20  HE1 TRP A   1      45.256 -19.831   6.198  1.00  0.00     0.165 HD
ATOM     21  CD1 TRP A   1      44.467 -18.170   5.145  1.00  0.00     0.096 A 
ENDBRANCH  11  12
ENDBRANCH   7  11
ENDBRANCH   5   7
BRANCH   1  22
HETATM   22  C   UNK A   0      40.010 -13.598   1.017  1.00  0.00     0.036 A 
HETATM   23  C   UNK A   0      39.066 -14.081   0.114  1.00  0.00     0.030 A 
HETATM   24  C   UNK A   0      39.254 -13.923  -1.265  1.00  0.00     0.018 A 
HETATM   25  C   UNK A   0      40.409 -13.304  -1.765  1.00  0.00     0.015 A 
HETATM   26  C   UNK A   0      41.399 -12.862  -0.870  1.00  0.00    -0.046 A 
HETATM   27  C   UNK A   0      42.676 -12.213  -1.332  1.00  0.00     0.049 C 
HETATM   28  C   UNK A   0      41.180 -13.013   0.512  1.00  0.00     0.037 A 
BRANCH  25  29
HETATM   29  C   UNK A   0      40.548 -13.113  -3.240  1.00  0.00     0.156 C 
HETATM   30  C   UNK A   0      40.069 -11.819  -3.845  1.00  0.00     0.097 C 
HETATM   31  O   UNK A   0      41.073 -13.981  -3.933  1.00  0.00    -0.293 OA
ENDBRANCH  25  29
ENDBRANCH   1  22
TORSDOF 7
ENDMDL
