MODEL 1
REMARK VINA RESULT:      -7.9      0.000      0.000
REMARK  6 active torsions:
REMARK  status: ('A' for Active; 'I' for Inactive)
REMARK    1  A    between atoms: C_9  and  C_10 
REMARK    2  A    between atoms: C_12  and  O_13 
REMARK    3  A    between atoms: C_15  and  O_16 
REMARK    4  A    between atoms: O_16  and  C_17 
REMARK    5  A    between atoms: C_17  and  C_18 
REMARK    6  A    between atoms: C_18  and  N_19 
ROOT
HETATM    1  H   UNL     1      41.453 -17.488   7.550  1.00  0.00     0.186 HD
HETATM    2  N   UNL     1      41.253 -16.607   7.053  1.00  0.00    -0.304 NA
HETATM    3  C   UNL     1      42.093 -16.267   6.126  1.00  0.00     0.062 C 
HETATM    4  C   UNL     1      41.855 -14.975   5.322  1.00  0.00     0.186 C 
HETATM    5  C   UNL     1      40.734 -14.184   5.867  1.00  0.00     0.091 C 
HETATM    6  N   UNL     1      39.846 -13.513   6.196  1.00  0.00    -0.195 NA
HETATM    7  C   UNL     1      43.095 -14.187   5.347  1.00  0.00     0.091 C 
HETATM    8  N   UNL     1      44.122 -13.651   5.270  1.00  0.00    -0.195 NA
HETATM    9  C   UNL     1      41.496 -15.458   3.866  1.00  0.00     0.071 C 
HETATM   10  C   UNL     1      42.612 -16.370   3.241  1.00  0.00     0.053 C 
HETATM   11  C   UNL     1      42.970 -17.522   4.200  1.00  0.00    -0.053 C 
HETATM   12  C   UNL     1      43.012 -18.793   3.738  1.00  0.00     0.005 C 
HETATM   13  C   UNL     1      43.274 -17.131   5.667  1.00  0.00     0.157 C 
HETATM   14  C   UNL     1      43.450 -18.356   6.551  1.00  0.00    -0.005 C 
HETATM   15  N   UNL     1      43.596 -19.372   7.284  1.00  0.00    -0.101 N 
HETATM   16  C   UNL     1      42.154 -16.873   1.836  1.00  0.00     0.244 C 
HETATM   17  N   UNL     1      42.938 -18.067   1.362  1.00  0.00    -0.071 N 
HETATM   18  H   UNL     1      42.497 -18.387   0.489  1.00  0.00     0.279 HD
HETATM   19  C   UNL     1      44.364 -17.769   0.989  1.00  0.00     0.270 C 
HETATM   20  C   UNL     1      42.802 -19.215   2.318  1.00  0.00     0.262 C 
ENDROOT
BRANCH   9  21
HETATM   21  C   UNL     1      41.017 -14.354   2.912  1.00  0.00    -0.047 A 
HETATM   22  C   UNL     1      39.669 -14.128   2.602  1.00  0.00     0.047 A 
HETATM   23  C   UNL     1      39.310 -13.189   1.618  1.00  0.00     0.102 A 
HETATM   24  C   UNL     1      40.274 -12.387   0.991  1.00  0.00     0.102 A 
HETATM   25  C   UNL     1      41.608 -12.555   1.352  1.00  0.00     0.040 A 
HETATM   26  C   UNL     1      41.976 -13.541   2.279  1.00  0.00     0.010 A 
BRANCH  23  27
HETATM   27  O   UNL     1      37.992 -13.000   1.269  1.00  0.00    -0.353 OA
HETATM   28  C   UNL     1      37.401 -14.184   0.724  1.00  0.00     0.210 C 
ENDBRANCH  23  27
BRANCH  24  29
HETATM   29  O   UNL     1      39.810 -11.510   0.044  1.00  0.00    -0.347 OA
BRANCH  29  30
HETATM   30  C   UNL     1      40.184 -11.738  -1.318  1.00  0.00     0.203 C 
BRANCH  30  31
HETATM   31  C   UNL     1      38.962 -12.288  -2.068  1.00  0.00     0.261 C 
BRANCH  31  32
HETATM   32  N   UNL     1      39.124 -13.752  -2.430  1.00  0.00    -0.065 N 
HETATM   33  H   UNL     1      38.869 -14.284  -1.581  1.00  0.00     0.280 HD
HETATM   34  C   UNL     1      38.208 -14.215  -3.556  1.00  0.00     0.261 C 
HETATM   35  C   UNL     1      38.474 -15.692  -3.872  1.00  0.00     0.195 C 
HETATM   36  O   UNL     1      39.846 -15.901  -4.216  1.00  0.00    -0.388 OA
HETATM   37  C   UNL     1      40.719 -15.556  -3.136  1.00  0.00     0.195 C 
HETATM   38  C   UNL     1      40.579 -14.075  -2.772  1.00  0.00     0.261 C 
ENDBRANCH  31  32
ENDBRANCH  30  31
ENDBRANCH  29  30
ENDBRANCH  24  29
ENDBRANCH   9  21
TORSDOF 6
ENDMDL
MODEL 2
REMARK VINA RESULT:      -7.5      3.742      8.176
REMARK  6 active torsions:
REMARK  status: ('A' for Active; 'I' for Inactive)
REMARK    1  A    between atoms: C_9  and  C_10 
REMARK    2  A    between atoms: C_12  and  O_13 
REMARK    3  A    between atoms: C_15  and  O_16 
REMARK    4  A    between atoms: O_16  and  C_17 
REMARK    5  A    between atoms: C_17  and  C_18 
REMARK    6  A    between atoms: C_18  and  N_19 
ROOT
HETATM    1  H   UNL     1      37.774 -14.220   0.777  1.00  0.00     0.186 HD
HETATM    2  N   UNL     1      38.516 -14.725   1.285  1.00  0.00    -0.304 NA
HETATM    3  C   UNL     1      39.452 -13.997   1.809  1.00  0.00     0.062 C 
HETATM    4  C   UNL     1      40.586 -14.673   2.602  1.00  0.00     0.186 C 
HETATM    5  C   UNL     1      40.529 -16.144   2.502  1.00  0.00     0.091 C 
HETATM    6  N   UNL     1      40.544 -17.305   2.517  1.00  0.00    -0.195 NA
HETATM    7  C   UNL     1      41.866 -14.175   2.079  1.00  0.00     0.091 C 
HETATM    8  N   UNL     1      42.854 -13.669   1.740  1.00  0.00    -0.195 NA
HETATM    9  C   UNL     1      40.355 -14.239   4.098  1.00  0.00     0.071 C 
HETATM   10  C   UNL     1      40.331 -12.678   4.277  1.00  0.00     0.053 C 
HETATM   11  C   UNL     1      39.335 -12.036   3.290  1.00  0.00    -0.053 C 
HETATM   12  C   UNL     1      38.422 -11.145   3.741  1.00  0.00     0.005 C 
HETATM   13  C   UNL     1      39.459 -12.463   1.808  1.00  0.00     0.157 C 
HETATM   14  C   UNL     1      38.329 -11.897   0.963  1.00  0.00    -0.005 C 
HETATM   15  N   UNL     1      37.391 -11.427   0.262  1.00  0.00    -0.101 N 
HETATM   16  C   UNL     1      40.019 -12.325   5.765  1.00  0.00     0.244 C 
HETATM   17  N   UNL     1      39.555 -10.905   5.940  1.00  0.00    -0.071 N 
HETATM   18  H   UNL     1      39.276 -10.801   6.926  1.00  0.00     0.279 HD
HETATM   19  C   UNL     1      40.624  -9.868   5.730  1.00  0.00     0.270 C 
HETATM   20  C   UNL     1      38.309 -10.643   5.146  1.00  0.00     0.262 C 
ENDROOT
BRANCH   9  21
HETATM   21  C   UNL     1      41.248 -14.948   5.128  1.00  0.00    -0.047 A 
HETATM   22  C   UNL     1      42.558 -14.550   5.423  1.00  0.00     0.047 A 
HETATM   23  C   UNL     1      43.365 -15.323   6.277  1.00  0.00     0.102 A 
HETATM   24  C   UNL     1      42.857 -16.454   6.931  1.00  0.00     0.102 A 
HETATM   25  C   UNL     1      41.530 -16.810   6.700  1.00  0.00     0.040 A 
HETATM   26  C   UNL     1      40.746 -16.083   5.793  1.00  0.00     0.010 A 
BRANCH  23  27
HETATM   27  O   UNL     1      44.671 -14.969   6.529  1.00  0.00    -0.353 OA
HETATM   28  C   UNL     1      44.767 -13.796   7.344  1.00  0.00     0.210 C 
ENDBRANCH  23  27
BRANCH  24  29
HETATM   29  O   UNL     1      43.734 -17.135   7.736  1.00  0.00    -0.347 OA
BRANCH  29  30
HETATM   30  C   UNL     1      44.624 -18.067   7.116  1.00  0.00     0.203 C 
BRANCH  30  31
HETATM   31  C   UNL     1      43.882 -19.399   6.937  1.00  0.00     0.261 C 
BRANCH  31  32
HETATM   32  N   UNL     1      43.812 -19.825   5.483  1.00  0.00    -0.065 N 
HETATM   33  H   UNL     1      42.840 -20.138   5.325  1.00  0.00     0.280 HD
HETATM   34  C   UNL     1      44.100 -18.701   4.495  1.00  0.00     0.261 C 
HETATM   35  C   UNL     1      44.044 -19.240   3.061  1.00  0.00     0.195 C 
HETATM   36  O   UNL     1      44.966 -20.318   2.884  1.00  0.00    -0.388 OA
HETATM   37  C   UNL     1      44.657 -21.421   3.741  1.00  0.00     0.195 C 
HETATM   38  C   UNL     1      44.741 -21.010   5.213  1.00  0.00     0.261 C 
ENDBRANCH  31  32
ENDBRANCH  30  31
ENDBRANCH  29  30
ENDBRANCH  24  29
ENDBRANCH   9  21
TORSDOF 6
ENDMDL
MODEL 3
REMARK VINA RESULT:      -7.5      3.258      8.088
REMARK  6 active torsions:
REMARK  status: ('A' for Active; 'I' for Inactive)
REMARK    1  A    between atoms: C_9  and  C_10 
REMARK    2  A    between atoms: C_12  and  O_13 
REMARK    3  A    between atoms: C_15  and  O_16 
REMARK    4  A    between atoms: O_16  and  C_17 
REMARK    5  A    between atoms: C_17  and  C_18 
REMARK    6  A    between atoms: C_18  and  N_19 
ROOT
HETATM    1  H   UNL     1      38.503  -9.495  -0.291  1.00  0.00     0.186 HD
HETATM    2  N   UNL     1      38.624 -10.199   0.454  1.00  0.00    -0.304 NA
HETATM    3  C   UNL     1      38.595 -11.440   0.083  1.00  0.00     0.062 C 
HETATM    4  C   UNL     1      38.788 -12.551   1.131  1.00  0.00     0.186 C 
HETATM    5  C   UNL     1      38.811 -12.016   2.506  1.00  0.00     0.091 C 
HETATM    6  N   UNL     1      38.884 -11.687   3.617  1.00  0.00    -0.195 NA
HETATM    7  C   UNL     1      37.690 -13.517   0.979  1.00  0.00     0.091 C 
HETATM    8  N   UNL     1      36.893 -14.329   0.750  1.00  0.00    -0.195 NA
HETATM    9  C   UNL     1      40.185 -13.195   0.795  1.00  0.00     0.071 C 
HETATM   10  C   UNL     1      40.265 -13.727  -0.681  1.00  0.00     0.053 C 
HETATM   11  C   UNL     1      39.838 -12.630  -1.676  1.00  0.00    -0.053 C 
HETATM   12  C   UNL     1      40.618 -12.352  -2.746  1.00  0.00     0.005 C 
HETATM   13  C   UNL     1      38.504 -11.906  -1.376  1.00  0.00     0.157 C 
HETATM   14  C   UNL     1      38.269 -10.741  -2.324  1.00  0.00    -0.005 C 
HETATM   15  N   UNL     1      38.075  -9.773  -3.110  1.00  0.00    -0.101 N 
HETATM   16  C   UNL     1      41.699 -14.276  -0.966  1.00  0.00     0.244 C 
HETATM   17  N   UNL     1      41.993 -14.399  -2.436  1.00  0.00    -0.071 N 
HETATM   18  H   UNL     1      42.984 -14.663  -2.521  1.00  0.00     0.279 HD
HETATM   19  C   UNL     1      41.239 -15.498  -3.133  1.00  0.00     0.270 C 
HETATM   20  C   UNL     1      41.876 -13.070  -3.122  1.00  0.00     0.262 C 
ENDROOT
BRANCH   9  21
HETATM   21  C   UNL     1      40.703 -14.208   1.828  1.00  0.00    -0.047 A 
HETATM   22  C   UNL     1      41.754 -13.940   2.715  1.00  0.00     0.047 A 
HETATM   23  C   UNL     1      42.266 -14.956   3.542  1.00  0.00     0.102 A 
HETATM   24  C   UNL     1      41.684 -16.231   3.574  1.00  0.00     0.102 A 
HETATM   25  C   UNL     1      40.590 -16.478   2.749  1.00  0.00     0.040 A 
HETATM   26  C   UNL     1      40.123 -15.489   1.871  1.00  0.00     0.010 A 
BRANCH  23  27
HETATM   27  O   UNL     1      43.334 -14.718   4.377  1.00  0.00    -0.353 OA
HETATM   28  C   UNL     1      42.989 -13.850   5.463  1.00  0.00     0.210 C 
ENDBRANCH  23  27
BRANCH  24  29
HETATM   29  O   UNL     1      42.269 -17.145   4.414  1.00  0.00    -0.347 OA
BRANCH  29  30
HETATM   30  C   UNL     1      42.663 -18.403   3.860  1.00  0.00     0.203 C 
BRANCH  30  31
HETATM   31  C   UNL     1      44.191 -18.516   3.957  1.00  0.00     0.261 C 
BRANCH  31  32
HETATM   32  N   UNL     1      44.682 -19.918   3.648  1.00  0.00    -0.065 N 
HETATM   33  H   UNL     1      45.690 -19.826   3.438  1.00  0.00     0.280 HD
HETATM   34  C   UNL     1      44.541 -20.892   4.812  1.00  0.00     0.261 C 
HETATM   35  C   UNL     1      45.027 -22.284   4.388  1.00  0.00     0.195 C 
HETATM   36  O   UNL     1      44.304 -22.751   3.246  1.00  0.00    -0.388 OA
HETATM   37  C   UNL     1      44.497 -21.896   2.115  1.00  0.00     0.195 C 
HETATM   38  C   UNL     1      43.989 -20.482   2.407  1.00  0.00     0.261 C 
ENDBRANCH  31  32
ENDBRANCH  30  31
ENDBRANCH  29  30
ENDBRANCH  24  29
ENDBRANCH   9  21
TORSDOF 6
ENDMDL
MODEL 4
REMARK VINA RESULT:      -7.4      4.339      8.593
REMARK  6 active torsions:
REMARK  status: ('A' for Active; 'I' for Inactive)
REMARK    1  A    between atoms: C_9  and  C_10 
REMARK    2  A    between atoms: C_12  and  O_13 
REMARK    3  A    between atoms: C_15  and  O_16 
REMARK    4  A    between atoms: O_16  and  C_17 
REMARK    5  A    between atoms: C_17  and  C_18 
REMARK    6  A    between atoms: C_18  and  N_19 
ROOT
HETATM    1  H   UNL     1      40.559 -16.982   1.946  1.00  0.00     0.186 HD
HETATM    2  N   UNL     1      40.681 -16.474   2.836  1.00  0.00    -0.304 NA
HETATM    3  C   UNL     1      41.239 -15.307   2.760  1.00  0.00     0.062 C 
HETATM    4  C   UNL     1      41.439 -14.475   4.041  1.00  0.00     0.186 C 
HETATM    5  C   UNL     1      41.098 -15.241   5.256  1.00  0.00     0.091 C 
HETATM    6  N   UNL     1      40.817 -15.746   6.262  1.00  0.00    -0.195 NA
HETATM    7  C   UNL     1      42.842 -14.041   4.088  1.00  0.00     0.091 C 
HETATM    8  N   UNL     1      43.915 -13.602   4.034  1.00  0.00    -0.195 NA
HETATM    9  C   UNL     1      40.453 -13.256   3.896  1.00  0.00     0.071 C 
HETATM   10  C   UNL     1      40.705 -12.428   2.585  1.00  0.00     0.053 C 
HETATM   11  C   UNL     1      40.720 -13.356   1.354  1.00  0.00    -0.053 C 
HETATM   12  C   UNL     1      39.976 -13.044   0.268  1.00  0.00     0.005 C 
HETATM   13  C   UNL     1      41.619 -14.612   1.446  1.00  0.00     0.157 C 
HETATM   14  C   UNL     1      41.428 -15.531   0.250  1.00  0.00    -0.005 C 
HETATM   15  N   UNL     1      41.269 -16.293  -0.743  1.00  0.00    -0.101 N 
HETATM   16  C   UNL     1      39.643 -11.289   2.470  1.00  0.00     0.244 C 
HETATM   17  N   UNL     1      39.534 -10.736   1.075  1.00  0.00    -0.071 N 
HETATM   18  H   UNL     1      38.744 -10.075   1.077  1.00  0.00     0.279 HD
HETATM   19  C   UNL     1      40.718  -9.922   0.631  1.00  0.00     0.270 C 
HETATM   20  C   UNL     1      39.151 -11.808   0.098  1.00  0.00     0.262 C 
ENDROOT
BRANCH   9  21
HETATM   21  C   UNL     1      40.317 -12.374   5.147  1.00  0.00    -0.047 A 
HETATM   22  C   UNL     1      41.125 -11.258   5.399  1.00  0.00     0.047 A 
HETATM   23  C   UNL     1      41.037 -10.575   6.626  1.00  0.00     0.102 A 
HETATM   24  C   UNL     1      40.079 -10.926   7.587  1.00  0.00     0.102 A 
HETATM   25  C   UNL     1      39.221 -11.987   7.308  1.00  0.00     0.040 A 
HETATM   26  C   UNL     1      39.355 -12.716   6.116  1.00  0.00     0.010 A 
BRANCH  23  27
HETATM   27  O   UNL     1      41.865  -9.512   6.904  1.00  0.00    -0.353 OA
HETATM   28  C   UNL     1      41.654  -8.412   6.012  1.00  0.00     0.210 C 
ENDBRANCH  23  27
BRANCH  24  29
HETATM   29  O   UNL     1      40.087 -10.195   8.748  1.00  0.00    -0.347 OA
BRANCH  29  30
HETATM   30  C   UNL     1      40.264 -10.900   9.980  1.00  0.00     0.203 C 
BRANCH  30  31
HETATM   31  C   UNL     1      41.599 -10.466  10.599  1.00  0.00     0.261 C 
BRANCH  31  32
HETATM   32  N   UNL     1      42.670 -11.531  10.456  1.00  0.00    -0.065 N 
HETATM   33  H   UNL     1      42.168 -12.413  10.258  1.00  0.00     0.280 HD
HETATM   34  C   UNL     1      43.639 -11.283   9.307  1.00  0.00     0.261 C 
HETATM   35  C   UNL     1      44.701 -12.389   9.272  1.00  0.00     0.195 C 
HETATM   36  O   UNL     1      45.400 -12.465  10.517  1.00  0.00    -0.388 OA
HETATM   37  C   UNL     1      44.519 -12.787  11.597  1.00  0.00     0.195 C 
HETATM   38  C   UNL     1      43.444 -11.710  11.764  1.00  0.00     0.261 C 
ENDBRANCH  31  32
ENDBRANCH  30  31
ENDBRANCH  29  30
ENDBRANCH  24  29
ENDBRANCH   9  21
TORSDOF 6
ENDMDL
MODEL 5
REMARK VINA RESULT:      -7.3      3.188      8.726
REMARK  6 active torsions:
REMARK  status: ('A' for Active; 'I' for Inactive)
REMARK    1  A    between atoms: C_9  and  C_10 
REMARK    2  A    between atoms: C_12  and  O_13 
REMARK    3  A    between atoms: C_15  and  O_16 
REMARK    4  A    between atoms: O_16  and  C_17 
REMARK    5  A    between atoms: C_17  and  C_18 
REMARK    6  A    between atoms: C_18  and  N_19 
ROOT
HETATM    1  H   UNL     1      38.001 -13.424  -4.423  1.00  0.00     0.186 HD
HETATM    2  N   UNL     1      38.785 -13.822  -3.885  1.00  0.00    -0.304 NA
HETATM    3  C   UNL     1      39.258 -13.087  -2.928  1.00  0.00     0.062 C 
HETATM    4  C   UNL     1      40.416 -13.618  -2.063  1.00  0.00     0.186 C 
HETATM    5  C   UNL     1      40.959 -14.887  -2.585  1.00  0.00     0.091 C 
HETATM    6  N   UNL     1      41.425 -15.905  -2.893  1.00  0.00    -0.195 NA
HETATM    7  C   UNL     1      41.467 -12.590  -2.028  1.00  0.00     0.091 C 
HETATM    8  N   UNL     1      42.218 -11.714  -1.907  1.00  0.00    -0.195 NA
HETATM    9  C   UNL     1      39.787 -13.862  -0.640  1.00  0.00     0.071 C 
HETATM   10  C   UNL     1      39.122 -12.569  -0.044  1.00  0.00     0.053 C 
HETATM   11  C   UNL     1      38.135 -11.953  -1.056  1.00  0.00    -0.053 C 
HETATM   12  C   UNL     1      36.884 -11.623  -0.658  1.00  0.00     0.005 C 
HETATM   13  C   UNL     1      38.663 -11.741  -2.495  1.00  0.00     0.157 C 
HETATM   14  C   UNL     1      37.560 -11.285  -3.437  1.00  0.00    -0.005 C 
HETATM   15  N   UNL     1      36.645 -10.908  -4.219  1.00  0.00    -0.101 N 
HETATM   16  C   UNL     1      38.453 -12.906   1.325  1.00  0.00     0.244 C 
HETATM   17  N   UNL     1      37.446 -11.872   1.750  1.00  0.00    -0.071 N 
HETATM   18  H   UNL     1      36.988 -12.231   2.599  1.00  0.00     0.279 HD
HETATM   19  C   UNL     1      38.041 -10.553   2.161  1.00  0.00     0.270 C 
HETATM   20  C   UNL     1      36.350 -11.737   0.734  1.00  0.00     0.262 C 
ENDROOT
BRANCH   9  21
HETATM   21  C   UNL     1      40.700 -14.585   0.362  1.00  0.00    -0.047 A 
HETATM   22  C   UNL     1      41.617 -13.925   1.191  1.00  0.00     0.047 A 
HETATM   23  C   UNL     1      42.516 -14.658   1.987  1.00  0.00     0.102 A 
HETATM   24  C   UNL     1      42.457 -16.057   2.051  1.00  0.00     0.102 A 
HETATM   25  C   UNL     1      41.495 -16.714   1.288  1.00  0.00     0.040 A 
HETATM   26  C   UNL     1      40.647 -15.990   0.437  1.00  0.00     0.010 A 
BRANCH  23  27
HETATM   27  O   UNL     1      43.456 -14.019   2.762  1.00  0.00    -0.353 OA
HETATM   28  C   UNL     1      42.861 -13.236   3.803  1.00  0.00     0.210 C 
ENDBRANCH  23  27
BRANCH  24  29
HETATM   29  O   UNL     1      43.385 -16.667   2.857  1.00  0.00    -0.347 OA
BRANCH  29  30
HETATM   30  C   UNL     1      42.924 -17.668   3.767  1.00  0.00     0.203 C 
BRANCH  30  31
HETATM   31  C   UNL     1      44.103 -18.588   4.113  1.00  0.00     0.261 C 
BRANCH  31  32
HETATM   32  N   UNL     1      43.869 -20.016   3.656  1.00  0.00    -0.065 N 
HETATM   33  H   UNL     1      42.951 -20.290   4.042  1.00  0.00     0.280 HD
HETATM   34  C   UNL     1      43.801 -20.176   2.142  1.00  0.00     0.261 C 
HETATM   35  C   UNL     1      43.602 -21.654   1.783  1.00  0.00     0.195 C 
HETATM   36  O   UNL     1      44.650 -22.458   2.331  1.00  0.00    -0.388 OA
HETATM   37  C   UNL     1      44.673 -22.391   3.760  1.00  0.00     0.195 C 
HETATM   38  C   UNL     1      44.927 -20.957   4.235  1.00  0.00     0.261 C 
ENDBRANCH  31  32
ENDBRANCH  30  31
ENDBRANCH  29  30
ENDBRANCH  24  29
ENDBRANCH   9  21
TORSDOF 6
ENDMDL
MODEL 6
REMARK VINA RESULT:      -7.2      3.270      7.124
REMARK  6 active torsions:
REMARK  status: ('A' for Active; 'I' for Inactive)
REMARK    1  A    between atoms: C_9  and  C_10 
REMARK    2  A    between atoms: C_12  and  O_13 
REMARK    3  A    between atoms: C_15  and  O_16 
REMARK    4  A    between atoms: O_16  and  C_17 
REMARK    5  A    between atoms: C_17  and  C_18 
REMARK    6  A    between atoms: C_18  and  N_19 
ROOT
HETATM    1  H   UNL     1      44.270 -18.497   0.409  1.00  0.00     0.186 HD
HETATM    2  N   UNL     1      43.685 -17.663   0.577  1.00  0.00    -0.304 NA
HETATM    3  C   UNL     1      42.917 -17.700   1.619  1.00  0.00     0.062 C 
HETATM    4  C   UNL     1      42.028 -16.487   1.951  1.00  0.00     0.186 C 
HETATM    5  C   UNL     1      42.060 -15.470   0.883  1.00  0.00     0.091 C 
HETATM    6  N   UNL     1      42.051 -14.596   0.119  1.00  0.00    -0.195 NA
HETATM    7  C   UNL     1      40.655 -16.971   2.155  1.00  0.00     0.091 C 
HETATM    8  N   UNL     1      39.612 -17.393   2.441  1.00  0.00    -0.195 NA
HETATM    9  C   UNL     1      42.638 -15.881   3.271  1.00  0.00     0.071 C 
HETATM   10  C   UNL     1      42.706 -16.927   4.441  1.00  0.00     0.053 C 
HETATM   11  C   UNL     1      43.410 -18.217   3.973  1.00  0.00    -0.053 C 
HETATM   12  C   UNL     1      44.408 -18.746   4.719  1.00  0.00     0.005 C 
HETATM   13  C   UNL     1      42.907 -18.838   2.648  1.00  0.00     0.157 C 
HETATM   14  C   UNL     1      43.778 -20.003   2.206  1.00  0.00    -0.005 C 
HETATM   15  N   UNL     1      44.502 -20.969   1.838  1.00  0.00    -0.101 N 
HETATM   16  C   UNL     1      43.392 -16.281   5.685  1.00  0.00     0.244 C 
HETATM   17  N   UNL     1      43.884 -17.303   6.674  1.00  0.00    -0.071 N 
HETATM   18  H   UNL     1      44.409 -16.791   7.396  1.00  0.00     0.279 HD
HETATM   19  C   UNL     1      42.795 -18.021   7.423  1.00  0.00     0.270 C 
HETATM   20  C   UNL     1      44.880 -18.229   6.041  1.00  0.00     0.262 C 
ENDROOT
BRANCH   9  21
HETATM   21  C   UNL     1      42.045 -14.532   3.705  1.00  0.00    -0.047 A 
HETATM   22  C   UNL     1      40.706 -14.171   3.497  1.00  0.00     0.047 A 
HETATM   23  C   UNL     1      40.262 -12.871   3.797  1.00  0.00     0.102 A 
HETATM   24  C   UNL     1      41.112 -11.933   4.399  1.00  0.00     0.102 A 
HETATM   25  C   UNL     1      42.423 -12.312   4.678  1.00  0.00     0.040 A 
HETATM   26  C   UNL     1      42.888 -13.584   4.313  1.00  0.00     0.010 A 
BRANCH  23  27
HETATM   27  O   UNL     1      38.964 -12.492   3.546  1.00  0.00    -0.353 OA
HETATM   28  C   UNL     1      38.679 -12.432   2.144  1.00  0.00     0.210 C 
ENDBRANCH  23  27
BRANCH  24  29
HETATM   29  O   UNL     1      40.574 -10.694   4.642  1.00  0.00    -0.347 OA
BRANCH  29  30
HETATM   30  C   UNL     1      40.798 -10.110   5.928  1.00  0.00     0.203 C 
BRANCH  30  31
HETATM   31  C   UNL     1      39.909 -10.832   6.949  1.00  0.00     0.261 C 
BRANCH  31  32
HETATM   32  N   UNL     1      40.636 -11.101   8.253  1.00  0.00    -0.065 N 
HETATM   33  H   UNL     1      40.778 -12.124   8.293  1.00  0.00     0.280 HD
HETATM   34  C   UNL     1      42.006 -10.440   8.344  1.00  0.00     0.261 C 
HETATM   35  C   UNL     1      42.639 -10.739   9.709  1.00  0.00     0.195 C 
HETATM   36  O   UNL     1      41.792 -10.296  10.772  1.00  0.00    -0.388 OA
HETATM   37  C   UNL     1      40.531 -10.971  10.757  1.00  0.00     0.195 C 
HETATM   38  C   UNL     1      39.779 -10.694   9.453  1.00  0.00     0.261 C 
ENDBRANCH  31  32
ENDBRANCH  30  31
ENDBRANCH  29  30
ENDBRANCH  24  29
ENDBRANCH   9  21
TORSDOF 6
ENDMDL
MODEL 7
REMARK VINA RESULT:      -7.2      3.962      7.998
REMARK  6 active torsions:
REMARK  status: ('A' for Active; 'I' for Inactive)
REMARK    1  A    between atoms: C_9  and  C_10 
REMARK    2  A    between atoms: C_12  and  O_13 
REMARK    3  A    between atoms: C_15  and  O_16 
REMARK    4  A    between atoms: O_16  and  C_17 
REMARK    5  A    between atoms: C_17  and  C_18 
REMARK    6  A    between atoms: C_18  and  N_19 
ROOT
HETATM    1  H   UNL     1      41.587  -7.829   3.896  1.00  0.00     0.186 HD
HETATM    2  N   UNL     1      41.567  -8.669   4.493  1.00  0.00    -0.304 NA
HETATM    3  C   UNL     1      40.903  -9.684   4.037  1.00  0.00     0.062 C 
HETATM    4  C   UNL     1      40.841 -10.984   4.859  1.00  0.00     0.186 C 
HETATM    5  C   UNL     1      41.441 -10.820   6.198  1.00  0.00     0.091 C 
HETATM    6  N   UNL     1      41.926 -10.802   7.252  1.00  0.00    -0.195 NA
HETATM    7  C   UNL     1      39.430 -11.382   4.978  1.00  0.00     0.091 C 
HETATM    8  N   UNL     1      38.328 -11.743   4.943  1.00  0.00    -0.195 NA
HETATM    9  C   UNL     1      41.677 -12.032   4.034  1.00  0.00     0.071 C 
HETATM   10  C   UNL     1      41.143 -12.211   2.567  1.00  0.00     0.053 C 
HETATM   11  C   UNL     1      41.010 -10.843   1.869  1.00  0.00    -0.053 C 
HETATM   12  C   UNL     1      41.537 -10.663   0.636  1.00  0.00     0.005 C 
HETATM   13  C   UNL     1      40.253  -9.740   2.648  1.00  0.00     0.157 C 
HETATM   14  C   UNL     1      40.328  -8.397   1.939  1.00  0.00    -0.005 C 
HETATM   15  N   UNL     1      40.391  -7.283   1.350  1.00  0.00    -0.101 N 
HETATM   16  C   UNL     1      42.065 -13.200   1.788  1.00  0.00     0.244 C 
HETATM   17  N   UNL     1      41.897 -13.099   0.296  1.00  0.00    -0.071 N 
HETATM   18  H   UNL     1      42.614 -13.704  -0.127  1.00  0.00     0.279 HD
HETATM   19  C   UNL     1      40.588 -13.630  -0.222  1.00  0.00     0.270 C 
HETATM   20  C   UNL     1      42.210 -11.714  -0.189  1.00  0.00     0.262 C 
ENDROOT
BRANCH   9  21
HETATM   21  C   UNL     1      41.936 -13.368   4.746  1.00  0.00    -0.047 A 
HETATM   22  C   UNL     1      43.104 -13.649   5.468  1.00  0.00     0.047 A 
HETATM   23  C   UNL     1      43.334 -14.937   5.982  1.00  0.00     0.102 A 
HETATM   24  C   UNL     1      42.368 -15.947   5.874  1.00  0.00     0.102 A 
HETATM   25  C   UNL     1      41.172 -15.651   5.223  1.00  0.00     0.040 A 
HETATM   26  C   UNL     1      40.971 -14.388   4.647  1.00  0.00     0.010 A 
BRANCH  23  27
HETATM   27  O   UNL     1      44.502 -15.236   6.645  1.00  0.00    -0.353 OA
HETATM   28  C   UNL     1      45.060 -14.094   7.302  1.00  0.00     0.210 C 
ENDBRANCH  23  27
BRANCH  24  29
HETATM   29  O   UNL     1      42.701 -17.167   6.406  1.00  0.00    -0.347 OA
BRANCH  29  30
HETATM   30  C   UNL     1      42.794 -18.282   5.516  1.00  0.00     0.203 C 
BRANCH  30  31
HETATM   31  C   UNL     1      44.138 -18.200   4.778  1.00  0.00     0.261 C 
BRANCH  31  32
HETATM   32  N   UNL     1      44.662 -19.571   4.391  1.00  0.00    -0.065 N 
HETATM   33  H   UNL     1      45.678 -19.453   4.239  1.00  0.00     0.280 HD
HETATM   34  C   UNL     1      44.476 -20.631   5.469  1.00  0.00     0.261 C 
HETATM   35  C   UNL     1      45.000 -21.982   4.967  1.00  0.00     0.195 C 
HETATM   36  O   UNL     1      44.342 -22.368   3.758  1.00  0.00    -0.388 OA
HETATM   37  C   UNL     1      44.580 -21.428   2.706  1.00  0.00     0.195 C 
HETATM   38  C   UNL     1      44.039 -20.045   3.077  1.00  0.00     0.261 C 
ENDBRANCH  31  32
ENDBRANCH  30  31
ENDBRANCH  29  30
ENDBRANCH  24  29
ENDBRANCH   9  21
TORSDOF 6
ENDMDL
MODEL 8
REMARK VINA RESULT:      -7.1      3.275      8.268
REMARK  6 active torsions:
REMARK  status: ('A' for Active; 'I' for Inactive)
REMARK    1  A    between atoms: C_9  and  C_10 
REMARK    2  A    between atoms: C_12  and  O_13 
REMARK    3  A    between atoms: C_15  and  O_16 
REMARK    4  A    between atoms: O_16  and  C_17 
REMARK    5  A    between atoms: C_17  and  C_18 
REMARK    6  A    between atoms: C_18  and  N_19 
ROOT
HETATM    1  H   UNL     1      42.468 -10.195   0.281  1.00  0.00     0.186 HD
HETATM    2  N   UNL     1      42.492 -11.039   0.874  1.00  0.00    -0.304 NA
HETATM    3  C   UNL     1      41.520 -11.881   0.715  1.00  0.00     0.062 C 
HETATM    4  C   UNL     1      41.493 -13.176   1.548  1.00  0.00     0.186 C 
HETATM    5  C   UNL     1      42.547 -13.190   2.581  1.00  0.00     0.091 C 
HETATM    6  N   UNL     1      43.366 -13.312   3.395  1.00  0.00    -0.195 NA
HETATM    7  C   UNL     1      40.167 -13.290   2.172  1.00  0.00     0.091 C 
HETATM    8  N   UNL     1      39.074 -13.423   2.541  1.00  0.00    -0.195 NA
HETATM    9  C   UNL     1      41.756 -14.334   0.514  1.00  0.00     0.071 C 
HETATM   10  C   UNL     1      40.714 -14.342  -0.661  1.00  0.00     0.053 C 
HETATM   11  C   UNL     1      40.620 -12.948  -1.311  1.00  0.00    -0.053 C 
HETATM   12  C   UNL     1      40.703 -12.826  -2.656  1.00  0.00     0.005 C 
HETATM   13  C   UNL     1      40.425 -11.750  -0.351  1.00  0.00     0.157 C 
HETATM   14  C   UNL     1      40.512 -10.420  -1.084  1.00  0.00    -0.005 C 
HETATM   15  N   UNL     1      40.585  -9.318  -1.693  1.00  0.00    -0.101 N 
HETATM   16  C   UNL     1      41.084 -15.462  -1.684  1.00  0.00     0.244 C 
HETATM   17  N   UNL     1      40.424 -15.268  -3.022  1.00  0.00    -0.071 N 
HETATM   18  H   UNL     1      40.809 -15.986  -3.652  1.00  0.00     0.279 HD
HETATM   19  C   UNL     1      38.939 -15.506  -3.026  1.00  0.00     0.270 C 
HETATM   20  C   UNL     1      40.816 -13.955  -3.631  1.00  0.00     0.262 C 
ENDROOT
BRANCH   9  21
HETATM   21  C   UNL     1      41.976 -15.724   1.132  1.00  0.00    -0.047 A 
HETATM   22  C   UNL     1      41.327 -16.167   2.292  1.00  0.00     0.047 A 
HETATM   23  C   UNL     1      41.674 -17.398   2.879  1.00  0.00     0.102 A 
HETATM   24  C   UNL     1      42.603 -18.256   2.274  1.00  0.00     0.102 A 
HETATM   25  C   UNL     1      43.195 -17.852   1.079  1.00  0.00     0.040 A 
HETATM   26  C   UNL     1      42.904 -16.594   0.531  1.00  0.00     0.010 A 
BRANCH  23  27
HETATM   27  O   UNL     1      41.081 -17.816   4.048  1.00  0.00    -0.353 OA
HETATM   28  C   UNL     1      41.337 -16.922   5.136  1.00  0.00     0.210 C 
ENDBRANCH  23  27
BRANCH  24  29
HETATM   29  O   UNL     1      42.870 -19.427   2.937  1.00  0.00    -0.347 OA
BRANCH  29  30
HETATM   30  C   UNL     1      44.239 -19.763   3.176  1.00  0.00     0.203 C 
BRANCH  30  31
HETATM   31  C   UNL     1      44.761 -18.877   4.315  1.00  0.00     0.261 C 
BRANCH  31  32
HETATM   32  N   UNL     1      44.063 -19.165   5.631  1.00  0.00    -0.065 N 
HETATM   33  H   UNL     1      43.060 -18.976   5.467  1.00  0.00     0.280 HD
HETATM   34  C   UNL     1      44.190 -20.612   6.094  1.00  0.00     0.261 C 
HETATM   35  C   UNL     1      43.487 -20.790   7.446  1.00  0.00     0.195 C 
HETATM   36  O   UNL     1      44.026 -19.896   8.423  1.00  0.00    -0.388 OA
HETATM   37  C   UNL     1      43.836 -18.529   8.048  1.00  0.00     0.195 C 
HETATM   38  C   UNL     1      44.551 -18.219   6.730  1.00  0.00     0.261 C 
ENDBRANCH  31  32
ENDBRANCH  30  31
ENDBRANCH  29  30
ENDBRANCH  24  29
ENDBRANCH   9  21
TORSDOF 6
ENDMDL
MODEL 9
REMARK VINA RESULT:      -7.1      3.544      7.247
REMARK  6 active torsions:
REMARK  status: ('A' for Active; 'I' for Inactive)
REMARK    1  A    between atoms: C_9  and  C_10 
REMARK    2  A    between atoms: C_12  and  O_13 
REMARK    3  A    between atoms: C_15  and  O_16 
REMARK    4  A    between atoms: O_16  and  C_17 
REMARK    5  A    between atoms: C_17  and  C_18 
REMARK    6  A    between atoms: C_18  and  N_19 
ROOT
HETATM    1  H   UNL     1      41.695  -7.669   3.613  1.00  0.00     0.186 HD
HETATM    2  N   UNL     1      41.645  -8.459   4.275  1.00  0.00    -0.304 NA
HETATM    3  C   UNL     1      40.938  -9.478   3.902  1.00  0.00     0.062 C 
HETATM    4  C   UNL     1      40.829 -10.707   4.824  1.00  0.00     0.186 C 
HETATM    5  C   UNL     1      41.444 -10.463   6.143  1.00  0.00     0.091 C 
HETATM    6  N   UNL     1      41.935 -10.382   7.191  1.00  0.00    -0.195 NA
HETATM    7  C   UNL     1      39.405 -11.036   4.978  1.00  0.00     0.091 C 
HETATM    8  N   UNL     1      38.288 -11.355   4.974  1.00  0.00    -0.195 NA
HETATM    9  C   UNL     1      41.618 -11.849   4.080  1.00  0.00     0.071 C 
HETATM   10  C   UNL     1      41.067 -12.120   2.634  1.00  0.00     0.053 C 
HETATM   11  C   UNL     1      40.985 -10.807   1.831  1.00  0.00    -0.053 C 
HETATM   12  C   UNL     1      41.511 -10.746   0.586  1.00  0.00     0.005 C 
HETATM   13  C   UNL     1      40.278  -9.617   2.523  1.00  0.00     0.157 C 
HETATM   14  C   UNL     1      40.402  -8.338   1.711  1.00  0.00    -0.005 C 
HETATM   15  N   UNL     1      40.506  -7.276   1.036  1.00  0.00    -0.101 N 
HETATM   16  C   UNL     1      41.945 -13.203   1.932  1.00  0.00     0.244 C 
HETATM   17  N   UNL     1      41.772 -13.213   0.437  1.00  0.00    -0.071 N 
HETATM   18  H   UNL     1      42.461 -13.878   0.061  1.00  0.00     0.279 HD
HETATM   19  C   UNL     1      40.440 -13.729  -0.033  1.00  0.00     0.270 C 
HETATM   20  C   UNL     1      42.137 -11.884  -0.156  1.00  0.00     0.262 C 
ENDROOT
BRANCH   9  21
HETATM   21  C   UNL     1      41.827 -13.135   4.895  1.00  0.00    -0.047 A 
HETATM   22  C   UNL     1      43.056 -13.504   5.458  1.00  0.00     0.047 A 
HETATM   23  C   UNL     1      43.210 -14.758   6.076  1.00  0.00     0.102 A 
HETATM   24  C   UNL     1      42.124 -15.630   6.233  1.00  0.00     0.102 A 
HETATM   25  C   UNL     1      40.882 -15.234   5.743  1.00  0.00     0.040 A 
HETATM   26  C   UNL     1      40.742 -14.016   5.062  1.00  0.00     0.010 A 
BRANCH  23  27
HETATM   27  O   UNL     1      44.427 -15.152   6.583  1.00  0.00    -0.353 OA
HETATM   28  C   UNL     1      45.228 -14.039   6.995  1.00  0.00     0.210 C 
ENDBRANCH  23  27
BRANCH  24  29
HETATM   29  O   UNL     1      42.391 -16.829   6.846  1.00  0.00    -0.347 OA
BRANCH  29  30
HETATM   30  C   UNL     1      42.789 -17.926   6.021  1.00  0.00     0.203 C 
BRANCH  30  31
HETATM   31  C   UNL     1      41.676 -18.190   4.997  1.00  0.00     0.261 C 
BRANCH  31  32
HETATM   32  N   UNL     1      42.178 -18.093   3.568  1.00  0.00    -0.065 N 
HETATM   33  H   UNL     1      42.139 -19.054   3.189  1.00  0.00     0.280 HD
HETATM   34  C   UNL     1      41.322 -17.207   2.672  1.00  0.00     0.261 C 
HETATM   35  C   UNL     1      41.932 -17.144   1.266  1.00  0.00     0.195 C 
HETATM   36  O   UNL     1      43.278 -16.665   1.315  1.00  0.00    -0.388 OA
HETATM   37  C   UNL     1      44.119 -17.535   2.080  1.00  0.00     0.195 C 
HETATM   38  C   UNL     1      43.634 -17.627   3.529  1.00  0.00     0.261 C 
ENDBRANCH  31  32
ENDBRANCH  30  31
ENDBRANCH  29  30
ENDBRANCH  24  29
ENDBRANCH   9  21
TORSDOF 6
ENDMDL
MODEL 10
REMARK VINA RESULT:      -7.1      2.347      4.410
REMARK  6 active torsions:
REMARK  status: ('A' for Active; 'I' for Inactive)
REMARK    1  A    between atoms: C_9  and  C_10 
REMARK    2  A    between atoms: C_12  and  O_13 
REMARK    3  A    between atoms: C_15  and  O_16 
REMARK    4  A    between atoms: O_16  and  C_17 
REMARK    5  A    between atoms: C_17  and  C_18 
REMARK    6  A    between atoms: C_18  and  N_19 
ROOT
HETATM    1  H   UNL     1      44.279 -18.481   0.547  1.00  0.00     0.186 HD
HETATM    2  N   UNL     1      43.668 -17.653   0.618  1.00  0.00    -0.304 NA
HETATM    3  C   UNL     1      42.874 -17.611   1.642  1.00  0.00     0.062 C 
HETATM    4  C   UNL     1      41.944 -16.399   1.832  1.00  0.00     0.186 C 
HETATM    5  C   UNL     1      41.974 -15.491   0.669  1.00  0.00     0.091 C 
HETATM    6  N   UNL     1      41.960 -14.697  -0.178  1.00  0.00    -0.195 NA
HETATM    7  C   UNL     1      40.580 -16.901   2.052  1.00  0.00     0.091 C 
HETATM    8  N   UNL     1      39.543 -17.325   2.355  1.00  0.00    -0.195 NA
HETATM    9  C   UNL     1      42.503 -15.648   3.099  1.00  0.00     0.071 C 
HETATM   10  C   UNL     1      42.571 -16.571   4.368  1.00  0.00     0.053 C 
HETATM   11  C   UNL     1      43.322 -17.878   4.046  1.00  0.00    -0.053 C 
HETATM   12  C   UNL     1      44.315 -18.301   4.863  1.00  0.00     0.005 C 
HETATM   13  C   UNL     1      42.871 -18.641   2.778  1.00  0.00     0.157 C 
HETATM   14  C   UNL     1      43.785 -19.817   2.473  1.00  0.00    -0.005 C 
HETATM   15  N   UNL     1      44.544 -20.792   2.219  1.00  0.00    -0.101 N 
HETATM   16  C   UNL     1      43.206 -15.785   5.557  1.00  0.00     0.244 C 
HETATM   17  N   UNL     1      43.702 -16.689   6.653  1.00  0.00    -0.071 N 
HETATM   18  H   UNL     1      44.194 -16.093   7.333  1.00  0.00     0.279 HD
HETATM   19  C   UNL     1      42.615 -17.363   7.445  1.00  0.00     0.270 C 
HETATM   20  C   UNL     1      44.739 -17.643   6.138  1.00  0.00     0.262 C 
ENDROOT
BRANCH   9  21
HETATM   21  C   UNL     1      41.861 -14.281   3.383  1.00  0.00    -0.047 A 
HETATM   22  C   UNL     1      40.746 -14.107   4.215  1.00  0.00     0.047 A 
HETATM   23  C   UNL     1      40.128 -12.848   4.326  1.00  0.00     0.102 A 
HETATM   24  C   UNL     1      40.660 -11.718   3.690  1.00  0.00     0.102 A 
HETATM   25  C   UNL     1      41.813 -11.872   2.924  1.00  0.00     0.040 A 
HETATM   26  C   UNL     1      42.389 -13.139   2.753  1.00  0.00     0.010 A 
BRANCH  23  27
HETATM   27  O   UNL     1      39.001 -12.680   5.097  1.00  0.00    -0.353 OA
HETATM   28  C   UNL     1      39.303 -12.630   6.495  1.00  0.00     0.210 C 
ENDBRANCH  23  27
BRANCH  24  29
HETATM   29  O   UNL     1      39.971 -10.543   3.863  1.00  0.00    -0.347 OA
BRANCH  29  30
HETATM   30  C   UNL     1      39.400  -9.928   2.706  1.00  0.00     0.203 C 
BRANCH  30  31
HETATM   31  C   UNL     1      38.030 -10.570   2.444  1.00  0.00     0.261 C 
BRANCH  31  32
HETATM   32  N   UNL     1      37.986 -11.301   1.115  1.00  0.00    -0.065 N 
HETATM   33  H   UNL     1      37.102 -11.014   0.663  1.00  0.00     0.280 HD
HETATM   34  C   UNL     1      39.127 -10.938   0.172  1.00  0.00     0.261 C 
HETATM   35  C   UNL     1      39.014 -11.756  -1.121  1.00  0.00     0.195 C 
HETATM   36  O   UNL     1      39.015 -13.158  -0.840  1.00  0.00    -0.388 OA
HETATM   37  C   UNL     1      37.898 -13.533  -0.028  1.00  0.00     0.195 C 
HETATM   38  C   UNL     1      37.941 -12.816   1.324  1.00  0.00     0.261 C 
ENDBRANCH  31  32
ENDBRANCH  30  31
ENDBRANCH  29  30
ENDBRANCH  24  29
ENDBRANCH   9  21
TORSDOF 6
ENDMDL
