MODEL 1
REMARK VINA RESULT:      -9.1      0.000      0.000
REMARK  5 active torsions:
REMARK  status: ('A' for Active; 'I' for Inactive)
REMARK    1  A    between atoms: C_11  and  N_12 
REMARK    2  A    between atoms: N_12  and  N_13 
REMARK       I    between atoms: N_13  and  C_14 
REMARK    3  A    between atoms: C_14  and  C_15 
REMARK    4  A    between atoms: C_15  and  C_16 
REMARK    5  A    between atoms: N_23  and  C_24 
ROOT
HETATM    1  C   UNL     1      40.581  -8.940  -2.440  1.00  0.00     0.046 C 
HETATM    2  C   UNL     1      41.097 -10.381  -2.557  1.00  0.00     0.058 C 
HETATM    3  C   UNL     1      42.564 -10.332  -3.013  1.00  0.00     0.046 C 
HETATM    4  O   UNL     1      40.262 -11.020  -3.550  1.00  0.00    -0.376 OA
HETATM    5  C   UNL     1      40.580 -12.392  -3.851  1.00  0.00     0.215 C 
HETATM    6  C   UNL     1      40.798 -13.147  -2.581  1.00  0.00     0.016 A 
HETATM    7  C   UNL     1      40.983 -12.575  -1.338  1.00  0.00    -0.021 A 
HETATM    8  C   UNL     1      41.172 -13.571  -0.329  1.00  0.00     0.077 A 
HETATM    9  C   UNL     1      41.158 -14.842  -0.847  1.00  0.00     0.133 A 
HETATM   10  N   UNL     1      41.289 -15.998  -0.159  1.00  0.00    -0.054 NA
HETATM   11  C   UNL     1      41.454 -15.883   1.140  1.00  0.00     0.730 A 
HETATM   12  N   UNL     1      41.556 -14.630   1.793  1.00  0.00    -0.107 N 
HETATM   13  C   UNL     1      41.377 -13.416   1.098  1.00  0.00     0.280 A 
HETATM   14  O   UNL     1      41.417 -12.295   1.600  1.00  0.00    -0.266 OA
HETATM   15  S   UNL     1      40.900 -14.844  -2.536  1.00  0.00    -0.071 SA
HETATM   16  C   UNL     1      40.937 -11.086  -1.182  1.00  0.00     0.078 C 
ENDROOT
BRANCH  11  17
HETATM   17  N   UNL     1      41.453 -17.056   1.878  1.00  0.00    -0.127 N 
HETATM   18  H   UNL     1      40.728 -17.245   2.569  1.00  0.00     0.206 HD
BRANCH  17  19
HETATM   19  N   UNL     1      42.707 -17.596   2.209  1.00  0.00    -0.255 N 
HETATM   20  C   UNL     1      42.857 -18.036   3.511  1.00  0.00     0.240 C 
HETATM   21  O   UNL     1      41.913 -18.071   4.302  1.00  0.00    -0.272 OA
HETATM   22  H   UNL     1      43.485 -17.246   1.650  1.00  0.00     0.190 HD
BRANCH  20  23
HETATM   23  C   UNL     1      44.259 -18.501   3.859  1.00  0.00     0.143 C 
BRANCH  23  24
HETATM   24  C   UNL     1      44.443 -20.000   3.826  1.00  0.00    -0.049 A 
HETATM   25  C   UNL     1      44.692 -20.724   5.000  1.00  0.00     0.007 A 
HETATM   26  C   UNL     1      44.815 -22.115   4.967  1.00  0.00     0.001 A 
HETATM   27  C   UNL     1      44.675 -22.799   3.763  1.00  0.00     0.000 A 
HETATM   28  C   UNL     1      44.415 -22.093   2.590  1.00  0.00     0.001 A 
HETATM   29  C   UNL     1      44.298 -20.702   2.620  1.00  0.00     0.007 A 
ENDBRANCH  23  24
ENDBRANCH  20  23
ENDBRANCH  17  19
ENDBRANCH  11  17
BRANCH  12  30
HETATM   30  C   UNL     1      41.901 -14.547   3.184  1.00  0.00     0.060 A 
HETATM   31  C   UNL     1      40.913 -14.636   4.175  1.00  0.00     0.030 A 
HETATM   32  C   UNL     1      41.252 -14.561   5.527  1.00  0.00     0.002 A 
HETATM   33  C   UNL     1      42.580 -14.382   5.906  1.00  0.00     0.000 A 
HETATM   34  C   UNL     1      43.570 -14.268   4.933  1.00  0.00     0.002 A 
HETATM   35  C   UNL     1      43.233 -14.343   3.580  1.00  0.00     0.030 A 
ENDBRANCH  12  30
TORSDOF 5
ENDMDL
MODEL 2
REMARK VINA RESULT:      -9.1      2.264      8.714
REMARK  5 active torsions:
REMARK  status: ('A' for Active; 'I' for Inactive)
REMARK    1  A    between atoms: C_11  and  N_12 
REMARK    2  A    between atoms: N_12  and  N_13 
REMARK       I    between atoms: N_13  and  C_14 
REMARK    3  A    between atoms: C_14  and  C_15 
REMARK    4  A    between atoms: C_15  and  C_16 
REMARK    5  A    between atoms: N_23  and  C_24 
ROOT
HETATM    1  C   UNL     1      45.342 -18.149   7.120  1.00  0.00     0.046 C 
HETATM    2  C   UNL     1      44.428 -18.632   5.986  1.00  0.00     0.058 C 
HETATM    3  C   UNL     1      43.226 -19.360   6.611  1.00  0.00     0.046 C 
HETATM    4  O   UNL     1      45.229 -19.534   5.190  1.00  0.00    -0.376 OA
HETATM    5  C   UNL     1      44.564 -20.142   4.066  1.00  0.00     0.215 C 
HETATM    6  C   UNL     1      43.793 -19.104   3.319  1.00  0.00     0.016 A 
HETATM    7  C   UNL     1      43.496 -17.841   3.790  1.00  0.00    -0.021 A 
HETATM    8  C   UNL     1      42.738 -17.093   2.835  1.00  0.00     0.077 A 
HETATM    9  C   UNL     1      42.464 -17.823   1.705  1.00  0.00     0.133 A 
HETATM   10  N   UNL     1      41.787 -17.401   0.614  1.00  0.00    -0.054 NA
HETATM   11  C   UNL     1      41.344 -16.164   0.650  1.00  0.00     0.730 A 
HETATM   12  N   UNL     1      41.497 -15.326   1.781  1.00  0.00    -0.107 N 
HETATM   13  C   UNL     1      42.238 -15.734   2.910  1.00  0.00     0.280 A 
HETATM   14  O   UNL     1      42.443 -15.052   3.912  1.00  0.00    -0.266 OA
HETATM   15  S   UNL     1      43.129 -19.395   1.780  1.00  0.00    -0.071 SA
HETATM   16  C   UNL     1      43.989 -17.407   5.136  1.00  0.00     0.078 C 
ENDROOT
BRANCH  11  17
HETATM   17  N   UNL     1      40.769 -15.671  -0.511  1.00  0.00    -0.127 N 
HETATM   18  H   UNL     1      39.988 -16.149  -0.959  1.00  0.00     0.206 HD
BRANCH  17  19
HETATM   19  N   UNL     1      41.625 -15.016  -1.412  1.00  0.00    -0.255 N 
HETATM   20  C   UNL     1      41.135 -13.859  -1.988  1.00  0.00     0.240 C 
HETATM   21  O   UNL     1      40.064 -13.360  -1.642  1.00  0.00    -0.272 OA
HETATM   22  H   UNL     1      42.303 -15.622  -1.875  1.00  0.00     0.190 HD
BRANCH  20  23
HETATM   23  C   UNL     1      42.041 -13.250  -3.041  1.00  0.00     0.143 C 
BRANCH  23  24
HETATM   24  C   UNL     1      42.471 -11.832  -2.746  1.00  0.00    -0.049 A 
HETATM   25  C   UNL     1      42.126 -10.779  -3.606  1.00  0.00     0.007 A 
HETATM   26  C   UNL     1      42.487  -9.464  -3.302  1.00  0.00     0.001 A 
HETATM   27  C   UNL     1      43.184  -9.185  -2.129  1.00  0.00     0.000 A 
HETATM   28  C   UNL     1      43.522 -10.220  -1.261  1.00  0.00     0.001 A 
HETATM   29  C   UNL     1      43.167 -11.536  -1.566  1.00  0.00     0.007 A 
ENDBRANCH  23  24
ENDBRANCH  20  23
ENDBRANCH  17  19
ENDBRANCH  11  17
BRANCH  12  30
HETATM   30  C   UNL     1      40.857 -14.043   1.844  1.00  0.00     0.060 A 
HETATM   31  C   UNL     1      39.502 -13.933   2.191  1.00  0.00     0.030 A 
HETATM   32  C   UNL     1      38.884 -12.683   2.257  1.00  0.00     0.002 A 
HETATM   33  C   UNL     1      39.606 -11.529   1.964  1.00  0.00     0.000 A 
HETATM   34  C   UNL     1      40.946 -11.623   1.596  1.00  0.00     0.002 A 
HETATM   35  C   UNL     1      41.566 -12.873   1.528  1.00  0.00     0.030 A 
ENDBRANCH  12  30
TORSDOF 5
ENDMDL
MODEL 3
REMARK VINA RESULT:      -8.9      3.930      4.710
REMARK  5 active torsions:
REMARK  status: ('A' for Active; 'I' for Inactive)
REMARK    1  A    between atoms: C_11  and  N_12 
REMARK    2  A    between atoms: N_12  and  N_13 
REMARK       I    between atoms: N_13  and  C_14 
REMARK    3  A    between atoms: C_14  and  C_15 
REMARK    4  A    between atoms: C_15  and  C_16 
REMARK    5  A    between atoms: N_23  and  C_24 
ROOT
HETATM    1  C   UNL     1      39.105  -8.157   6.495  1.00  0.00     0.046 C 
HETATM    2  C   UNL     1      39.339  -9.027   5.252  1.00  0.00     0.058 C 
HETATM    3  C   UNL     1      40.464  -8.388   4.421  1.00  0.00     0.046 C 
HETATM    4  O   UNL     1      38.088  -9.024   4.527  1.00  0.00    -0.376 OA
HETATM    5  C   UNL     1      38.074  -9.765   3.292  1.00  0.00     0.215 C 
HETATM    6  C   UNL     1      38.719 -11.096   3.499  1.00  0.00     0.016 A 
HETATM    7  C   UNL     1      39.487 -11.447   4.591  1.00  0.00    -0.021 A 
HETATM    8  C   UNL     1      39.964 -12.791   4.484  1.00  0.00     0.077 A 
HETATM    9  C   UNL     1      39.573 -13.387   3.311  1.00  0.00     0.133 A 
HETATM   10  N   UNL     1      39.841 -14.651   2.917  1.00  0.00    -0.054 NA
HETATM   11  C   UNL     1      40.558 -15.376   3.746  1.00  0.00     0.730 A 
HETATM   12  N   UNL     1      41.084 -14.863   4.958  1.00  0.00    -0.107 N 
HETATM   13  C   UNL     1      40.777 -13.561   5.405  1.00  0.00     0.280 A 
HETATM   14  O   UNL     1      41.166 -13.059   6.457  1.00  0.00    -0.266 OA
HETATM   15  S   UNL     1      38.620 -12.345   2.349  1.00  0.00    -0.071 SA
HETATM   16  C   UNL     1      39.696 -10.470   5.707  1.00  0.00     0.078 C 
ENDROOT
BRANCH  11  17
HETATM   17  N   UNL     1      40.728 -16.714   3.424  1.00  0.00    -0.127 N 
HETATM   18  H   UNL     1      40.214 -17.445   3.914  1.00  0.00     0.206 HD
BRANCH  17  19
HETATM   19  N   UNL     1      42.010 -17.106   3.005  1.00  0.00    -0.255 N 
HETATM   20  C   UNL     1      42.075 -17.818   1.822  1.00  0.00     0.240 C 
HETATM   21  O   UNL     1      41.085 -17.992   1.110  1.00  0.00    -0.272 OA
HETATM   22  H   UNL     1      42.690 -17.219   3.757  1.00  0.00     0.190 HD
BRANCH  20  23
HETATM   23  C   UNL     1      43.461 -18.323   1.468  1.00  0.00     0.143 C 
BRANCH  23  24
HETATM   24  C   UNL     1      43.915 -19.512   2.282  1.00  0.00    -0.049 A 
HETATM   25  C   UNL     1      44.293 -19.367   3.624  1.00  0.00     0.007 A 
HETATM   26  C   UNL     1      44.667 -20.478   4.383  1.00  0.00     0.001 A 
HETATM   27  C   UNL     1      44.654 -21.749   3.813  1.00  0.00     0.000 A 
HETATM   28  C   UNL     1      44.269 -21.908   2.484  1.00  0.00     0.001 A 
HETATM   29  C   UNL     1      43.900 -20.797   1.722  1.00  0.00     0.007 A 
ENDBRANCH  23  24
ENDBRANCH  20  23
ENDBRANCH  17  19
ENDBRANCH  11  17
BRANCH  12  30
HETATM   30  C   UNL     1      41.997 -15.633   5.753  1.00  0.00     0.060 A 
HETATM   31  C   UNL     1      41.533 -16.664   6.583  1.00  0.00     0.030 A 
HETATM   32  C   UNL     1      42.426 -17.415   7.351  1.00  0.00     0.002 A 
HETATM   33  C   UNL     1      43.789 -17.138   7.310  1.00  0.00     0.000 A 
HETATM   34  C   UNL     1      44.263 -16.102   6.508  1.00  0.00     0.002 A 
HETATM   35  C   UNL     1      43.373 -15.349   5.740  1.00  0.00     0.030 A 
ENDBRANCH  12  30
TORSDOF 5
ENDMDL
MODEL 4
REMARK VINA RESULT:      -8.9      4.300      9.220
REMARK  5 active torsions:
REMARK  status: ('A' for Active; 'I' for Inactive)
REMARK    1  A    between atoms: C_11  and  N_12 
REMARK    2  A    between atoms: N_12  and  N_13 
REMARK       I    between atoms: N_13  and  C_14 
REMARK    3  A    between atoms: C_14  and  C_15 
REMARK    4  A    between atoms: C_15  and  C_16 
REMARK    5  A    between atoms: N_23  and  C_24 
ROOT
HETATM    1  C   UNL     1      43.408 -21.881   1.755  1.00  0.00     0.046 C 
HETATM    2  C   UNL     1      44.176 -20.919   2.671  1.00  0.00     0.058 C 
HETATM    3  C   UNL     1      45.519 -20.583   2.002  1.00  0.00     0.046 C 
HETATM    4  O   UNL     1      44.375 -21.632   3.914  1.00  0.00    -0.376 OA
HETATM    5  C   UNL     1      45.109 -20.926   4.934  1.00  0.00     0.215 C 
HETATM    6  C   UNL     1      44.594 -19.529   5.045  1.00  0.00     0.016 A 
HETATM    7  C   UNL     1      43.778 -18.905   4.121  1.00  0.00    -0.021 A 
HETATM    8  C   UNL     1      43.469 -17.567   4.518  1.00  0.00     0.077 A 
HETATM    9  C   UNL     1      44.084 -17.220   5.695  1.00  0.00     0.133 A 
HETATM   10  N   UNL     1      43.981 -16.040   6.345  1.00  0.00    -0.054 NA
HETATM   11  C   UNL     1      43.216 -15.133   5.781  1.00  0.00     0.730 A 
HETATM   12  N   UNL     1      42.578 -15.335   4.532  1.00  0.00    -0.107 N 
HETATM   13  C   UNL     1      42.638 -16.575   3.862  1.00  0.00     0.280 A 
HETATM   14  O   UNL     1      42.086 -16.836   2.796  1.00  0.00    -0.266 OA
HETATM   15  S   UNL     1      45.015 -18.502   6.334  1.00  0.00    -0.071 SA
HETATM   16  C   UNL     1      43.310 -19.651   2.909  1.00  0.00     0.078 C 
ENDROOT
BRANCH  11  17
HETATM   17  N   UNL     1      42.989 -13.969   6.499  1.00  0.00    -0.127 N 
HETATM   18  H   UNL     1      42.625 -13.131   6.046  1.00  0.00     0.206 HD
BRANCH  17  19
HETATM   19  N   UNL     1      43.864 -13.703   7.565  1.00  0.00    -0.255 N 
HETATM   20  C   UNL     1      43.831 -12.419   8.075  1.00  0.00     0.240 C 
HETATM   21  O   UNL     1      42.999 -11.589   7.704  1.00  0.00    -0.272 OA
HETATM   22  H   UNL     1      44.700 -14.287   7.588  1.00  0.00     0.190 HD
BRANCH  20  23
HETATM   23  C   UNL     1      44.873 -12.140   9.142  1.00  0.00     0.143 C 
BRANCH  23  24
HETATM   24  C   UNL     1      44.312 -11.565  10.422  1.00  0.00    -0.049 A 
HETATM   25  C   UNL     1      44.200 -10.179  10.604  1.00  0.00     0.007 A 
HETATM   26  C   UNL     1      43.638  -9.657  11.770  1.00  0.00     0.001 A 
HETATM   27  C   UNL     1      43.168 -10.513  12.763  1.00  0.00     0.000 A 
HETATM   28  C   UNL     1      43.262 -11.892  12.590  1.00  0.00     0.001 A 
HETATM   29  C   UNL     1      43.830 -12.416  11.426  1.00  0.00     0.007 A 
ENDBRANCH  23  24
ENDBRANCH  20  23
ENDBRANCH  17  19
ENDBRANCH  11  17
BRANCH  12  30
HETATM   30  C   UNL     1      41.888 -14.264   3.871  1.00  0.00     0.060 A 
HETATM   31  C   UNL     1      40.540 -13.999   4.151  1.00  0.00     0.030 A 
HETATM   32  C   UNL     1      39.873 -12.952   3.511  1.00  0.00     0.002 A 
HETATM   33  C   UNL     1      40.541 -12.167   2.574  1.00  0.00     0.000 A 
HETATM   34  C   UNL     1      41.873 -12.432   2.269  1.00  0.00     0.002 A 
HETATM   35  C   UNL     1      42.542 -13.479   2.907  1.00  0.00     0.030 A 
ENDBRANCH  12  30
TORSDOF 5
ENDMDL
MODEL 5
REMARK VINA RESULT:      -8.8      1.967      2.728
REMARK  5 active torsions:
REMARK  status: ('A' for Active; 'I' for Inactive)
REMARK    1  A    between atoms: C_11  and  N_12 
REMARK    2  A    between atoms: N_12  and  N_13 
REMARK       I    between atoms: N_13  and  C_14 
REMARK    3  A    between atoms: C_14  and  C_15 
REMARK    4  A    between atoms: C_15  and  C_16 
REMARK    5  A    between atoms: N_23  and  C_24 
ROOT
HETATM    1  C   UNL     1      38.146 -12.859  -2.987  1.00  0.00     0.046 C 
HETATM    2  C   UNL     1      39.426 -13.454  -2.386  1.00  0.00     0.058 C 
HETATM    3  C   UNL     1      40.621 -12.615  -2.870  1.00  0.00     0.046 C 
HETATM    4  O   UNL     1      39.504 -14.809  -2.884  1.00  0.00    -0.376 OA
HETATM    5  C   UNL     1      40.656 -15.567  -2.468  1.00  0.00     0.215 C 
HETATM    6  C   UNL     1      40.873 -15.385  -1.002  1.00  0.00     0.016 A 
HETATM    7  C   UNL     1      40.279 -14.411  -0.225  1.00  0.00    -0.021 A 
HETATM    8  C   UNL     1      40.701 -14.502   1.139  1.00  0.00     0.077 A 
HETATM    9  C   UNL     1      41.615 -15.508   1.332  1.00  0.00     0.133 A 
HETATM   10  N   UNL     1      42.190 -15.864   2.501  1.00  0.00    -0.054 NA
HETATM   11  C   UNL     1      41.838 -15.165   3.557  1.00  0.00     0.730 A 
HETATM   12  N   UNL     1      40.958 -14.057   3.486  1.00  0.00    -0.107 N 
HETATM   13  C   UNL     1      40.314 -13.699   2.283  1.00  0.00     0.280 A 
HETATM   14  O   UNL     1      39.515 -12.775   2.151  1.00  0.00    -0.266 OA
HETATM   15  S   UNL     1      41.953 -16.354  -0.113  1.00  0.00    -0.071 SA
HETATM   16  C   UNL     1      39.303 -13.454  -0.837  1.00  0.00     0.078 C 
ENDROOT
BRANCH  11  17
HETATM   17  N   UNL     1      42.311 -15.602   4.785  1.00  0.00    -0.127 N 
HETATM   18  H   UNL     1      42.301 -14.993   5.602  1.00  0.00     0.206 HD
BRANCH  17  19
HETATM   19  N   UNL     1      43.388 -16.504   4.763  1.00  0.00    -0.255 N 
HETATM   20  C   UNL     1      43.088 -17.819   5.064  1.00  0.00     0.240 C 
HETATM   21  O   UNL     1      41.929 -18.207   5.220  1.00  0.00    -0.272 OA
HETATM   22  H   UNL     1      44.300 -16.087   4.951  1.00  0.00     0.190 HD
BRANCH  20  23
HETATM   23  C   UNL     1      44.295 -18.735   5.146  1.00  0.00     0.143 C 
BRANCH  23  24
HETATM   24  C   UNL     1      44.297 -19.852   4.129  1.00  0.00    -0.049 A 
HETATM   25  C   UNL     1      44.703 -21.148   4.479  1.00  0.00     0.007 A 
HETATM   26  C   UNL     1      44.658 -22.185   3.544  1.00  0.00     0.001 A 
HETATM   27  C   UNL     1      44.194 -21.943   2.254  1.00  0.00     0.000 A 
HETATM   28  C   UNL     1      43.777 -20.663   1.897  1.00  0.00     0.001 A 
HETATM   29  C   UNL     1      43.826 -19.623   2.828  1.00  0.00     0.007 A 
ENDBRANCH  23  24
ENDBRANCH  20  23
ENDBRANCH  17  19
ENDBRANCH  11  17
BRANCH  12  30
HETATM   30  C   UNL     1      40.728 -13.220   4.629  1.00  0.00     0.060 A 
HETATM   31  C   UNL     1      41.574 -12.137   4.907  1.00  0.00     0.030 A 
HETATM   32  C   UNL     1      41.344 -11.321   6.017  1.00  0.00     0.002 A 
HETATM   33  C   UNL     1      40.275 -11.585   6.869  1.00  0.00     0.000 A 
HETATM   34  C   UNL     1      39.439 -12.671   6.620  1.00  0.00     0.002 A 
HETATM   35  C   UNL     1      39.668 -13.489   5.511  1.00  0.00     0.030 A 
ENDBRANCH  12  30
TORSDOF 5
ENDMDL
MODEL 6
REMARK VINA RESULT:      -8.5      1.448      2.040
REMARK  5 active torsions:
REMARK  status: ('A' for Active; 'I' for Inactive)
REMARK    1  A    between atoms: C_11  and  N_12 
REMARK    2  A    between atoms: N_12  and  N_13 
REMARK       I    between atoms: N_13  and  C_14 
REMARK    3  A    between atoms: C_14  and  C_15 
REMARK    4  A    between atoms: C_15  and  C_16 
REMARK    5  A    between atoms: N_23  and  C_24 
ROOT
HETATM    1  C   UNL     1      42.307  -7.346  -1.106  1.00  0.00     0.046 C 
HETATM    2  C   UNL     1      42.744  -8.786  -1.404  1.00  0.00     0.058 C 
HETATM    3  C   UNL     1      44.279  -8.848  -1.340  1.00  0.00     0.046 C 
HETATM    4  O   UNL     1      42.264  -9.077  -2.736  1.00  0.00    -0.376 OA
HETATM    5  C   UNL     1      42.584 -10.385  -3.249  1.00  0.00     0.215 C 
HETATM    6  C   UNL     1      42.306 -11.414  -2.204  1.00  0.00     0.016 A 
HETATM    7  C   UNL     1      42.087 -11.152  -0.867  1.00  0.00    -0.021 A 
HETATM    8  C   UNL     1      41.858 -12.355  -0.129  1.00  0.00     0.077 A 
HETATM    9  C   UNL     1      41.946 -13.473  -0.922  1.00  0.00     0.133 A 
HETATM   10  N   UNL     1      41.764 -14.755  -0.536  1.00  0.00    -0.054 NA
HETATM   11  C   UNL     1      41.479 -14.943   0.733  1.00  0.00     0.730 A 
HETATM   12  N   UNL     1      41.426 -13.884   1.674  1.00  0.00    -0.107 N 
HETATM   13  C   UNL     1      41.569 -12.537   1.280  1.00  0.00     0.280 A 
HETATM   14  O   UNL     1      41.502 -11.566   2.030  1.00  0.00    -0.266 OA
HETATM   15  S   UNL     1      42.285 -13.080  -2.550  1.00  0.00    -0.071 SA
HETATM   16  C   UNL     1      42.079  -9.739  -0.371  1.00  0.00     0.078 C 
ENDROOT
BRANCH  11  17
HETATM   17  N   UNL     1      41.154 -16.234   1.119  1.00  0.00    -0.127 N 
HETATM   18  H   UNL     1      40.637 -16.415   1.978  1.00  0.00     0.206 HD
BRANCH  17  19
HETATM   19  N   UNL     1      42.073 -17.243   0.787  1.00  0.00    -0.255 N 
HETATM   20  C   UNL     1      42.550 -18.004   1.838  1.00  0.00     0.240 C 
HETATM   21  O   UNL     1      42.104 -17.892   2.981  1.00  0.00    -0.272 OA
HETATM   22  H   UNL     1      42.615 -17.068  -0.059  1.00  0.00     0.190 HD
BRANCH  20  23
HETATM   23  C   UNL     1      43.627 -19.002   1.455  1.00  0.00     0.143 C 
BRANCH  23  24
HETATM   24  C   UNL     1      44.012 -19.956   2.560  1.00  0.00    -0.049 A 
HETATM   25  C   UNL     1      44.015 -21.342   2.350  1.00  0.00     0.007 A 
HETATM   26  C   UNL     1      44.417 -22.215   3.363  1.00  0.00     0.001 A 
HETATM   27  C   UNL     1      44.836 -21.713   4.592  1.00  0.00     0.000 A 
HETATM   28  C   UNL     1      44.849 -20.337   4.810  1.00  0.00     0.001 A 
HETATM   29  C   UNL     1      44.442 -19.463   3.801  1.00  0.00     0.007 A 
ENDBRANCH  23  24
ENDBRANCH  20  23
ENDBRANCH  17  19
ENDBRANCH  11  17
BRANCH  12  30
HETATM   30  C   UNL     1      41.276 -14.147   3.076  1.00  0.00     0.060 A 
HETATM   31  C   UNL     1      42.391 -14.435   3.876  1.00  0.00     0.030 A 
HETATM   32  C   UNL     1      42.243 -14.684   5.242  1.00  0.00     0.002 A 
HETATM   33  C   UNL     1      40.977 -14.663   5.823  1.00  0.00     0.000 A 
HETATM   34  C   UNL     1      39.857 -14.401   5.038  1.00  0.00     0.002 A 
HETATM   35  C   UNL     1      40.004 -14.152   3.671  1.00  0.00     0.030 A 
ENDBRANCH  12  30
TORSDOF 5
ENDMDL
MODEL 7
REMARK VINA RESULT:      -8.4      2.699      8.851
REMARK  5 active torsions:
REMARK  status: ('A' for Active; 'I' for Inactive)
REMARK    1  A    between atoms: C_11  and  N_12 
REMARK    2  A    between atoms: N_12  and  N_13 
REMARK       I    between atoms: N_13  and  C_14 
REMARK    3  A    between atoms: C_14  and  C_15 
REMARK    4  A    between atoms: C_15  and  C_16 
REMARK    5  A    between atoms: N_23  and  C_24 
ROOT
HETATM    1  C   UNL     1      44.014 -15.652   7.360  1.00  0.00     0.046 C 
HETATM    2  C   UNL     1      43.336 -16.427   6.222  1.00  0.00     0.058 C 
HETATM    3  C   UNL     1      41.966 -16.916   6.720  1.00  0.00     0.046 C 
HETATM    4  O   UNL     1      44.212 -17.539   5.925  1.00  0.00    -0.376 OA
HETATM    5  C   UNL     1      43.762 -18.435   4.891  1.00  0.00     0.215 C 
HETATM    6  C   UNL     1      43.272 -17.646   3.722  1.00  0.00     0.016 A 
HETATM    7  C   UNL     1      42.991 -16.294   3.736  1.00  0.00    -0.021 A 
HETATM    8  C   UNL     1      42.534 -15.842   2.459  1.00  0.00     0.077 A 
HETATM    9  C   UNL     1      42.455 -16.865   1.546  1.00  0.00     0.133 A 
HETATM   10  N   UNL     1      42.079 -16.767   0.252  1.00  0.00    -0.054 NA
HETATM   11  C   UNL     1      41.750 -15.565  -0.166  1.00  0.00     0.730 A 
HETATM   12  N   UNL     1      41.721 -14.435   0.688  1.00  0.00    -0.107 N 
HETATM   13  C   UNL     1      42.153 -14.511   2.029  1.00  0.00     0.280 A 
HETATM   14  O   UNL     1      42.188 -13.570   2.820  1.00  0.00    -0.266 OA
HETATM   15  S   UNL     1      42.945 -18.360   2.213  1.00  0.00    -0.071 SA
HETATM   16  C   UNL     1      43.208 -15.495   4.985  1.00  0.00     0.078 C 
ENDROOT
BRANCH  11  17
HETATM   17  N   UNL     1      41.494 -15.421  -1.521  1.00  0.00    -0.127 N 
HETATM   18  H   UNL     1      41.930 -14.676  -2.065  1.00  0.00     0.206 HD
BRANCH  17  19
HETATM   19  N   UNL     1      40.206 -15.765  -1.962  1.00  0.00    -0.255 N 
HETATM   20  C   UNL     1      39.826 -15.259  -3.190  1.00  0.00     0.240 C 
HETATM   21  O   UNL     1      40.610 -14.645  -3.916  1.00  0.00    -0.272 OA
HETATM   22  H   UNL     1      39.539 -15.972  -1.217  1.00  0.00     0.190 HD
BRANCH  20  23
HETATM   23  C   UNL     1      38.388 -15.556  -3.574  1.00  0.00     0.143 C 
BRANCH  23  24
HETATM   24  C   UNL     1      37.505 -14.334  -3.666  1.00  0.00    -0.049 A 
HETATM   25  C   UNL     1      37.755 -13.200  -2.880  1.00  0.00     0.007 A 
HETATM   26  C   UNL     1      36.962 -12.057  -3.005  1.00  0.00     0.001 A 
HETATM   27  C   UNL     1      35.919 -12.029  -3.926  1.00  0.00     0.000 A 
HETATM   28  C   UNL     1      35.666 -13.144  -4.721  1.00  0.00     0.001 A 
HETATM   29  C   UNL     1      36.454 -14.290  -4.594  1.00  0.00     0.007 A 
ENDBRANCH  23  24
ENDBRANCH  20  23
ENDBRANCH  17  19
ENDBRANCH  11  17
BRANCH  12  30
HETATM   30  C   UNL     1      41.199 -13.178   0.236  1.00  0.00     0.060 A 
HETATM   31  C   UNL     1      42.033 -12.234  -0.381  1.00  0.00     0.030 A 
HETATM   32  C   UNL     1      41.520 -11.014  -0.826  1.00  0.00     0.002 A 
HETATM   33  C   UNL     1      40.171 -10.716  -0.648  1.00  0.00     0.000 A 
HETATM   34  C   UNL     1      39.334 -11.634  -0.018  1.00  0.00     0.002 A 
HETATM   35  C   UNL     1      39.846 -12.854   0.429  1.00  0.00     0.030 A 
ENDBRANCH  12  30
TORSDOF 5
ENDMDL
MODEL 8
REMARK VINA RESULT:      -8.4      2.620      3.473
REMARK  5 active torsions:
REMARK  status: ('A' for Active; 'I' for Inactive)
REMARK    1  A    between atoms: C_11  and  N_12 
REMARK    2  A    between atoms: N_12  and  N_13 
REMARK       I    between atoms: N_13  and  C_14 
REMARK    3  A    between atoms: C_14  and  C_15 
REMARK    4  A    between atoms: C_15  and  C_16 
REMARK    5  A    between atoms: N_23  and  C_24 
ROOT
HETATM    1  C   UNL     1      39.946 -11.530  -1.989  1.00  0.00     0.046 C 
HETATM    2  C   UNL     1      40.623 -12.640  -1.175  1.00  0.00     0.058 C 
HETATM    3  C   UNL     1      42.142 -12.543  -1.395  1.00  0.00     0.046 C 
HETATM    4  O   UNL     1      40.099 -13.884  -1.691  1.00  0.00    -0.376 OA
HETATM    5  C   UNL     1      40.618 -15.085  -1.088  1.00  0.00     0.215 C 
HETATM    6  C   UNL     1      40.628 -14.935   0.398  1.00  0.00     0.016 A 
HETATM    7  C   UNL     1      40.474 -13.744   1.078  1.00  0.00    -0.021 A 
HETATM    8  C   UNL     1      40.539 -13.938   2.493  1.00  0.00     0.077 A 
HETATM    9  C   UNL     1      40.773 -15.250   2.825  1.00  0.00     0.133 A 
HETATM   10  N   UNL     1      40.870 -15.764   4.071  1.00  0.00    -0.054 NA
HETATM   11  C   UNL     1      40.731 -14.912   5.062  1.00  0.00     0.730 A 
HETATM   12  N   UNL     1      40.555 -13.521   4.860  1.00  0.00    -0.107 N 
HETATM   13  C   UNL     1      40.407 -12.974   3.568  1.00  0.00     0.280 A 
HETATM   14  O   UNL     1      40.218 -11.786   3.315  1.00  0.00    -0.266 OA
HETATM   15  S   UNL     1      40.895 -16.249   1.445  1.00  0.00    -0.071 SA
HETATM   16  C   UNL     1      40.238 -12.472   0.322  1.00  0.00     0.078 C 
ENDROOT
BRANCH  11  17
HETATM   17  N   UNL     1      40.691 -15.441   6.343  1.00  0.00    -0.127 N 
HETATM   18  H   UNL     1      40.796 -14.846   7.164  1.00  0.00     0.206 HD
BRANCH  17  19
HETATM   19  N   UNL     1      41.211 -16.735   6.510  1.00  0.00    -0.255 N 
HETATM   20  C   UNL     1      42.561 -16.818   6.796  1.00  0.00     0.240 C 
HETATM   21  O   UNL     1      43.245 -15.817   7.016  1.00  0.00    -0.272 OA
HETATM   22  H   UNL     1      40.704 -17.468   6.012  1.00  0.00     0.190 HD
BRANCH  20  23
HETATM   23  C   UNL     1      43.106 -18.233   6.850  1.00  0.00     0.143 C 
BRANCH  23  24
HETATM   24  C   UNL     1      43.603 -18.758   5.524  1.00  0.00    -0.049 A 
HETATM   25  C   UNL     1      44.306 -19.969   5.444  1.00  0.00     0.007 A 
HETATM   26  C   UNL     1      44.722 -20.471   4.210  1.00  0.00     0.001 A 
HETATM   27  C   UNL     1      44.427 -19.778   3.039  1.00  0.00     0.000 A 
HETATM   28  C   UNL     1      43.719 -18.580   3.103  1.00  0.00     0.001 A 
HETATM   29  C   UNL     1      43.307 -18.073   4.337  1.00  0.00     0.007 A 
ENDBRANCH  23  24
ENDBRANCH  20  23
ENDBRANCH  17  19
ENDBRANCH  11  17
BRANCH  12  30
HETATM   30  C   UNL     1      40.574 -12.605   5.964  1.00  0.00     0.060 A 
HETATM   31  C   UNL     1      39.412 -12.351   6.706  1.00  0.00     0.030 A 
HETATM   32  C   UNL     1      39.436 -11.463   7.784  1.00  0.00     0.002 A 
HETATM   33  C   UNL     1      40.616 -10.808   8.124  1.00  0.00     0.000 A 
HETATM   34  C   UNL     1      41.773 -11.032   7.383  1.00  0.00     0.002 A 
HETATM   35  C   UNL     1      41.752 -11.919   6.304  1.00  0.00     0.030 A 
ENDBRANCH  12  30
TORSDOF 5
ENDMDL
MODEL 9
REMARK VINA RESULT:      -8.2      3.812      9.227
REMARK  5 active torsions:
REMARK  status: ('A' for Active; 'I' for Inactive)
REMARK    1  A    between atoms: C_11  and  N_12 
REMARK    2  A    between atoms: N_12  and  N_13 
REMARK       I    between atoms: N_13  and  C_14 
REMARK    3  A    between atoms: C_14  and  C_15 
REMARK    4  A    between atoms: C_15  and  C_16 
REMARK    5  A    between atoms: N_23  and  C_24 
ROOT
HETATM    1  C   UNL     1      44.107 -21.810   2.037  1.00  0.00     0.046 C 
HETATM    2  C   UNL     1      44.270 -20.558   2.909  1.00  0.00     0.058 C 
HETATM    3  C   UNL     1      45.625 -19.910   2.575  1.00  0.00     0.046 C 
HETATM    4  O   UNL     1      44.237 -21.023   4.278  1.00  0.00    -0.376 OA
HETATM    5  C   UNL     1      44.401 -20.012   5.291  1.00  0.00     0.215 C 
HETATM    6  C   UNL     1      43.539 -18.836   4.968  1.00  0.00     0.016 A 
HETATM    7  C   UNL     1      42.931 -18.605   3.750  1.00  0.00    -0.021 A 
HETATM    8  C   UNL     1      42.181 -17.388   3.764  1.00  0.00     0.077 A 
HETATM    9  C   UNL     1      42.278 -16.733   4.967  1.00  0.00     0.133 A 
HETATM   10  N   UNL     1      41.675 -15.573   5.307  1.00  0.00    -0.054 NA
HETATM   11  C   UNL     1      40.926 -15.016   4.382  1.00  0.00     0.730 A 
HETATM   12  N   UNL     1      40.795 -15.550   3.076  1.00  0.00    -0.107 N 
HETATM   13  C   UNL     1      41.380 -16.782   2.718  1.00  0.00     0.280 A 
HETATM   14  O   UNL     1      41.283 -17.324   1.619  1.00  0.00    -0.266 OA
HETATM   15  S   UNL     1      43.251 -17.585   6.084  1.00  0.00    -0.071 SA
HETATM   16  C   UNL     1      43.081 -19.596   2.637  1.00  0.00     0.078 C 
ENDROOT
BRANCH  11  17
HETATM   17  N   UNL     1      40.193 -13.901   4.756  1.00  0.00    -0.127 N 
HETATM   18  H   UNL     1      40.221 -13.042   4.208  1.00  0.00     0.206 HD
BRANCH  17  19
HETATM   19  N   UNL     1      40.023 -13.689   6.134  1.00  0.00    -0.255 N 
HETATM   20  C   UNL     1      39.236 -12.611   6.493  1.00  0.00     0.240 C 
HETATM   21  O   UNL     1      38.617 -11.947   5.660  1.00  0.00    -0.272 OA
HETATM   22  H   UNL     1      40.783 -14.039   6.718  1.00  0.00     0.190 HD
BRANCH  20  23
HETATM   23  C   UNL     1      39.175 -12.347   7.986  1.00  0.00     0.143 C 
BRANCH  23  24
HETATM   24  C   UNL     1      39.636 -10.967   8.392  1.00  0.00    -0.049 A 
HETATM   25  C   UNL     1      38.883 -10.186   9.281  1.00  0.00     0.007 A 
HETATM   26  C   UNL     1      39.339  -8.930   9.688  1.00  0.00     0.001 A 
HETATM   27  C   UNL     1      40.559  -8.446   9.224  1.00  0.00     0.000 A 
HETATM   28  C   UNL     1      41.323  -9.217   8.350  1.00  0.00     0.001 A 
HETATM   29  C   UNL     1      40.865 -10.471   7.937  1.00  0.00     0.007 A 
ENDBRANCH  23  24
ENDBRANCH  20  23
ENDBRANCH  17  19
ENDBRANCH  11  17
BRANCH  12  30
HETATM   30  C   UNL     1      40.103 -14.827   2.047  1.00  0.00     0.060 A 
HETATM   31  C   UNL     1      38.718 -14.969   1.878  1.00  0.00     0.030 A 
HETATM   32  C   UNL     1      38.047 -14.259   0.880  1.00  0.00     0.002 A 
HETATM   33  C   UNL     1      38.753 -13.410   0.030  1.00  0.00     0.000 A 
HETATM   34  C   UNL     1      40.132 -13.276   0.172  1.00  0.00     0.002 A 
HETATM   35  C   UNL     1      40.805 -13.985   1.169  1.00  0.00     0.030 A 
ENDBRANCH  12  30
TORSDOF 5
ENDMDL
MODEL 10
REMARK VINA RESULT:      -8.2      3.871      8.994
REMARK  5 active torsions:
REMARK  status: ('A' for Active; 'I' for Inactive)
REMARK    1  A    between atoms: C_11  and  N_12 
REMARK    2  A    between atoms: N_12  and  N_13 
REMARK       I    between atoms: N_13  and  C_14 
REMARK    3  A    between atoms: C_14  and  C_15 
REMARK    4  A    between atoms: C_15  and  C_16 
REMARK    5  A    between atoms: N_23  and  C_24 
ROOT
HETATM    1  C   UNL     1      43.974 -21.500   1.962  1.00  0.00     0.046 C 
HETATM    2  C   UNL     1      44.250 -20.450   3.047  1.00  0.00     0.058 C 
HETATM    3  C   UNL     1      45.685 -19.929   2.861  1.00  0.00     0.046 C 
HETATM    4  O   UNL     1      44.104 -21.140   4.309  1.00  0.00    -0.376 OA
HETATM    5  C   UNL     1      44.345 -20.350   5.490  1.00  0.00     0.215 C 
HETATM    6  C   UNL     1      43.645 -19.037   5.365  1.00  0.00     0.016 A 
HETATM    7  C   UNL     1      43.120 -18.522   4.197  1.00  0.00    -0.021 A 
HETATM    8  C   UNL     1      42.522 -17.242   4.413  1.00  0.00     0.077 A 
HETATM    9  C   UNL     1      42.646 -16.825   5.715  1.00  0.00     0.133 A 
HETATM   10  N   UNL     1      42.174 -15.675   6.245  1.00  0.00    -0.054 NA
HETATM   11  C   UNL     1      41.536 -14.876   5.419  1.00  0.00     0.730 A 
HETATM   12  N   UNL     1      41.396 -15.152   4.037  1.00  0.00    -0.107 N 
HETATM   13  C   UNL     1      41.844 -16.367   3.476  1.00  0.00     0.280 A 
HETATM   14  O   UNL     1      41.729 -16.691   2.296  1.00  0.00    -0.266 OA
HETATM   15  S   UNL     1      43.462 -17.974   6.681  1.00  0.00    -0.071 SA
HETATM   16  C   UNL     1      43.197 -19.314   2.927  1.00  0.00     0.078 C 
ENDROOT
BRANCH  11  17
HETATM   17  N   UNL     1      40.927 -13.760   5.972  1.00  0.00    -0.127 N 
HETATM   18  H   UNL     1      40.078 -13.366   5.568  1.00  0.00     0.206 HD
BRANCH  17  19
HETATM   19  N   UNL     1      41.772 -12.803   6.558  1.00  0.00    -0.255 N 
HETATM   20  C   UNL     1      41.150 -11.725   7.159  1.00  0.00     0.240 C 
HETATM   21  O   UNL     1      39.926 -11.665   7.286  1.00  0.00    -0.272 OA
HETATM   22  H   UNL     1      42.704 -12.746   6.147  1.00  0.00     0.190 HD
BRANCH  20  23
HETATM   23  C   UNL     1      42.098 -10.659   7.674  1.00  0.00     0.143 C 
BRANCH  23  24
HETATM   24  C   UNL     1      42.618 -10.911   9.069  1.00  0.00    -0.049 A 
HETATM   25  C   UNL     1      43.940 -11.325   9.285  1.00  0.00     0.007 A 
HETATM   26  C   UNL     1      44.426 -11.511  10.580  1.00  0.00     0.001 A 
HETATM   27  C   UNL     1      43.602 -11.271  11.677  1.00  0.00     0.000 A 
HETATM   28  C   UNL     1      42.290 -10.848  11.477  1.00  0.00     0.001 A 
HETATM   29  C   UNL     1      41.800 -10.667  10.182  1.00  0.00     0.007 A 
ENDBRANCH  23  24
ENDBRANCH  20  23
ENDBRANCH  17  19
ENDBRANCH  11  17
BRANCH  12  30
HETATM   30  C   UNL     1      40.840 -14.179   3.141  1.00  0.00     0.060 A 
HETATM   31  C   UNL     1      41.639 -13.162   2.600  1.00  0.00     0.030 A 
HETATM   32  C   UNL     1      41.096 -12.220   1.723  1.00  0.00     0.002 A 
HETATM   33  C   UNL     1      39.745 -12.276   1.387  1.00  0.00     0.000 A 
HETATM   34  C   UNL     1      38.934 -13.267   1.933  1.00  0.00     0.002 A 
HETATM   35  C   UNL     1      39.475 -14.209   2.811  1.00  0.00     0.030 A 
ENDBRANCH  12  30
TORSDOF 5
ENDMDL
