MODEL 1
REMARK VINA RESULT:      -7.7      0.000      0.000
REMARK  2 active torsions:
REMARK  status: ('A' for Active; 'I' for Inactive)
REMARK    1  A    between atoms: C_9  and  C_10 
REMARK       I    between atoms: C_10  and  N_11 
REMARK    2  A    between atoms: N_11  and  C_12 
ROOT
HETATM    1  C   UNL     1      45.130 -12.860   7.927  1.00  0.00     0.276 C 
HETATM    2  N   UNL     1      43.948 -13.436   7.514  1.00  0.00    -0.317 N 
HETATM    3  O   UNL     1      46.231 -13.040   7.415  1.00  0.00    -0.266 OA
HETATM    4  H   UNL     1      43.124 -13.164   8.055  1.00  0.00     0.169 HD
ENDROOT
BRANCH   1   5
HETATM    5  C   UNL     1      44.947 -11.971   9.086  1.00  0.00     0.147 A 
HETATM    6  N   UNL     1      45.692 -10.859   9.258  1.00  0.00    -0.169 NA
HETATM    7  N   UNL     1      45.220 -10.329  10.404  1.00  0.00    -0.275 N 
HETATM    8  C   UNL     1      44.213 -11.052  10.976  1.00  0.00     0.086 A 
HETATM    9  H   UNL     1      45.627  -9.466  10.751  1.00  0.00     0.189 HD
HETATM   10  C   UNL     1      43.584 -10.651  12.188  1.00  0.00     0.103 A 
HETATM   11  C   UNL     1      44.012 -12.129  10.144  1.00  0.00     0.073 A 
HETATM   12  O   UNL     1      43.931  -9.498  12.845  1.00  0.00    -0.320 OA
HETATM   13  C   UNL     1      42.577 -11.279  12.901  1.00  0.00     0.041 A 
HETATM   14  C   UNL     1      43.154  -9.402  13.951  1.00  0.00     0.142 A 
HETATM   15  C   UNL     1      42.302 -10.475  14.034  1.00  0.00     0.027 A 
ENDBRANCH   1   5
BRANCH   2  16
HETATM   16  C   UNL     1      43.729 -14.322   6.485  1.00  0.00     0.102 A 
HETATM   17  C   UNL     1      43.681 -15.788   6.859  1.00  0.00     0.218 A 
HETATM   18  O   UNL     1      43.833 -16.121   8.034  1.00  0.00    -0.284 OA
HETATM   19  C   UNL     1      43.447 -16.785   5.759  1.00  0.00     0.078 A 
HETATM   20 BR   UNL     1      43.380 -18.599   6.161  1.00  0.00    -0.045 Br
HETATM   21  C   UNL     1      43.296 -16.302   4.517  1.00  0.00     0.111 A 
HETATM   22  N   UNL     1      43.344 -14.967   4.215  1.00  0.00    -0.372 N 
HETATM   23  C   UNL     1      43.556 -14.023   5.188  1.00  0.00     0.121 A 
HETATM   24  H   UNL     1      43.226 -14.664   3.252  1.00  0.00     0.164 HD
ENDBRANCH   2  16
TORSDOF 2
ENDMDL
MODEL 2
REMARK VINA RESULT:      -7.2      6.086      9.535
REMARK  2 active torsions:
REMARK  status: ('A' for Active; 'I' for Inactive)
REMARK    1  A    between atoms: C_9  and  C_10 
REMARK       I    between atoms: C_10  and  N_11 
REMARK    2  A    between atoms: N_11  and  C_12 
ROOT
HETATM    1  C   UNL     1      42.899 -15.591   4.920  1.00  0.00     0.276 C 
HETATM    2  N   UNL     1      41.535 -15.507   4.736  1.00  0.00    -0.317 N 
HETATM    3  O   UNL     1      43.639 -14.658   5.214  1.00  0.00    -0.266 OA
HETATM    4  H   UNL     1      41.078 -16.392   4.501  1.00  0.00     0.169 HD
ENDROOT
BRANCH   1   5
HETATM    5  C   UNL     1      43.410 -16.957   4.722  1.00  0.00     0.147 A 
HETATM    6  N   UNL     1      44.163 -17.579   5.653  1.00  0.00    -0.169 NA
HETATM    7  N   UNL     1      44.414 -18.787   5.111  1.00  0.00    -0.275 N 
HETATM    8  C   UNL     1      43.861 -18.965   3.875  1.00  0.00     0.086 A 
HETATM    9  H   UNL     1      44.973 -19.455   5.633  1.00  0.00     0.189 HD
HETATM   10  C   UNL     1      44.013 -20.177   3.142  1.00  0.00     0.103 A 
HETATM   11  C   UNL     1      43.203 -17.792   3.591  1.00  0.00     0.073 A 
HETATM   12  O   UNL     1      44.701 -21.252   3.643  1.00  0.00    -0.320 OA
HETATM   13  C   UNL     1      43.541 -20.502   1.882  1.00  0.00     0.041 A 
HETATM   14  C   UNL     1      44.660 -22.238   2.714  1.00  0.00     0.142 A 
HETATM   15  C   UNL     1      43.958 -21.828   1.608  1.00  0.00     0.027 A 
ENDBRANCH   1   5
BRANCH   2  16
HETATM   16  C   UNL     1      40.715 -14.407   4.821  1.00  0.00     0.102 A 
HETATM   17  C   UNL     1      40.325 -13.756   3.511  1.00  0.00     0.218 A 
HETATM   18  O   UNL     1      40.743 -14.224   2.452  1.00  0.00    -0.284 OA
HETATM   19  C   UNL     1      39.433 -12.549   3.566  1.00  0.00     0.078 A 
HETATM   20 BR   UNL     1      38.923 -11.709   1.988  1.00  0.00    -0.045 Br
HETATM   21  C   UNL     1      39.042 -12.131   4.780  1.00  0.00     0.111 A 
HETATM   22  N   UNL     1      39.414 -12.746   5.945  1.00  0.00    -0.372 N 
HETATM   23  C   UNL     1      40.227 -13.850   5.941  1.00  0.00     0.121 A 
HETATM   24  H   UNL     1      39.087 -12.378   6.835  1.00  0.00     0.164 HD
ENDBRANCH   2  16
TORSDOF 2
ENDMDL
MODEL 3
REMARK VINA RESULT:      -7.2      8.058      9.929
REMARK  2 active torsions:
REMARK  status: ('A' for Active; 'I' for Inactive)
REMARK    1  A    between atoms: C_9  and  C_10 
REMARK       I    between atoms: C_10  and  N_11 
REMARK    2  A    between atoms: N_11  and  C_12 
ROOT
HETATM    1  C   UNL     1      42.816 -15.822   2.519  1.00  0.00     0.276 C 
HETATM    2  N   UNL     1      41.877 -16.129   1.558  1.00  0.00    -0.317 N 
HETATM    3  O   UNL     1      43.226 -14.697   2.784  1.00  0.00    -0.266 OA
HETATM    4  H   UNL     1      41.649 -17.124   1.480  1.00  0.00     0.169 HD
ENDROOT
BRANCH   1   5
HETATM    5  C   UNL     1      43.304 -17.016   3.229  1.00  0.00     0.147 A 
HETATM    6  N   UNL     1      43.622 -16.986   4.541  1.00  0.00    -0.169 NA
HETATM    7  N   UNL     1      44.006 -18.250   4.808  1.00  0.00    -0.275 N 
HETATM    8  C   UNL     1      43.955 -19.085   3.729  1.00  0.00     0.086 A 
HETATM    9  H   UNL     1      44.297 -18.487   5.751  1.00  0.00     0.189 HD
HETATM   10  C   UNL     1      44.320 -20.459   3.813  1.00  0.00     0.103 A 
HETATM   11  C   UNL     1      43.504 -18.313   2.684  1.00  0.00     0.073 A 
HETATM   12  O   UNL     1      44.720 -21.037   4.990  1.00  0.00    -0.320 OA
HETATM   13  C   UNL     1      44.346 -21.420   2.817  1.00  0.00     0.041 A 
HETATM   14  C   UNL     1      44.991 -22.341   4.739  1.00  0.00     0.142 A 
HETATM   15  C   UNL     1      44.777 -22.629   3.414  1.00  0.00     0.027 A 
ENDBRANCH   1   5
BRANCH   2  16
HETATM   16  C   UNL     1      41.213 -15.290   0.695  1.00  0.00     0.102 A 
HETATM   17  C   UNL     1      39.810 -14.886   1.095  1.00  0.00     0.218 A 
HETATM   18  O   UNL     1      39.333 -15.310   2.147  1.00  0.00    -0.284 OA
HETATM   19  C   UNL     1      39.053 -13.972   0.173  1.00  0.00     0.078 A 
HETATM   20 BR   UNL     1      37.326 -13.444   0.614  1.00  0.00    -0.045 Br
HETATM   21  C   UNL     1      39.679 -13.577  -0.947  1.00  0.00     0.111 A 
HETATM   22  N   UNL     1      40.951 -13.961  -1.276  1.00  0.00    -0.372 N 
HETATM   23  C   UNL     1      41.677 -14.794  -0.464  1.00  0.00     0.121 A 
HETATM   24  H   UNL     1      41.369 -13.629  -2.141  1.00  0.00     0.164 HD
ENDBRANCH   2  16
TORSDOF 2
ENDMDL
MODEL 4
REMARK VINA RESULT:      -7.0      9.334     11.020
REMARK  2 active torsions:
REMARK  status: ('A' for Active; 'I' for Inactive)
REMARK    1  A    between atoms: C_9  and  C_10 
REMARK       I    between atoms: C_10  and  N_11 
REMARK    2  A    between atoms: N_11  and  C_12 
ROOT
HETATM    1  C   UNL     1      41.243 -15.154   0.393  1.00  0.00     0.276 C 
HETATM    2  N   UNL     1      41.846 -14.861  -0.812  1.00  0.00    -0.317 N 
HETATM    3  O   UNL     1      40.145 -14.750   0.760  1.00  0.00    -0.266 OA
HETATM    4  H   UNL     1      42.762 -15.294  -0.951  1.00  0.00     0.169 HD
ENDROOT
BRANCH   1   5
HETATM    5  C   UNL     1      42.070 -16.034   1.235  1.00  0.00     0.147 A 
HETATM    6  N   UNL     1      42.745 -15.568   2.307  1.00  0.00    -0.169 NA
HETATM    7  N   UNL     1      43.356 -16.661   2.805  1.00  0.00    -0.275 N 
HETATM    8  C   UNL     1      43.108 -17.804   2.099  1.00  0.00     0.086 A 
HETATM    9  H   UNL     1      43.935 -16.568   3.633  1.00  0.00     0.189 HD
HETATM   10  C   UNL     1      43.662 -19.061   2.471  1.00  0.00     0.103 A 
HETATM   11  C   UNL     1      42.276 -17.430   1.070  1.00  0.00     0.073 A 
HETATM   12  O   UNL     1      44.457 -19.210   3.578  1.00  0.00    -0.320 OA
HETATM   13  C   UNL     1      43.528 -20.293   1.854  1.00  0.00     0.041 A 
HETATM   14  C   UNL     1      44.816 -20.515   3.657  1.00  0.00     0.142 A 
HETATM   15  C   UNL     1      44.270 -21.227   2.617  1.00  0.00     0.027 A 
ENDBRANCH   1   5
BRANCH   2  16
HETATM   16  C   UNL     1      41.390 -14.070  -1.839  1.00  0.00     0.102 A 
HETATM   17  C   UNL     1      41.993 -12.685  -1.941  1.00  0.00     0.218 A 
HETATM   18  O   UNL     1      42.845 -12.332  -1.126  1.00  0.00    -0.284 OA
HETATM   19  C   UNL     1      41.515 -11.791  -3.049  1.00  0.00     0.078 A 
HETATM   20 BR   UNL     1      42.221 -10.079  -3.221  1.00  0.00    -0.045 Br
HETATM   21  C   UNL     1      40.581 -12.287  -3.876  1.00  0.00     0.111 A 
HETATM   22  N   UNL     1      40.058 -13.546  -3.755  1.00  0.00    -0.372 N 
HETATM   23  C   UNL     1      40.466 -14.395  -2.758  1.00  0.00     0.121 A 
HETATM   24  H   UNL     1      39.350 -13.862  -4.412  1.00  0.00     0.164 HD
ENDBRANCH   2  16
TORSDOF 2
ENDMDL
MODEL 5
REMARK VINA RESULT:      -7.0      8.200     10.409
REMARK  2 active torsions:
REMARK  status: ('A' for Active; 'I' for Inactive)
REMARK    1  A    between atoms: C_9  and  C_10 
REMARK       I    between atoms: C_10  and  N_11 
REMARK    2  A    between atoms: N_11  and  C_12 
ROOT
HETATM    1  C   UNL     1      41.384 -15.377   2.607  1.00  0.00     0.276 C 
HETATM    2  N   UNL     1      40.487 -15.682   1.606  1.00  0.00    -0.317 N 
HETATM    3  O   UNL     1      41.531 -14.275   3.124  1.00  0.00    -0.266 OA
HETATM    4  H   UNL     1      40.497 -16.658   1.301  1.00  0.00     0.169 HD
ENDROOT
BRANCH   1   5
HETATM    5  C   UNL     1      42.185 -16.543   3.018  1.00  0.00     0.147 A 
HETATM    6  N   UNL     1      42.866 -16.566   4.183  1.00  0.00    -0.169 NA
HETATM    7  N   UNL     1      43.446 -17.783   4.193  1.00  0.00    -0.275 N 
HETATM    8  C   UNL     1      43.173 -18.536   3.087  1.00  0.00     0.086 A 
HETATM    9  H   UNL     1      44.023 -18.047   4.985  1.00  0.00     0.189 HD
HETATM   10  C   UNL     1      43.693 -19.850   2.916  1.00  0.00     0.103 A 
HETATM   11  C   UNL     1      42.356 -17.757   2.301  1.00  0.00     0.073 A 
HETATM   12  O   UNL     1      44.480 -20.454   3.863  1.00  0.00    -0.320 OA
HETATM   13  C   UNL     1      43.532 -20.724   1.854  1.00  0.00     0.041 A 
HETATM   14  C   UNL     1      44.805 -21.687   3.406  1.00  0.00     0.142 A 
HETATM   15  C   UNL     1      44.247 -21.904   2.170  1.00  0.00     0.027 A 
ENDBRANCH   1   5
BRANCH   2  16
HETATM   16  C   UNL     1      39.591 -14.859   0.965  1.00  0.00     0.102 A 
HETATM   17  C   UNL     1      40.016 -14.326  -0.386  1.00  0.00     0.218 A 
HETATM   18  O   UNL     1      41.112 -14.643  -0.847  1.00  0.00    -0.284 OA
HETATM   19  C   UNL     1      39.063 -13.420  -1.114  1.00  0.00     0.078 A 
HETATM   20 BR   UNL     1      39.533 -12.736  -2.778  1.00  0.00    -0.045 Br
HETATM   21  C   UNL     1      37.897 -13.146  -0.510  1.00  0.00     0.111 A 
HETATM   22  N   UNL     1      37.545 -13.648   0.715  1.00  0.00    -0.372 N 
HETATM   23  C   UNL     1      38.384 -14.478   1.413  1.00  0.00     0.121 A 
HETATM   24  H   UNL     1      36.647 -13.399   1.121  1.00  0.00     0.164 HD
ENDBRANCH   2  16
TORSDOF 2
ENDMDL
MODEL 6
REMARK VINA RESULT:      -6.9      7.889     10.524
REMARK  2 active torsions:
REMARK  status: ('A' for Active; 'I' for Inactive)
REMARK    1  A    between atoms: C_9  and  C_10 
REMARK       I    between atoms: C_10  and  N_11 
REMARK    2  A    between atoms: N_11  and  C_12 
ROOT
HETATM    1  C   UNL     1      41.374 -16.707   2.939  1.00  0.00     0.276 C 
HETATM    2  N   UNL     1      42.489 -17.419   2.551  1.00  0.00    -0.317 N 
HETATM    3  O   UNL     1      40.914 -16.662   4.075  1.00  0.00    -0.266 OA
HETATM    4  H   UNL     1      42.732 -17.333   1.561  1.00  0.00     0.169 HD
ENDROOT
BRANCH   1   5
HETATM    5  C   UNL     1      40.759 -15.973   1.820  1.00  0.00     0.147 A 
HETATM    6  N   UNL     1      39.508 -15.473   1.897  1.00  0.00    -0.169 NA
HETATM    7  N   UNL     1      39.325 -14.878   0.701  1.00  0.00    -0.275 N 
HETATM    8  C   UNL     1      40.397 -14.979  -0.138  1.00  0.00     0.086 A 
HETATM    9  H   UNL     1      38.441 -14.416   0.512  1.00  0.00     0.189 HD
HETATM   10  C   UNL     1      40.396 -14.411  -1.444  1.00  0.00     0.103 A 
HETATM   11  C   UNL     1      41.347 -15.688   0.559  1.00  0.00     0.073 A 
HETATM   12  O   UNL     1      39.327 -13.704  -1.931  1.00  0.00    -0.320 OA
HETATM   13  C   UNL     1      41.382 -14.447  -2.415  1.00  0.00     0.041 A 
HETATM   14  C   UNL     1      39.638 -13.298  -3.187  1.00  0.00     0.142 A 
HETATM   15  C   UNL     1      40.894 -13.731  -3.534  1.00  0.00     0.027 A 
ENDBRANCH   1   5
BRANCH   2  16
HETATM   16  C   UNL     1      43.308 -18.225   3.306  1.00  0.00     0.102 A 
HETATM   17  C   UNL     1      43.490 -19.646   2.815  1.00  0.00     0.218 A 
HETATM   18  O   UNL     1      42.917 -20.013   1.790  1.00  0.00    -0.284 OA
HETATM   19  C   UNL     1      44.375 -20.557   3.618  1.00  0.00     0.078 A 
HETATM   20 BR   UNL     1      44.634 -22.312   3.063  1.00  0.00    -0.045 Br
HETATM   21  C   UNL     1      44.946 -20.043   4.719  1.00  0.00     0.111 A 
HETATM   22  N   UNL     1      44.759 -18.751   5.131  1.00  0.00    -0.372 N 
HETATM   23  C   UNL     1      43.959 -17.886   4.429  1.00  0.00     0.121 A 
HETATM   24  H   UNL     1      45.217 -18.422   5.977  1.00  0.00     0.164 HD
ENDBRANCH   2  16
TORSDOF 2
ENDMDL
MODEL 7
REMARK VINA RESULT:      -6.9      7.213      8.644
REMARK  2 active torsions:
REMARK  status: ('A' for Active; 'I' for Inactive)
REMARK    1  A    between atoms: C_9  and  C_10 
REMARK       I    between atoms: C_10  and  N_11 
REMARK    2  A    between atoms: N_11  and  C_12 
ROOT
HETATM    1  C   UNL     1      41.563 -16.770   4.608  1.00  0.00     0.276 C 
HETATM    2  N   UNL     1      42.608 -17.179   3.808  1.00  0.00    -0.317 N 
HETATM    3  O   UNL     1      41.198 -17.317   5.644  1.00  0.00    -0.266 OA
HETATM    4  H   UNL     1      42.775 -16.595   2.985  1.00  0.00     0.169 HD
ENDROOT
BRANCH   1   5
HETATM    5  C   UNL     1      40.895 -15.566   4.088  1.00  0.00     0.147 A 
HETATM    6  N   UNL     1      41.107 -14.344   4.621  1.00  0.00    -0.169 NA
HETATM    7  N   UNL     1      40.339 -13.528   3.873  1.00  0.00    -0.275 N 
HETATM    8  C   UNL     1      39.640 -14.170   2.891  1.00  0.00     0.086 A 
HETATM    9  H   UNL     1      40.329 -12.534   4.081  1.00  0.00     0.189 HD
HETATM   10  C   UNL     1      38.776 -13.476   1.997  1.00  0.00     0.103 A 
HETATM   11  C   UNL     1      39.978 -15.498   3.005  1.00  0.00     0.073 A 
HETATM   12  O   UNL     1      38.611 -12.116   2.048  1.00  0.00    -0.320 OA
HETATM   13  C   UNL     1      37.988 -13.979   0.975  1.00  0.00     0.041 A 
HETATM   14  C   UNL     1      37.736 -11.769   1.072  1.00  0.00     0.142 A 
HETATM   15  C   UNL     1      37.320 -12.881   0.382  1.00  0.00     0.027 A 
ENDBRANCH   1   5
BRANCH   2  16
HETATM   16  C   UNL     1      43.446 -18.258   3.963  1.00  0.00     0.102 A 
HETATM   17  C   UNL     1      43.381 -19.320   2.885  1.00  0.00     0.218 A 
HETATM   18  O   UNL     1      42.606 -19.178   1.939  1.00  0.00    -0.284 OA
HETATM   19  C   UNL     1      44.281 -20.515   3.023  1.00  0.00     0.078 A 
HETATM   20 BR   UNL     1      44.242 -21.850   1.729  1.00  0.00    -0.045 Br
HETATM   21  C   UNL     1      45.082 -20.557   4.098  1.00  0.00     0.111 A 
HETATM   22  N   UNL     1      45.116 -19.577   5.054  1.00  0.00    -0.372 N 
HETATM   23  C   UNL     1      44.311 -18.469   4.967  1.00  0.00     0.121 A 
HETATM   24  H   UNL     1      45.744 -19.669   5.848  1.00  0.00     0.164 HD
ENDBRANCH   2  16
TORSDOF 2
ENDMDL
MODEL 8
REMARK VINA RESULT:      -6.7      7.354      8.836
REMARK  2 active torsions:
REMARK  status: ('A' for Active; 'I' for Inactive)
REMARK    1  A    between atoms: C_9  and  C_10 
REMARK       I    between atoms: C_10  and  N_11 
REMARK    2  A    between atoms: N_11  and  C_12 
ROOT
HETATM    1  C   UNL     1      42.326 -16.108   3.587  1.00  0.00     0.276 C 
HETATM    2  N   UNL     1      43.529 -16.741   3.362  1.00  0.00    -0.317 N 
HETATM    3  O   UNL     1      41.385 -16.568   4.226  1.00  0.00    -0.266 OA
HETATM    4  H   UNL     1      44.203 -16.202   2.812  1.00  0.00     0.169 HD
ENDROOT
BRANCH   1   5
HETATM    5  C   UNL     1      42.267 -14.775   2.966  1.00  0.00     0.147 A 
HETATM    6  N   UNL     1      42.346 -13.642   3.696  1.00  0.00    -0.169 NA
HETATM    7  N   UNL     1      42.267 -12.660   2.777  1.00  0.00    -0.275 N 
HETATM    8  C   UNL     1      42.136 -13.110   1.494  1.00  0.00     0.086 A 
HETATM    9  H   UNL     1      42.308 -11.693   3.085  1.00  0.00     0.189 HD
HETATM   10  C   UNL     1      42.040 -12.223   0.385  1.00  0.00     0.103 A 
HETATM   11  C   UNL     1      42.130 -14.482   1.582  1.00  0.00     0.073 A 
HETATM   12  O   UNL     1      42.101 -10.861   0.531  1.00  0.00    -0.320 OA
HETATM   13  C   UNL     1      41.880 -12.516  -0.959  1.00  0.00     0.041 A 
HETATM   14  C   UNL     1      41.984 -10.307  -0.701  1.00  0.00     0.142 A 
HETATM   15  C   UNL     1      41.844 -11.284  -1.655  1.00  0.00     0.027 A 
ENDBRANCH   1   5
BRANCH   2  16
HETATM   16  C   UNL     1      43.942 -17.988   3.769  1.00  0.00     0.102 A 
HETATM   17  C   UNL     1      43.887 -19.087   2.728  1.00  0.00     0.218 A 
HETATM   18  O   UNL     1      43.490 -18.828   1.592  1.00  0.00    -0.284 OA
HETATM   19  C   UNL     1      44.327 -20.464   3.139  1.00  0.00     0.078 A 
HETATM   20 BR   UNL     1      44.280 -21.851   1.902  1.00  0.00    -0.045 Br
HETATM   21  C   UNL     1      44.740 -20.623   4.406  1.00  0.00     0.111 A 
HETATM   22  N   UNL     1      44.777 -19.604   5.320  1.00  0.00    -0.372 N 
HETATM   23  C   UNL     1      44.385 -18.332   4.988  1.00  0.00     0.121 A 
HETATM   24  H   UNL     1      45.097 -19.790   6.267  1.00  0.00     0.164 HD
ENDBRANCH   2  16
TORSDOF 2
ENDMDL
MODEL 9
REMARK VINA RESULT:      -6.6      8.085     10.398
REMARK  2 active torsions:
REMARK  status: ('A' for Active; 'I' for Inactive)
REMARK    1  A    between atoms: C_9  and  C_10 
REMARK       I    between atoms: C_10  and  N_11 
REMARK    2  A    between atoms: N_11  and  C_12 
ROOT
HETATM    1  C   UNL     1      42.883 -16.834   1.921  1.00  0.00     0.276 C 
HETATM    2  N   UNL     1      42.482 -17.970   2.591  1.00  0.00    -0.317 N 
HETATM    3  O   UNL     1      44.026 -16.388   1.888  1.00  0.00    -0.266 OA
HETATM    4  H   UNL     1      41.489 -18.195   2.500  1.00  0.00     0.169 HD
ENDROOT
BRANCH   1   5
HETATM    5  C   UNL     1      41.771 -16.174   1.217  1.00  0.00     0.147 A 
HETATM    6  N   UNL     1      40.538 -16.081   1.759  1.00  0.00    -0.169 NA
HETATM    7  N   UNL     1      39.827 -15.414   0.829  1.00  0.00    -0.275 N 
HETATM    8  C   UNL     1      40.544 -15.081  -0.284  1.00  0.00     0.086 A 
HETATM    9  H   UNL     1      38.848 -15.213   1.009  1.00  0.00     0.189 HD
HETATM   10  C   UNL     1      39.966 -14.372  -1.375  1.00  0.00     0.103 A 
HETATM   11  C   UNL     1      41.812 -15.563  -0.065  1.00  0.00     0.073 A 
HETATM   12  O   UNL     1      38.660 -13.954  -1.366  1.00  0.00    -0.320 OA
HETATM   13  C   UNL     1      40.546 -13.985  -2.572  1.00  0.00     0.041 A 
HETATM   14  C   UNL     1      38.423 -13.312  -2.536  1.00  0.00     0.142 A 
HETATM   15  C   UNL     1      39.552 -13.304  -3.317  1.00  0.00     0.027 A 
ENDBRANCH   1   5
BRANCH   2  16
HETATM   16  C   UNL     1      43.228 -18.831   3.360  1.00  0.00     0.102 A 
HETATM   17  C   UNL     1      43.146 -18.636   4.859  1.00  0.00     0.218 A 
HETATM   18  O   UNL     1      42.432 -17.744   5.318  1.00  0.00    -0.284 OA
HETATM   19  C   UNL     1      43.951 -19.557   5.732  1.00  0.00     0.078 A 
HETATM   20 BR   UNL     1      43.888 -19.364   7.579  1.00  0.00    -0.045 Br
HETATM   21  C   UNL     1      44.691 -20.492   5.116  1.00  0.00     0.111 A 
HETATM   22  N   UNL     1      44.741 -20.639   3.756  1.00  0.00    -0.372 N 
HETATM   23  C   UNL     1      44.022 -19.821   2.922  1.00  0.00     0.121 A 
HETATM   24  H   UNL     1      45.325 -21.366   3.349  1.00  0.00     0.164 HD
ENDBRANCH   2  16
TORSDOF 2
ENDMDL
MODEL 10
REMARK VINA RESULT:      -6.5      5.282      6.592
REMARK  2 active torsions:
REMARK  status: ('A' for Active; 'I' for Inactive)
REMARK    1  A    between atoms: C_9  and  C_10 
REMARK       I    between atoms: C_10  and  N_11 
REMARK    2  A    between atoms: N_11  and  C_12 
ROOT
HETATM    1  C   UNL     1      44.191 -17.445   6.300  1.00  0.00     0.276 C 
HETATM    2  N   UNL     1      43.753 -18.239   5.261  1.00  0.00    -0.317 N 
HETATM    3  O   UNL     1      44.985 -17.782   7.172  1.00  0.00    -0.266 OA
HETATM    4  H   UNL     1      43.095 -17.787   4.622  1.00  0.00     0.169 HD
ENDROOT
BRANCH   1   5
HETATM    5  C   UNL     1      43.596 -16.099   6.267  1.00  0.00     0.147 A 
HETATM    6  N   UNL     1      44.178 -15.045   6.878  1.00  0.00    -0.169 NA
HETATM    7  N   UNL     1      43.348 -14.018   6.612  1.00  0.00    -0.275 N 
HETATM    8  C   UNL     1      42.259 -14.365   5.864  1.00  0.00     0.086 A 
HETATM    9  H   UNL     1      43.575 -13.096   6.969  1.00  0.00     0.189 HD
HETATM   10  C   UNL     1      41.270 -13.417   5.478  1.00  0.00     0.103 A 
HETATM   11  C   UNL     1      42.389 -15.713   5.625  1.00  0.00     0.073 A 
HETATM   12  O   UNL     1      41.361 -12.089   5.810  1.00  0.00    -0.320 OA
HETATM   13  C   UNL     1      40.108 -13.612   4.750  1.00  0.00     0.041 A 
HETATM   14  C   UNL     1      40.276 -11.459   5.296  1.00  0.00     0.142 A 
HETATM   15  C   UNL     1      39.471 -12.353   4.634  1.00  0.00     0.027 A 
ENDBRANCH   1   5
BRANCH   2  16
HETATM   16  C   UNL     1      44.074 -19.544   4.973  1.00  0.00     0.102 A 
HETATM   17  C   UNL     1      44.036 -19.939   3.512  1.00  0.00     0.218 A 
HETATM   18  O   UNL     1      43.730 -19.101   2.664  1.00  0.00    -0.284 OA
HETATM   19  C   UNL     1      44.377 -21.360   3.161  1.00  0.00     0.078 A 
HETATM   20 BR   UNL     1      44.345 -21.901   1.382  1.00  0.00    -0.045 Br
HETATM   21  C   UNL     1      44.694 -22.182   4.173  1.00  0.00     0.111 A 
HETATM   22  N   UNL     1      44.720 -21.789   5.484  1.00  0.00    -0.372 N 
HETATM   23  C   UNL     1      44.415 -20.502   5.850  1.00  0.00     0.121 A 
HETATM   24  H   UNL     1      44.965 -22.461   6.207  1.00  0.00     0.164 HD
ENDBRANCH   2  16
TORSDOF 2
ENDMDL
