MODEL 1
REMARK VINA RESULT:     -10.0      0.000      0.000
REMARK  8 active torsions:
REMARK  status: ('A' for Active; 'I' for Inactive)
REMARK    1  A    between atoms: C_4  and  N_5 
REMARK    2  A    between atoms: N_5  and  C_6 
REMARK    3  A    between atoms: C_8  and  N_9 
REMARK    4  A    between atoms: N_12  and  C_14 
REMARK    5  A    between atoms: C_14  and  C_15 
REMARK       I    between atoms: C_15  and  N_16 
REMARK    6  A    between atoms: N_16  and  C_17 
REMARK    7  A    between atoms: C_26  and  N_27 
REMARK    8  A    between atoms: N_27  and  C_28 
ROOT
HETATM    1  C   UNL     1      41.435 -16.264   1.156  1.00  0.00     0.758 A 
HETATM    2  N   UNL     1      41.055 -15.539   2.202  1.00  0.00     0.131 NA
HETATM    3  C   UNL     1      41.739 -15.717   3.320  1.00  0.00     0.756 A 
HETATM    4  N   UNL     1      42.690 -16.629   3.455  1.00  0.00     0.131 NA
HETATM    5  C   UNL     1      43.022 -17.311   2.363  1.00  0.00     0.758 A 
HETATM    6  N   UNL     1      42.424 -17.143   1.193  1.00  0.00     0.131 NA
ENDROOT
BRANCH   3   7
HETATM    7  N   UNL     1      41.489 -14.877   4.404  1.00  0.00    -0.210 N 
HETATM    8  C   UNL     1      42.286 -13.642   4.426  1.00  0.00     0.169 C 
HETATM    9  C   UNL     1      43.604 -13.845   5.214  1.00  0.00     0.256 C 
HETATM   10  N   UNL     1      43.277 -14.398   6.602  1.00  0.00    -0.060 N 
HETATM   11  H   UNL     1      42.596 -13.750   7.015  1.00  0.00     0.280 HD
HETATM   12  C   UNL     1      42.559 -15.746   6.480  1.00  0.00     0.256 C 
HETATM   13  C   UNL     1      41.247 -15.535   5.697  1.00  0.00     0.169 C 
BRANCH  10  14
HETATM   14  C   UNL     1      44.458 -14.404   7.577  1.00  0.00     0.337 C 
BRANCH  14  15
HETATM   15  C   UNL     1      45.521 -13.315   7.372  1.00  0.00     0.249 C 
HETATM   16  N   UNL     1      45.652 -12.313   8.291  1.00  0.00    -0.304 N 
HETATM   17  H   UNL     1      46.365 -11.612   8.124  1.00  0.00     0.171 HD
HETATM   18  O   UNL     1      46.266 -13.326   6.389  1.00  0.00    -0.271 OA
BRANCH  16  19
HETATM   19  C   UNL     1      44.894 -12.185   9.417  1.00  0.00     0.172 A 
HETATM   20  S   UNL     1      43.571 -11.122   9.282  1.00  0.00    -0.062 SA
HETATM   21  C   UNL     1      43.166 -11.461  10.916  1.00  0.00     0.072 A 
HETATM   22  C   UNL     1      44.072 -12.360  11.438  1.00  0.00     0.126 A 
HETATM   23  N   UNL     1      45.070 -12.777  10.571  1.00  0.00    -0.236 NA
ENDBRANCH  16  19
ENDBRANCH  14  15
ENDBRANCH  10  14
ENDBRANCH   3   7
BRANCH   1  24
HETATM   24  N   UNL     1      40.849 -16.075  -0.092  1.00  0.00    -0.187 N 
HETATM   25  H   UNL     1      39.935 -16.511  -0.115  1.00  0.00     0.184 HD
BRANCH  24  26
HETATM   26  C   UNL     1      41.095 -15.144  -1.108  1.00  0.00     0.049 A 
HETATM   27  C   UNL     1      40.773 -15.489  -2.429  1.00  0.00     0.030 A 
HETATM   28  C   UNL     1      41.019 -14.611  -3.485  1.00  0.00     0.002 A 
HETATM   29  C   UNL     1      41.597 -13.369  -3.237  1.00  0.00     0.000 A 
HETATM   30  C   UNL     1      41.937 -13.015  -1.934  1.00  0.00     0.002 A 
HETATM   31  C   UNL     1      41.700 -13.903  -0.881  1.00  0.00     0.030 A 
ENDBRANCH  24  26
ENDBRANCH   1  24
BRANCH   5  32
HETATM   32  N   UNL     1      44.090 -18.193   2.513  1.00  0.00    -0.187 N 
HETATM   33  H   UNL     1      44.963 -17.713   2.354  1.00  0.00     0.184 HD
BRANCH  32  34
HETATM   34  C   UNL     1      44.169 -19.576   2.719  1.00  0.00     0.049 A 
HETATM   35  C   UNL     1      44.629 -20.045   3.960  1.00  0.00     0.030 A 
HETATM   36  C   UNL     1      44.762 -21.414   4.218  1.00  0.00     0.002 A 
HETATM   37  C   UNL     1      44.435 -22.340   3.234  1.00  0.00     0.000 A 
HETATM   38  C   UNL     1      43.977 -21.898   1.997  1.00  0.00     0.002 A 
HETATM   39  C   UNL     1      43.850 -20.527   1.742  1.00  0.00     0.030 A 
ENDBRANCH  32  34
ENDBRANCH   5  32
TORSDOF 8
ENDMDL
MODEL 2
REMARK VINA RESULT:      -9.5      3.098      8.843
REMARK  8 active torsions:
REMARK  status: ('A' for Active; 'I' for Inactive)
REMARK    1  A    between atoms: C_4  and  N_5 
REMARK    2  A    between atoms: N_5  and  C_6 
REMARK    3  A    between atoms: C_8  and  N_9 
REMARK    4  A    between atoms: N_12  and  C_14 
REMARK    5  A    between atoms: C_14  and  C_15 
REMARK       I    between atoms: C_15  and  N_16 
REMARK    6  A    between atoms: N_16  and  C_17 
REMARK    7  A    between atoms: C_26  and  N_27 
REMARK    8  A    between atoms: N_27  and  C_28 
ROOT
HETATM    1  C   UNL     1      43.112 -16.224   5.908  1.00  0.00     0.758 A 
HETATM    2  N   UNL     1      42.180 -15.500   5.297  1.00  0.00     0.131 NA
HETATM    3  C   UNL     1      42.331 -14.187   5.344  1.00  0.00     0.756 A 
HETATM    4  N   UNL     1      43.288 -13.589   6.037  1.00  0.00     0.131 NA
HETATM    5  C   UNL     1      44.189 -14.377   6.616  1.00  0.00     0.758 A 
HETATM    6  N   UNL     1      44.138 -15.699   6.558  1.00  0.00     0.131 NA
ENDROOT
BRANCH   3   7
HETATM    7  N   UNL     1      41.475 -13.383   4.594  1.00  0.00    -0.210 N 
HETATM    8  C   UNL     1      40.100 -13.888   4.472  1.00  0.00     0.169 C 
HETATM    9  C   UNL     1      39.946 -14.781   3.216  1.00  0.00     0.256 C 
HETATM   10  N   UNL     1      40.436 -14.010   1.989  1.00  0.00    -0.060 N 
HETATM   11  H   UNL     1      39.917 -13.123   1.983  1.00  0.00     0.280 HD
HETATM   12  C   UNL     1      41.913 -13.634   2.154  1.00  0.00     0.256 C 
HETATM   13  C   UNL     1      42.057 -12.743   3.405  1.00  0.00     0.169 C 
BRANCH  10  14
HETATM   14  C   UNL     1      40.104 -14.671   0.649  1.00  0.00     0.337 C 
BRANCH  14  15
HETATM   15  C   UNL     1      41.171 -15.607   0.065  1.00  0.00     0.249 C 
HETATM   16  N   UNL     1      41.801 -15.275  -1.101  1.00  0.00    -0.304 N 
HETATM   17  H   UNL     1      42.500 -15.915  -1.456  1.00  0.00     0.171 HD
HETATM   18  O   UNL     1      41.477 -16.660   0.631  1.00  0.00    -0.271 OA
BRANCH  16  19
HETATM   19  C   UNL     1      41.556 -14.144  -1.823  1.00  0.00     0.172 A 
HETATM   20  S   UNL     1      40.493 -14.341  -3.138  1.00  0.00    -0.062 SA
HETATM   21  C   UNL     1      40.676 -12.673  -3.501  1.00  0.00     0.072 A 
HETATM   22  C   UNL     1      41.535 -12.094  -2.590  1.00  0.00     0.126 A 
HETATM   23  N   UNL     1      42.042 -12.946  -1.621  1.00  0.00    -0.236 NA
ENDBRANCH  16  19
ENDBRANCH  14  15
ENDBRANCH  10  14
ENDBRANCH   3   7
BRANCH   1  24
HETATM   24  N   UNL     1      43.101 -17.613   5.827  1.00  0.00    -0.187 N 
HETATM   25  H   UNL     1      42.405 -17.992   6.457  1.00  0.00     0.184 HD
BRANCH  24  26
HETATM   26  C   UNL     1      43.559 -18.495   4.841  1.00  0.00     0.049 A 
HETATM   27  C   UNL     1      44.537 -19.439   5.186  1.00  0.00     0.030 A 
HETATM   28  C   UNL     1      45.050 -20.327   4.238  1.00  0.00     0.002 A 
HETATM   29  C   UNL     1      44.593 -20.281   2.924  1.00  0.00     0.000 A 
HETATM   30  C   UNL     1      43.634 -19.340   2.559  1.00  0.00     0.002 A 
HETATM   31  C   UNL     1      43.133 -18.444   3.509  1.00  0.00     0.030 A 
ENDBRANCH  24  26
ENDBRANCH   1  24
BRANCH   5  32
HETATM   32  N   UNL     1      45.236 -13.717   7.254  1.00  0.00    -0.187 N 
HETATM   33  H   UNL     1      46.121 -14.018   6.874  1.00  0.00     0.184 HD
BRANCH  32  34
HETATM   34  C   UNL     1      45.294 -12.845   8.348  1.00  0.00     0.049 A 
HETATM   35  C   UNL     1      44.345 -12.990   9.374  1.00  0.00     0.030 A 
HETATM   36  C   UNL     1      44.328 -12.129  10.477  1.00  0.00     0.002 A 
HETATM   37  C   UNL     1      45.264 -11.106  10.574  1.00  0.00     0.000 A 
HETATM   38  C   UNL     1      46.213 -10.944   9.569  1.00  0.00     0.002 A 
HETATM   39  C   UNL     1      46.223 -11.804   8.465  1.00  0.00     0.030 A 
ENDBRANCH  32  34
ENDBRANCH   5  32
TORSDOF 8
ENDMDL
MODEL 3
REMARK VINA RESULT:      -9.5      3.176      8.639
REMARK  8 active torsions:
REMARK  status: ('A' for Active; 'I' for Inactive)
REMARK    1  A    between atoms: C_4  and  N_5 
REMARK    2  A    between atoms: N_5  and  C_6 
REMARK    3  A    between atoms: C_8  and  N_9 
REMARK    4  A    between atoms: N_12  and  C_14 
REMARK    5  A    between atoms: C_14  and  C_15 
REMARK       I    between atoms: C_15  and  N_16 
REMARK    6  A    between atoms: N_16  and  C_17 
REMARK    7  A    between atoms: C_26  and  N_27 
REMARK    8  A    between atoms: N_27  and  C_28 
ROOT
HETATM    1  C   UNL     1      43.659 -16.485   6.058  1.00  0.00     0.758 A 
HETATM    2  N   UNL     1      42.583 -15.965   5.476  1.00  0.00     0.131 NA
HETATM    3  C   UNL     1      42.468 -14.649   5.523  1.00  0.00     0.756 A 
HETATM    4  N   UNL     1      43.306 -13.868   6.189  1.00  0.00     0.131 NA
HETATM    5  C   UNL     1      44.363 -14.458   6.738  1.00  0.00     0.758 A 
HETATM    6  N   UNL     1      44.578 -15.763   6.678  1.00  0.00     0.131 NA
ENDROOT
BRANCH   3   7
HETATM    7  N   UNL     1      41.447 -14.035   4.800  1.00  0.00    -0.210 N 
HETATM    8  C   UNL     1      40.578 -14.955   4.054  1.00  0.00     0.169 C 
HETATM    9  C   UNL     1      41.110 -15.181   2.617  1.00  0.00     0.256 C 
HETATM   10  N   UNL     1      41.308 -13.825   1.937  1.00  0.00    -0.060 N 
HETATM   11  H   UNL     1      40.410 -13.332   2.017  1.00  0.00     0.280 HD
HETATM   12  C   UNL     1      42.324 -12.984   2.718  1.00  0.00     0.256 C 
HETATM   13  C   UNL     1      41.785 -12.761   4.146  1.00  0.00     0.169 C 
BRANCH  10  14
HETATM   14  C   UNL     1      41.583 -13.903   0.433  1.00  0.00     0.337 C 
BRANCH  14  15
HETATM   15  C   UNL     1      40.765 -14.930  -0.361  1.00  0.00     0.249 C 
HETATM   16  N   UNL     1      39.431 -14.722  -0.569  1.00  0.00    -0.304 N 
HETATM   17  H   UNL     1      38.923 -15.420  -1.098  1.00  0.00     0.171 HD
HETATM   18  O   UNL     1      41.290 -15.948  -0.820  1.00  0.00    -0.271 OA
BRANCH  16  19
HETATM   19  C   UNL     1      38.732 -13.642  -0.115  1.00  0.00     0.172 A 
HETATM   20  S   UNL     1      38.546 -12.376  -1.237  1.00  0.00    -0.062 SA
HETATM   21  C   UNL     1      37.668 -11.493  -0.055  1.00  0.00     0.072 A 
HETATM   22  C   UNL     1      37.584 -12.234   1.106  1.00  0.00     0.126 A 
HETATM   23  N   UNL     1      38.199 -13.476   1.069  1.00  0.00    -0.236 NA
ENDBRANCH  16  19
ENDBRANCH  14  15
ENDBRANCH  10  14
ENDBRANCH   3   7
BRANCH   1  24
HETATM   24  N   UNL     1      43.925 -17.849   5.973  1.00  0.00    -0.187 N 
HETATM   25  H   UNL     1      43.652 -18.309   6.832  1.00  0.00     0.184 HD
BRANCH  24  26
HETATM   26  C   UNL     1      44.122 -18.695   4.876  1.00  0.00     0.049 A 
HETATM   27  C   UNL     1      44.651 -19.974   5.100  1.00  0.00     0.030 A 
HETATM   28  C   UNL     1      44.893 -20.852   4.041  1.00  0.00     0.002 A 
HETATM   29  C   UNL     1      44.610 -20.461   2.736  1.00  0.00     0.000 A 
HETATM   30  C   UNL     1      44.098 -19.189   2.492  1.00  0.00     0.002 A 
HETATM   31  C   UNL     1      43.870 -18.309   3.555  1.00  0.00     0.030 A 
ENDBRANCH  24  26
ENDBRANCH   1  24
BRANCH   5  32
HETATM   32  N   UNL     1      45.275 -13.598   7.347  1.00  0.00    -0.187 N 
HETATM   33  H   UNL     1      46.183 -13.691   6.916  1.00  0.00     0.184 HD
BRANCH  32  34
HETATM   34  C   UNL     1      45.201 -12.758   8.464  1.00  0.00     0.049 A 
HETATM   35  C   UNL     1      46.143 -11.723   8.591  1.00  0.00     0.030 A 
HETATM   36  C   UNL     1      46.143 -10.870   9.699  1.00  0.00     0.002 A 
HETATM   37  C   UNL     1      45.196 -11.036  10.703  1.00  0.00     0.000 A 
HETATM   38  C   UNL     1      44.253 -12.054  10.598  1.00  0.00     0.002 A 
HETATM   39  C   UNL     1      44.260 -12.908   9.490  1.00  0.00     0.030 A 
ENDBRANCH  32  34
ENDBRANCH   5  32
TORSDOF 8
ENDMDL
MODEL 4
REMARK VINA RESULT:      -9.4      3.085      8.545
REMARK  8 active torsions:
REMARK  status: ('A' for Active; 'I' for Inactive)
REMARK    1  A    between atoms: C_4  and  N_5 
REMARK    2  A    between atoms: N_5  and  C_6 
REMARK    3  A    between atoms: C_8  and  N_9 
REMARK    4  A    between atoms: N_12  and  C_14 
REMARK    5  A    between atoms: C_14  and  C_15 
REMARK       I    between atoms: C_15  and  N_16 
REMARK    6  A    between atoms: N_16  and  C_17 
REMARK    7  A    between atoms: C_26  and  N_27 
REMARK    8  A    between atoms: N_27  and  C_28 
ROOT
HETATM    1  C   UNL     1      44.497 -14.248   6.539  1.00  0.00     0.758 A 
HETATM    2  N   UNL     1      43.622 -13.535   5.838  1.00  0.00     0.131 NA
HETATM    3  C   UNL     1      42.721 -14.219   5.152  1.00  0.00     0.756 A 
HETATM    4  N   UNL     1      42.722 -15.542   5.066  1.00  0.00     0.131 NA
HETATM    5  C   UNL     1      43.622 -16.187   5.801  1.00  0.00     0.758 A 
HETATM    6  N   UNL     1      44.514 -15.571   6.560  1.00  0.00     0.131 NA
ENDROOT
BRANCH   3   7
HETATM    7  N   UNL     1      41.685 -13.530   4.524  1.00  0.00    -0.210 N 
HETATM    8  C   UNL     1      40.396 -14.236   4.504  1.00  0.00     0.169 C 
HETATM    9  C   UNL     1      40.254 -15.099   3.226  1.00  0.00     0.256 C 
HETATM   10  N   UNL     1      40.500 -14.220   1.999  1.00  0.00    -0.060 N 
HETATM   11  H   UNL     1      39.857 -13.424   2.083  1.00  0.00     0.280 HD
HETATM   12  C   UNL     1      41.913 -13.628   2.045  1.00  0.00     0.256 C 
HETATM   13  C   UNL     1      42.046 -12.768   3.319  1.00  0.00     0.169 C 
BRANCH  10  14
HETATM   14  C   UNL     1      40.140 -14.878   0.664  1.00  0.00     0.337 C 
BRANCH  14  15
HETATM   15  C   UNL     1      41.244 -15.705  -0.011  1.00  0.00     0.249 C 
HETATM   16  N   UNL     1      41.747 -15.310  -1.217  1.00  0.00    -0.304 N 
HETATM   17  H   UNL     1      42.475 -15.879  -1.632  1.00  0.00     0.171 HD
HETATM   18  O   UNL     1      41.691 -16.726   0.518  1.00  0.00    -0.271 OA
BRANCH  16  19
HETATM   19  C   UNL     1      41.341 -14.205  -1.906  1.00  0.00     0.172 A 
HETATM   20  S   UNL     1      40.188 -14.495  -3.125  1.00  0.00    -0.062 SA
HETATM   21  C   UNL     1      40.190 -12.817  -3.489  1.00  0.00     0.072 A 
HETATM   22  C   UNL     1      41.071 -12.165  -2.651  1.00  0.00     0.126 A 
HETATM   23  N   UNL     1      41.735 -12.968  -1.737  1.00  0.00    -0.236 NA
ENDBRANCH  16  19
ENDBRANCH  14  15
ENDBRANCH  10  14
ENDBRANCH   3   7
BRANCH   1  24
HETATM   24  N   UNL     1      45.417 -13.622   7.374  1.00  0.00    -0.187 N 
HETATM   25  H   UNL     1      46.317 -13.560   6.913  1.00  0.00     0.184 HD
BRANCH  24  26
HETATM   26  C   UNL     1      45.253 -12.787   8.485  1.00  0.00     0.049 A 
HETATM   27  C   UNL     1      46.142 -11.716   8.658  1.00  0.00     0.030 A 
HETATM   28  C   UNL     1      46.042 -10.865   9.760  1.00  0.00     0.002 A 
HETATM   29  C   UNL     1      45.049 -11.075  10.713  1.00  0.00     0.000 A 
HETATM   30  C   UNL     1      44.167 -12.143  10.566  1.00  0.00     0.002 A 
HETATM   31  C   UNL     1      44.280 -13.000   9.467  1.00  0.00     0.030 A 
ENDBRANCH  24  26
ENDBRANCH   1  24
BRANCH   5  32
HETATM   32  N   UNL     1      43.534 -17.577   5.765  1.00  0.00    -0.187 N 
HETATM   33  H   UNL     1      43.223 -17.931   6.657  1.00  0.00     0.184 HD
BRANCH  32  34
HETATM   34  C   UNL     1      43.891 -18.534   4.807  1.00  0.00     0.049 A 
HETATM   35  C   UNL     1      44.755 -19.575   5.187  1.00  0.00     0.030 A 
HETATM   36  C   UNL     1      45.176 -20.544   4.269  1.00  0.00     0.002 A 
HETATM   37  C   UNL     1      44.737 -20.489   2.952  1.00  0.00     0.000 A 
HETATM   38  C   UNL     1      43.880 -19.467   2.554  1.00  0.00     0.002 A 
HETATM   39  C   UNL     1      43.466 -18.497   3.474  1.00  0.00     0.030 A 
ENDBRANCH  32  34
ENDBRANCH   5  32
TORSDOF 8
ENDMDL
MODEL 5
REMARK VINA RESULT:      -9.4      0.680      5.659
REMARK  8 active torsions:
REMARK  status: ('A' for Active; 'I' for Inactive)
REMARK    1  A    between atoms: C_4  and  N_5 
REMARK    2  A    between atoms: N_5  and  C_6 
REMARK    3  A    between atoms: C_8  and  N_9 
REMARK    4  A    between atoms: N_12  and  C_14 
REMARK    5  A    between atoms: C_14  and  C_15 
REMARK       I    between atoms: C_15  and  N_16 
REMARK    6  A    between atoms: N_16  and  C_17 
REMARK    7  A    between atoms: C_26  and  N_27 
REMARK    8  A    between atoms: N_27  and  C_28 
ROOT
HETATM    1  C   UNL     1      43.344 -17.222   2.230  1.00  0.00     0.758 A 
HETATM    2  N   UNL     1      43.033 -16.518   3.313  1.00  0.00     0.131 NA
HETATM    3  C   UNL     1      42.001 -15.697   3.204  1.00  0.00     0.756 A 
HETATM    4  N   UNL     1      41.354 -15.489   2.067  1.00  0.00     0.131 NA
HETATM    5  C   UNL     1      41.716 -16.235   1.028  1.00  0.00     0.758 A 
HETATM    6  N   UNL     1      42.698 -17.121   1.080  1.00  0.00     0.131 NA
ENDROOT
BRANCH   3   7
HETATM    7  N   UNL     1      41.531 -15.050   4.345  1.00  0.00    -0.210 N 
HETATM    8  C   UNL     1      42.057 -13.692   4.547  1.00  0.00     0.169 C 
HETATM    9  C   UNL     1      43.347 -13.718   5.404  1.00  0.00     0.256 C 
HETATM   10  N   UNL     1      43.070 -14.476   6.703  1.00  0.00    -0.060 N 
HETATM   11  H   UNL     1      42.251 -14.025   7.129  1.00  0.00     0.280 HD
HETATM   12  C   UNL     1      42.649 -15.917   6.397  1.00  0.00     0.256 C 
HETATM   13  C   UNL     1      41.363 -15.884   5.546  1.00  0.00     0.169 C 
BRANCH  10  14
HETATM   14  C   UNL     1      44.176 -14.358   7.756  1.00  0.00     0.337 C 
BRANCH  14  15
HETATM   15  C   UNL     1      45.290 -13.341   7.467  1.00  0.00     0.249 C 
HETATM   16  N   UNL     1      45.294 -12.137   8.111  1.00  0.00    -0.304 N 
HETATM   17  H   UNL     1      46.044 -11.491   7.897  1.00  0.00     0.171 HD
HETATM   18  O   UNL     1      46.190 -13.591   6.661  1.00  0.00    -0.271 OA
BRANCH  16  19
HETATM   19  C   UNL     1      44.359 -11.737   9.021  1.00  0.00     0.172 A 
HETATM   20  S   UNL     1      44.665 -12.210  10.627  1.00  0.00    -0.062 SA
HETATM   21  C   UNL     1      43.214 -11.427  11.106  1.00  0.00     0.072 A 
HETATM   22  C   UNL     1      42.608 -10.865  10.002  1.00  0.00     0.126 A 
HETATM   23  N   UNL     1      43.271 -11.045   8.798  1.00  0.00    -0.236 NA
ENDBRANCH  16  19
ENDBRANCH  14  15
ENDBRANCH  10  14
ENDBRANCH   3   7
BRANCH   1  24
HETATM   24  N   UNL     1      44.346 -18.187   2.273  1.00  0.00    -0.187 N 
HETATM   25  H   UNL     1      45.252 -17.744   2.354  1.00  0.00     0.184 HD
BRANCH  24  26
HETATM   26  C   UNL     1      44.315 -19.551   2.588  1.00  0.00     0.049 A 
HETATM   27  C   UNL     1      44.805 -19.963   3.836  1.00  0.00     0.030 A 
HETATM   28  C   UNL     1      44.823 -21.313   4.195  1.00  0.00     0.002 A 
HETATM   29  C   UNL     1      44.352 -22.274   3.306  1.00  0.00     0.000 A 
HETATM   30  C   UNL     1      43.877 -21.885   2.056  1.00  0.00     0.002 A 
HETATM   31  C   UNL     1      43.873 -20.534   1.697  1.00  0.00     0.030 A 
ENDBRANCH  24  26
ENDBRANCH   1  24
BRANCH   5  32
HETATM   32  N   UNL     1      40.953 -16.061  -0.124  1.00  0.00    -0.187 N 
HETATM   33  H   UNL     1      40.210 -16.743  -0.157  1.00  0.00     0.184 HD
BRANCH  32  34
HETATM   34  C   UNL     1      41.088 -15.234  -1.246  1.00  0.00     0.049 A 
HETATM   35  C   UNL     1      41.672 -13.967  -1.081  1.00  0.00     0.030 A 
HETATM   36  C   UNL     1      41.804 -13.081  -2.156  1.00  0.00     0.002 A 
HETATM   37  C   UNL     1      41.355 -13.449  -3.419  1.00  0.00     0.000 A 
HETATM   38  C   UNL     1      40.774 -14.699  -3.605  1.00  0.00     0.002 A 
HETATM   39  C   UNL     1      40.638 -15.581  -2.526  1.00  0.00     0.030 A 
ENDBRANCH  32  34
ENDBRANCH   5  32
TORSDOF 8
ENDMDL
MODEL 6
REMARK VINA RESULT:      -9.2      2.562      6.240
REMARK  8 active torsions:
REMARK  status: ('A' for Active; 'I' for Inactive)
REMARK    1  A    between atoms: C_4  and  N_5 
REMARK    2  A    between atoms: N_5  and  C_6 
REMARK    3  A    between atoms: C_8  and  N_9 
REMARK    4  A    between atoms: N_12  and  C_14 
REMARK    5  A    between atoms: C_14  and  C_15 
REMARK       I    between atoms: C_15  and  N_16 
REMARK    6  A    between atoms: N_16  and  C_17 
REMARK    7  A    between atoms: C_26  and  N_27 
REMARK    8  A    between atoms: N_27  and  C_28 
ROOT
HETATM    1  C   UNL     1      42.895 -17.330   2.751  1.00  0.00     0.758 A 
HETATM    2  N   UNL     1      42.921 -16.807   3.973  1.00  0.00     0.131 NA
HETATM    3  C   UNL     1      41.893 -16.044   4.307  1.00  0.00     0.756 A 
HETATM    4  N   UNL     1      40.925 -15.716   3.464  1.00  0.00     0.131 NA
HETATM    5  C   UNL     1      40.962 -16.284   2.262  1.00  0.00     0.758 A 
HETATM    6  N   UNL     1      41.925 -17.107   1.879  1.00  0.00     0.131 NA
ENDROOT
BRANCH   3   7
HETATM    7  N   UNL     1      41.787 -15.594   5.622  1.00  0.00    -0.210 N 
HETATM    8  C   UNL     1      40.457 -15.092   5.998  1.00  0.00     0.169 C 
HETATM    9  C   UNL     1      40.344 -13.570   5.738  1.00  0.00     0.256 C 
HETATM   10  N   UNL     1      41.499 -12.855   6.441  1.00  0.00    -0.060 N 
HETATM   11  H   UNL     1      41.465 -13.152   7.423  1.00  0.00     0.280 HD
HETATM   12  C   UNL     1      42.842 -13.353   5.895  1.00  0.00     0.256 C 
HETATM   13  C   UNL     1      42.948 -14.869   6.159  1.00  0.00     0.169 C 
BRANCH  10  14
HETATM   14  C   UNL     1      41.369 -11.330   6.484  1.00  0.00     0.337 C 
BRANCH  14  15
HETATM   15  C   UNL     1      40.302 -10.760   7.430  1.00  0.00     0.249 C 
HETATM   16  N   UNL     1      40.621 -10.489   8.730  1.00  0.00    -0.304 N 
HETATM   17  H   UNL     1      39.892 -10.113   9.324  1.00  0.00     0.171 HD
HETATM   18  O   UNL     1      39.153 -10.539   7.037  1.00  0.00    -0.271 OA
BRANCH  16  19
HETATM   19  C   UNL     1      41.850 -10.688   9.288  1.00  0.00     0.172 A 
HETATM   20  S   UNL     1      41.849 -10.930  10.972  1.00  0.00    -0.062 SA
HETATM   21  C   UNL     1      43.558 -11.085  10.924  1.00  0.00     0.072 A 
HETATM   22  C   UNL     1      43.998 -10.940   9.624  1.00  0.00     0.126 A 
HETATM   23  N   UNL     1      43.009 -10.711   8.680  1.00  0.00    -0.236 NA
ENDBRANCH  16  19
ENDBRANCH  14  15
ENDBRANCH  10  14
ENDBRANCH   3   7
BRANCH   1  24
HETATM   24  N   UNL     1      43.875 -18.229   2.342  1.00  0.00    -0.187 N 
HETATM   25  H   UNL     1      44.678 -17.727   1.983  1.00  0.00     0.184 HD
BRANCH  24  26
HETATM   26  C   UNL     1      44.102 -19.573   2.662  1.00  0.00     0.049 A 
HETATM   27  C   UNL     1      43.727 -20.557   1.735  1.00  0.00     0.030 A 
HETATM   28  C   UNL     1      43.906 -21.914   2.011  1.00  0.00     0.002 A 
HETATM   29  C   UNL     1      44.462 -22.309   3.224  1.00  0.00     0.000 A 
HETATM   30  C   UNL     1      44.826 -21.347   4.162  1.00  0.00     0.002 A 
HETATM   31  C   UNL     1      44.633 -19.990   3.887  1.00  0.00     0.030 A 
ENDBRANCH  24  26
ENDBRANCH   1  24
BRANCH   5  32
HETATM   32  N   UNL     1      39.880 -15.996   1.434  1.00  0.00    -0.187 N 
HETATM   33  H   UNL     1      39.497 -16.848   1.051  1.00  0.00     0.184 HD
BRANCH  32  34
HETATM   34  C   UNL     1      39.325 -14.799   0.965  1.00  0.00     0.049 A 
HETATM   35  C   UNL     1      40.152 -13.902   0.270  1.00  0.00     0.030 A 
HETATM   36  C   UNL     1      39.667 -12.674  -0.196  1.00  0.00     0.002 A 
HETATM   37  C   UNL     1      38.340 -12.324   0.025  1.00  0.00     0.000 A 
HETATM   38  C   UNL     1      37.502 -13.198   0.711  1.00  0.00     0.002 A 
HETATM   39  C   UNL     1      37.994 -14.422   1.179  1.00  0.00     0.030 A 
ENDBRANCH  32  34
ENDBRANCH   5  32
TORSDOF 8
ENDMDL
MODEL 7
REMARK VINA RESULT:      -9.2      3.235      8.002
REMARK  8 active torsions:
REMARK  status: ('A' for Active; 'I' for Inactive)
REMARK    1  A    between atoms: C_4  and  N_5 
REMARK    2  A    between atoms: N_5  and  C_6 
REMARK    3  A    between atoms: C_8  and  N_9 
REMARK    4  A    between atoms: N_12  and  C_14 
REMARK    5  A    between atoms: C_14  and  C_15 
REMARK       I    between atoms: C_15  and  N_16 
REMARK    6  A    between atoms: N_16  and  C_17 
REMARK    7  A    between atoms: C_26  and  N_27 
REMARK    8  A    between atoms: N_27  and  C_28 
ROOT
HETATM    1  C   UNL     1      43.374 -15.185   6.313  1.00  0.00     0.758 A 
HETATM    2  N   UNL     1      42.422 -14.781   5.478  1.00  0.00     0.131 NA
HETATM    3  C   UNL     1      42.085 -15.626   4.518  1.00  0.00     0.756 A 
HETATM    4  N   UNL     1      42.709 -16.777   4.308  1.00  0.00     0.131 NA
HETATM    5  C   UNL     1      43.645 -17.117   5.188  1.00  0.00     0.758 A 
HETATM    6  N   UNL     1      43.992 -16.351   6.211  1.00  0.00     0.131 NA
ENDROOT
BRANCH   3   7
HETATM    7  N   UNL     1      40.991 -15.327   3.709  1.00  0.00    -0.210 N 
HETATM    8  C   UNL     1      40.635 -16.371   2.738  1.00  0.00     0.169 C 
HETATM    9  C   UNL     1      41.366 -16.152   1.391  1.00  0.00     0.256 C 
HETATM   10  N   UNL     1      41.094 -14.729   0.900  1.00  0.00    -0.060 N 
HETATM   11  H   UNL     1      40.073 -14.621   0.885  1.00  0.00     0.280 HD
HETATM   12  C   UNL     1      41.612 -13.708   1.919  1.00  0.00     0.256 C 
HETATM   13  C   UNL     1      40.877 -13.931   3.257  1.00  0.00     0.169 C 
BRANCH  10  14
HETATM   14  C   UNL     1      41.540 -14.458  -0.539  1.00  0.00     0.337 C 
BRANCH  14  15
HETATM   15  C   UNL     1      40.635 -15.006  -1.652  1.00  0.00     0.249 C 
HETATM   16  N   UNL     1      39.321 -14.639  -1.701  1.00  0.00    -0.304 N 
HETATM   17  H   UNL     1      38.754 -15.019  -2.449  1.00  0.00     0.171 HD
HETATM   18  O   UNL     1      41.074 -15.776  -2.510  1.00  0.00    -0.271 OA
BRANCH  16  19
HETATM   19  C   UNL     1      38.714 -13.798  -0.815  1.00  0.00     0.172 A 
HETATM   20  S   UNL     1      38.743 -12.151  -1.244  1.00  0.00    -0.062 SA
HETATM   21  C   UNL     1      37.888 -11.787   0.200  1.00  0.00     0.072 A 
HETATM   22  C   UNL     1      37.646 -12.953   0.898  1.00  0.00     0.126 A 
HETATM   23  N   UNL     1      38.123 -14.113   0.310  1.00  0.00    -0.236 NA
ENDBRANCH  16  19
ENDBRANCH  14  15
ENDBRANCH  10  14
ENDBRANCH   3   7
BRANCH   1  24
HETATM   24  N   UNL     1      43.726 -14.414   7.417  1.00  0.00    -0.187 N 
HETATM   25  H   UNL     1      43.256 -14.760   8.244  1.00  0.00     0.184 HD
BRANCH  24  26
HETATM   26  C   UNL     1      44.812 -13.564   7.654  1.00  0.00     0.049 A 
HETATM   27  C   UNL     1      44.732 -12.652   8.717  1.00  0.00     0.030 A 
HETATM   28  C   UNL     1      45.774 -11.762   8.985  1.00  0.00     0.002 A 
HETATM   29  C   UNL     1      46.915 -11.769   8.189  1.00  0.00     0.000 A 
HETATM   30  C   UNL     1      47.006 -12.656   7.120  1.00  0.00     0.002 A 
HETATM   31  C   UNL     1      45.955 -13.536   6.848  1.00  0.00     0.030 A 
ENDBRANCH  24  26
ENDBRANCH   1  24
BRANCH   5  32
HETATM   32  N   UNL     1      44.214 -18.374   4.997  1.00  0.00    -0.187 N 
HETATM   33  H   UNL     1      44.891 -18.565   5.720  1.00  0.00     0.184 HD
BRANCH  32  34
HETATM   34  C   UNL     1      44.112 -19.326   3.975  1.00  0.00     0.049 A 
HETATM   35  C   UNL     1      43.319 -19.027   2.855  1.00  0.00     0.030 A 
HETATM   36  C   UNL     1      43.149 -19.948   1.815  1.00  0.00     0.002 A 
HETATM   37  C   UNL     1      43.773 -21.188   1.878  1.00  0.00     0.000 A 
HETATM   38  C   UNL     1      44.564 -21.505   2.978  1.00  0.00     0.002 A 
HETATM   39  C   UNL     1      44.727 -20.583   4.018  1.00  0.00     0.030 A 
ENDBRANCH  32  34
ENDBRANCH   5  32
TORSDOF 8
ENDMDL
MODEL 8
REMARK VINA RESULT:      -9.2      2.262      2.837
REMARK  8 active torsions:
REMARK  status: ('A' for Active; 'I' for Inactive)
REMARK    1  A    between atoms: C_4  and  N_5 
REMARK    2  A    between atoms: N_5  and  C_6 
REMARK    3  A    between atoms: C_8  and  N_9 
REMARK    4  A    between atoms: N_12  and  C_14 
REMARK    5  A    between atoms: C_14  and  C_15 
REMARK       I    between atoms: C_15  and  N_16 
REMARK    6  A    between atoms: N_16  and  C_17 
REMARK    7  A    between atoms: C_26  and  N_27 
REMARK    8  A    between atoms: N_27  and  C_28 
ROOT
HETATM    1  C   UNL     1      41.038 -16.262   1.548  1.00  0.00     0.758 A 
HETATM    2  N   UNL     1      40.560 -15.861   2.721  1.00  0.00     0.131 NA
HETATM    3  C   UNL     1      41.233 -16.247   3.793  1.00  0.00     0.756 A 
HETATM    4  N   UNL     1      42.271 -17.069   3.744  1.00  0.00     0.131 NA
HETATM    5  C   UNL     1      42.697 -17.421   2.535  1.00  0.00     0.758 A 
HETATM    6  N   UNL     1      42.112 -17.023   1.416  1.00  0.00     0.131 NA
ENDROOT
BRANCH   3   7
HETATM    7  N   UNL     1      40.872 -15.733   5.037  1.00  0.00    -0.210 N 
HETATM    8  C   UNL     1      39.884 -14.646   4.994  1.00  0.00     0.169 C 
HETATM    9  C   UNL     1      40.580 -13.265   4.910  1.00  0.00     0.256 C 
HETATM   10  N   UNL     1      41.588 -13.142   6.054  1.00  0.00    -0.060 N 
HETATM   11  H   UNL     1      41.067 -13.337   6.917  1.00  0.00     0.280 HD
HETATM   12  C   UNL     1      42.651 -14.242   5.944  1.00  0.00     0.256 C 
HETATM   13  C   UNL     1      41.950 -15.613   6.031  1.00  0.00     0.169 C 
BRANCH  10  14
HETATM   14  C   UNL     1      42.161 -11.736   6.247  1.00  0.00     0.337 C 
BRANCH  14  15
HETATM   15  C   UNL     1      41.248 -10.565   5.857  1.00  0.00     0.249 C 
HETATM   16  N   UNL     1      40.573  -9.878   6.826  1.00  0.00    -0.304 N 
HETATM   17  H   UNL     1      39.981  -9.111   6.532  1.00  0.00     0.171 HD
HETATM   18  O   UNL     1      41.112 -10.227   4.679  1.00  0.00    -0.271 OA
BRANCH  16  19
HETATM   19  C   UNL     1      40.636 -10.151   8.161  1.00  0.00     0.172 A 
HETATM   20  S   UNL     1      39.417 -11.183   8.748  1.00  0.00    -0.062 SA
HETATM   21  C   UNL     1      40.099 -11.053  10.318  1.00  0.00     0.072 A 
HETATM   22  C   UNL     1      41.206 -10.231  10.273  1.00  0.00     0.126 A 
HETATM   23  N   UNL     1      41.515  -9.711   9.025  1.00  0.00    -0.236 NA
ENDBRANCH  16  19
ENDBRANCH  14  15
ENDBRANCH  10  14
ENDBRANCH   3   7
BRANCH   1  24
HETATM   24  N   UNL     1      40.463 -15.824   0.359  1.00  0.00    -0.187 N 
HETATM   25  H   UNL     1      39.455 -15.808   0.447  1.00  0.00     0.184 HD
BRANCH  24  26
HETATM   26  C   UNL     1      40.983 -15.094  -0.717  1.00  0.00     0.049 A 
HETATM   27  C   UNL     1      41.629 -13.877  -0.453  1.00  0.00     0.030 A 
HETATM   28  C   UNL     1      42.144 -13.095  -1.488  1.00  0.00     0.002 A 
HETATM   29  C   UNL     1      42.019 -13.517  -2.808  1.00  0.00     0.000 A 
HETATM   30  C   UNL     1      41.368 -14.715  -3.090  1.00  0.00     0.002 A 
HETATM   31  C   UNL     1      40.842 -15.489  -2.051  1.00  0.00     0.030 A 
ENDBRANCH  24  26
ENDBRANCH   1  24
BRANCH   5  32
HETATM   32  N   UNL     1      43.848 -18.206   2.514  1.00  0.00    -0.187 N 
HETATM   33  H   UNL     1      44.630 -17.669   2.168  1.00  0.00     0.184 HD
BRANCH  32  34
HETATM   34  C   UNL     1      44.087 -19.563   2.762  1.00  0.00     0.049 A 
HETATM   35  C   UNL     1      43.702 -20.501   1.789  1.00  0.00     0.030 A 
HETATM   36  C   UNL     1      43.882 -21.874   1.990  1.00  0.00     0.002 A 
HETATM   37  C   UNL     1      44.454 -22.333   3.171  1.00  0.00     0.000 A 
HETATM   38  C   UNL     1      44.842 -21.422   4.148  1.00  0.00     0.002 A 
HETATM   39  C   UNL     1      44.655 -20.050   3.945  1.00  0.00     0.030 A 
ENDBRANCH  32  34
ENDBRANCH   5  32
TORSDOF 8
ENDMDL
MODEL 9
REMARK VINA RESULT:      -9.2      3.880      9.204
REMARK  8 active torsions:
REMARK  status: ('A' for Active; 'I' for Inactive)
REMARK    1  A    between atoms: C_4  and  N_5 
REMARK    2  A    between atoms: N_5  and  C_6 
REMARK    3  A    between atoms: C_8  and  N_9 
REMARK    4  A    between atoms: N_12  and  C_14 
REMARK    5  A    between atoms: C_14  and  C_15 
REMARK       I    between atoms: C_15  and  N_16 
REMARK    6  A    between atoms: N_16  and  C_17 
REMARK    7  A    between atoms: C_26  and  N_27 
REMARK    8  A    between atoms: N_27  and  C_28 
ROOT
HETATM    1  C   UNL     1      43.069 -17.613   4.397  1.00  0.00     0.758 A 
HETATM    2  N   UNL     1      42.192 -17.782   3.413  1.00  0.00     0.131 NA
HETATM    3  C   UNL     1      41.260 -16.851   3.292  1.00  0.00     0.756 A 
HETATM    4  N   UNL     1      41.117 -15.847   4.145  1.00  0.00     0.131 NA
HETATM    5  C   UNL     1      42.037 -15.739   5.098  1.00  0.00     0.758 A 
HETATM    6  N   UNL     1      43.035 -16.597   5.244  1.00  0.00     0.131 NA
ENDROOT
BRANCH   3   7
HETATM    7  N   UNL     1      40.408 -16.890   2.189  1.00  0.00    -0.210 N 
HETATM    8  C   UNL     1      40.954 -17.576   1.010  1.00  0.00     0.169 C 
HETATM    9  C   UNL     1      41.694 -16.582   0.081  1.00  0.00     0.256 C 
HETATM   10  N   UNL     1      40.759 -15.419  -0.255  1.00  0.00    -0.060 N 
HETATM   11  H   UNL     1      39.902 -15.841  -0.632  1.00  0.00     0.280 HD
HETATM   12  C   UNL     1      40.342 -14.687   1.026  1.00  0.00     0.256 C 
HETATM   13  C   UNL     1      39.604 -15.683   1.944  1.00  0.00     0.169 C 
BRANCH  10  14
HETATM   14  C   UNL     1      41.267 -14.496  -1.366  1.00  0.00     0.337 C 
BRANCH  14  15
HETATM   15  C   UNL     1      40.653 -14.699  -2.758  1.00  0.00     0.249 C 
HETATM   16  N   UNL     1      39.758 -13.790  -3.245  1.00  0.00    -0.304 N 
HETATM   17  H   UNL     1      39.374 -13.955  -4.168  1.00  0.00     0.171 HD
HETATM   18  O   UNL     1      40.954 -15.673  -3.454  1.00  0.00    -0.271 OA
BRANCH  16  19
HETATM   19  C   UNL     1      39.340 -12.675  -2.579  1.00  0.00     0.172 A 
HETATM   20  S   UNL     1      37.970 -12.891  -1.593  1.00  0.00    -0.062 SA
HETATM   21  C   UNL     1      38.058 -11.234  -1.153  1.00  0.00     0.072 A 
HETATM   22  C   UNL     1      39.128 -10.643  -1.793  1.00  0.00     0.126 A 
HETATM   23  N   UNL     1      39.868 -11.477  -2.617  1.00  0.00    -0.236 NA
ENDBRANCH  16  19
ENDBRANCH  14  15
ENDBRANCH  10  14
ENDBRANCH   3   7
BRANCH   1  24
HETATM   24  N   UNL     1      44.148 -18.480   4.544  1.00  0.00    -0.187 N 
HETATM   25  H   UNL     1      44.792 -18.118   5.236  1.00  0.00     0.184 HD
BRANCH  24  26
HETATM   26  C   UNL     1      44.309 -19.833   4.225  1.00  0.00     0.049 A 
HETATM   27  C   UNL     1      44.585 -20.739   5.260  1.00  0.00     0.030 A 
HETATM   28  C   UNL     1      44.780 -22.097   4.998  1.00  0.00     0.002 A 
HETATM   29  C   UNL     1      44.705 -22.571   3.691  1.00  0.00     0.000 A 
HETATM   30  C   UNL     1      44.447 -21.684   2.649  1.00  0.00     0.002 A 
HETATM   31  C   UNL     1      44.265 -20.323   2.915  1.00  0.00     0.030 A 
ENDBRANCH  24  26
ENDBRANCH   1  24
BRANCH   5  32
HETATM   32  N   UNL     1      41.916 -14.620   5.919  1.00  0.00    -0.187 N 
HETATM   33  H   UNL     1      42.304 -14.812   6.830  1.00  0.00     0.184 HD
BRANCH  32  34
HETATM   34  C   UNL     1      41.284 -13.380   5.760  1.00  0.00     0.049 A 
HETATM   35  C   UNL     1      39.961 -13.238   6.212  1.00  0.00     0.030 A 
HETATM   36  C   UNL     1      39.263 -12.036   6.053  1.00  0.00     0.002 A 
HETATM   37  C   UNL     1      39.879 -10.951   5.439  1.00  0.00     0.000 A 
HETATM   38  C   UNL     1      41.189 -11.070   4.985  1.00  0.00     0.002 A 
HETATM   39  C   UNL     1      41.882 -12.276   5.142  1.00  0.00     0.030 A 
ENDBRANCH  32  34
ENDBRANCH   5  32
TORSDOF 8
ENDMDL
MODEL 10
REMARK VINA RESULT:      -9.1      3.672      8.818
REMARK  8 active torsions:
REMARK  status: ('A' for Active; 'I' for Inactive)
REMARK    1  A    between atoms: C_4  and  N_5 
REMARK    2  A    between atoms: N_5  and  C_6 
REMARK    3  A    between atoms: C_8  and  N_9 
REMARK    4  A    between atoms: N_12  and  C_14 
REMARK    5  A    between atoms: C_14  and  C_15 
REMARK       I    between atoms: C_15  and  N_16 
REMARK    6  A    between atoms: N_16  and  C_17 
REMARK    7  A    between atoms: C_26  and  N_27 
REMARK    8  A    between atoms: N_27  and  C_28 
ROOT
HETATM    1  C   UNL     1      43.312 -14.667   6.105  1.00  0.00     0.758 A 
HETATM    2  N   UNL     1      42.987 -13.683   5.273  1.00  0.00     0.131 NA
HETATM    3  C   UNL     1      42.388 -14.038   4.149  1.00  0.00     0.756 A 
HETATM    4  N   UNL     1      42.196 -15.301   3.793  1.00  0.00     0.131 NA
HETATM    5  C   UNL     1      42.539 -16.229   4.680  1.00  0.00     0.758 A 
HETATM    6  N   UNL     1      43.086 -15.946   5.852  1.00  0.00     0.131 NA
ENDROOT
BRANCH   3   7
HETATM    7  N   UNL     1      41.885 -13.046   3.309  1.00  0.00    -0.210 N 
HETATM    8  C   UNL     1      40.489 -12.666   3.568  1.00  0.00     0.169 C 
HETATM    9  C   UNL     1      39.514 -13.519   2.720  1.00  0.00     0.256 C 
HETATM   10  N   UNL     1      39.920 -13.428   1.248  1.00  0.00    -0.060 N 
HETATM   11  H   UNL     1      39.961 -12.426   1.023  1.00  0.00     0.280 HD
HETATM   12  C   UNL     1      41.344 -13.962   1.056  1.00  0.00     0.256 C 
HETATM   13  C   UNL     1      42.309 -13.106   1.902  1.00  0.00     0.169 C 
BRANCH  10  14
HETATM   14  C   UNL     1      38.896 -14.010   0.270  1.00  0.00     0.337 C 
BRANCH  14  15
HETATM   15  C   UNL     1      38.093 -13.001  -0.563  1.00  0.00     0.249 C 
HETATM   16  N   UNL     1      38.007 -13.154  -1.917  1.00  0.00    -0.304 N 
HETATM   17  H   UNL     1      37.468 -12.470  -2.434  1.00  0.00     0.171 HD
HETATM   18  O   UNL     1      37.518 -12.048  -0.031  1.00  0.00    -0.271 OA
BRANCH  16  19
HETATM   19  C   UNL     1      38.595 -14.160  -2.626  1.00  0.00     0.172 A 
HETATM   20  S   UNL     1      37.530 -15.117  -3.545  1.00  0.00    -0.062 SA
HETATM   21  C   UNL     1      38.868 -16.050  -4.078  1.00  0.00     0.072 A 
HETATM   22  C   UNL     1      40.027 -15.557  -3.513  1.00  0.00     0.126 A 
HETATM   23  N   UNL     1      39.867 -14.465  -2.675  1.00  0.00    -0.236 NA
ENDBRANCH  16  19
ENDBRANCH  14  15
ENDBRANCH  10  14
ENDBRANCH   3   7
BRANCH   1  24
HETATM   24  N   UNL     1      43.851 -14.390   7.358  1.00  0.00    -0.187 N 
HETATM   25  H   UNL     1      43.737 -15.189   7.969  1.00  0.00     0.184 HD
BRANCH  24  26
HETATM   26  C   UNL     1      44.785 -13.438   7.783  1.00  0.00     0.049 A 
HETATM   27  C   UNL     1      44.443 -12.587   8.844  1.00  0.00     0.030 A 
HETATM   28  C   UNL     1      45.325 -11.602   9.293  1.00  0.00     0.002 A 
HETATM   29  C   UNL     1      46.567 -11.451   8.684  1.00  0.00     0.000 A 
HETATM   30  C   UNL     1      46.918 -12.277   7.620  1.00  0.00     0.002 A 
HETATM   31  C   UNL     1      46.026 -13.253   7.165  1.00  0.00     0.030 A 
ENDBRANCH  24  26
ENDBRANCH   1  24
BRANCH   5  32
HETATM   32  N   UNL     1      42.236 -17.540   4.317  1.00  0.00    -0.187 N 
HETATM   33  H   UNL     1      41.300 -17.775   4.611  1.00  0.00     0.184 HD
BRANCH  32  34
HETATM   34  C   UNL     1      42.990 -18.577   3.754  1.00  0.00     0.049 A 
HETATM   35  C   UNL     1      43.949 -19.221   4.554  1.00  0.00     0.030 A 
HETATM   36  C   UNL     1      44.757 -20.242   4.042  1.00  0.00     0.002 A 
HETATM   37  C   UNL     1      44.619 -20.638   2.716  1.00  0.00     0.000 A 
HETATM   38  C   UNL     1      43.675 -20.013   1.906  1.00  0.00     0.002 A 
HETATM   39  C   UNL     1      42.872 -18.989   2.422  1.00  0.00     0.030 A 
ENDBRANCH  32  34
ENDBRANCH   5  32
TORSDOF 8
ENDMDL
