MODEL 1
REMARK VINA RESULT:      -8.2      0.000      0.000
REMARK  4 active torsions:
REMARK  status: ('A' for Active; 'I' for Inactive)
REMARK    1  A    between atoms: C_4  and  N_5 
REMARK       I    between atoms: N_5  and  C_6 
REMARK    2  A    between atoms: C_6  and  C_7 
REMARK    3  A    between atoms: C_7  and  C_8 
REMARK    4  A    between atoms: C_10  and  O_11 
ROOT
HETATM    1  N   UNL     1      41.929 -17.995   2.107  1.00  0.00    -0.325 N 
HETATM    2  C   UNL     1      42.165 -17.025   1.158  1.00  0.00     0.226 C 
HETATM    3  O   UNL     1      43.221 -16.849   0.554  1.00  0.00    -0.273 OA
HETATM    4  H   UNL     1      40.973 -18.182   2.403  1.00  0.00     0.169 HD
ENDROOT
BRANCH   1   5
HETATM    5  C   UNL     1      42.868 -18.868   2.711  1.00  0.00     0.065 A 
HETATM    6  C   UNL     1      43.288 -20.062   2.114  1.00  0.00     0.038 A 
HETATM    7  C   UNL     1      44.254 -20.865   2.728  1.00  0.00    -0.059 A 
HETATM    8  C   UNL     1      44.721 -22.136   2.082  1.00  0.00     0.048 C 
HETATM    9  C   UNL     1      44.778 -20.469   3.961  1.00  0.00     0.020 A 
HETATM   10  C   UNL     1      44.360 -19.272   4.567  1.00  0.00    -0.005 A 
HETATM   11  C   UNL     1      43.401 -18.450   3.940  1.00  0.00     0.093 A 
HETATM   12  C   UNL     1      44.880 -18.862   5.802  1.00  0.00     0.015 A 
HETATM   13  N   UNL     1      42.987 -17.283   4.497  1.00  0.00    -0.258 NA
HETATM   14  C   UNL     1      43.511 -16.926   5.692  1.00  0.00     0.117 A 
HETATM   15  C   UNL     1      44.449 -17.673   6.376  1.00  0.00     0.020 A 
ENDBRANCH   1   5
BRANCH   2  16
HETATM   16  C   UNL     1      40.968 -16.113   0.917  1.00  0.00     0.141 C 
BRANCH  16  17
HETATM   17  C   UNL     1      41.220 -15.143  -0.215  1.00  0.00    -0.047 A 
HETATM   18  C   UNL     1      40.971 -15.526  -1.543  1.00  0.00     0.044 A 
HETATM   19  C   UNL     1      41.238 -14.645  -2.586  1.00  0.00     0.066 A 
HETATM   20  C   UNL     1      41.735 -13.373  -2.333  1.00  0.00     0.036 A 
HETATM   21  C   UNL     1      41.974 -12.978  -1.018  1.00  0.00     0.003 A 
HETATM   22  C   UNL     1      41.721 -13.859   0.037  1.00  0.00     0.007 A 
BRANCH  19  23
HETATM   23  O   UNL     1      41.031 -15.004  -3.886  1.00  0.00    -0.361 OA
HETATM   24  H   UNL     1      40.676 -15.908  -3.897  1.00  0.00     0.217 HD
ENDBRANCH  19  23
ENDBRANCH  16  17
ENDBRANCH   2  16
TORSDOF 4
ENDMDL
MODEL 2
REMARK VINA RESULT:      -8.2      2.668      3.884
REMARK  4 active torsions:
REMARK  status: ('A' for Active; 'I' for Inactive)
REMARK    1  A    between atoms: C_4  and  N_5 
REMARK       I    between atoms: N_5  and  C_6 
REMARK    2  A    between atoms: C_6  and  C_7 
REMARK    3  A    between atoms: C_7  and  C_8 
REMARK    4  A    between atoms: C_10  and  O_11 
ROOT
HETATM    1  N   UNL     1      41.747 -17.414   2.739  1.00  0.00    -0.325 N 
HETATM    2  C   UNL     1      41.851 -16.381   1.834  1.00  0.00     0.226 C 
HETATM    3  O   UNL     1      42.738 -16.247   0.993  1.00  0.00    -0.273 OA
HETATM    4  H   UNL     1      40.879 -17.537   3.257  1.00  0.00     0.169 HD
ENDROOT
BRANCH   1   5
HETATM    5  C   UNL     1      42.697 -18.427   3.017  1.00  0.00     0.065 A 
HETATM    6  C   UNL     1      42.905 -19.526   2.175  1.00  0.00     0.038 A 
HETATM    7  C   UNL     1      43.889 -20.473   2.469  1.00  0.00    -0.059 A 
HETATM    8  C   UNL     1      44.127 -21.641   1.558  1.00  0.00     0.048 C 
HETATM    9  C   UNL     1      44.649 -20.321   3.631  1.00  0.00     0.020 A 
HETATM   10  C   UNL     1      44.446 -19.222   4.482  1.00  0.00    -0.005 A 
HETATM   11  C   UNL     1      43.467 -18.253   4.178  1.00  0.00     0.093 A 
HETATM   12  C   UNL     1      45.203 -19.055   5.650  1.00  0.00     0.015 A 
HETATM   13  N   UNL     1      43.256 -17.176   4.976  1.00  0.00    -0.258 NA
HETATM   14  C   UNL     1      44.006 -17.055   6.095  1.00  0.00     0.117 A 
HETATM   15  C   UNL     1      44.981 -17.958   6.471  1.00  0.00     0.020 A 
ENDBRANCH   1   5
BRANCH   2  16
HETATM   16  C   UNL     1      40.748 -15.340   1.974  1.00  0.00     0.141 C 
BRANCH  16  17
HETATM   17  C   UNL     1      40.974 -14.438   3.167  1.00  0.00    -0.047 A 
HETATM   18  C   UNL     1      40.298 -14.681   4.374  1.00  0.00     0.044 A 
HETATM   19  C   UNL     1      40.479 -13.829   5.459  1.00  0.00     0.066 A 
HETATM   20  C   UNL     1      41.339 -12.742   5.374  1.00  0.00     0.036 A 
HETATM   21  C   UNL     1      42.025 -12.499   4.185  1.00  0.00     0.003 A 
HETATM   22  C   UNL     1      41.842 -13.341   3.084  1.00  0.00     0.007 A 
BRANCH  19  23
HETATM   23  O   UNL     1      39.812 -14.026   6.633  1.00  0.00    -0.361 OA
HETATM   24  H   UNL     1      38.926 -14.365   6.423  1.00  0.00     0.217 HD
ENDBRANCH  19  23
ENDBRANCH  16  17
ENDBRANCH   2  16
TORSDOF 4
ENDMDL
MODEL 3
REMARK VINA RESULT:      -8.2      2.551      6.856
REMARK  4 active torsions:
REMARK  status: ('A' for Active; 'I' for Inactive)
REMARK    1  A    between atoms: C_4  and  N_5 
REMARK       I    between atoms: N_5  and  C_6 
REMARK    2  A    between atoms: C_6  and  C_7 
REMARK    3  A    between atoms: C_7  and  C_8 
REMARK    4  A    between atoms: C_10  and  O_11 
ROOT
HETATM    1  N   UNL     1      41.968 -17.688   2.035  1.00  0.00    -0.325 N 
HETATM    2  C   UNL     1      43.311 -17.793   1.746  1.00  0.00     0.226 C 
HETATM    3  O   UNL     1      44.114 -16.863   1.708  1.00  0.00    -0.273 OA
HETATM    4  H   UNL     1      41.433 -18.531   2.233  1.00  0.00     0.169 HD
ENDROOT
BRANCH   1   5
HETATM    5  C   UNL     1      41.197 -16.507   2.174  1.00  0.00     0.065 A 
HETATM    6  C   UNL     1      40.644 -15.829   1.082  1.00  0.00     0.038 A 
HETATM    7  C   UNL     1      39.850 -14.695   1.276  1.00  0.00    -0.059 A 
HETATM    8  C   UNL     1      39.239 -13.976   0.109  1.00  0.00     0.048 C 
HETATM    9  C   UNL     1      39.633 -14.235   2.577  1.00  0.00     0.020 A 
HETATM   10  C   UNL     1      40.186 -14.910   3.678  1.00  0.00    -0.005 A 
HETATM   11  C   UNL     1      40.972 -16.066   3.488  1.00  0.00     0.093 A 
HETATM   12  C   UNL     1      39.975 -14.461   4.989  1.00  0.00     0.015 A 
HETATM   13  N   UNL     1      41.510 -16.745   4.533  1.00  0.00    -0.258 NA
HETATM   14  C   UNL     1      41.284 -16.274   5.781  1.00  0.00     0.117 A 
HETATM   15  C   UNL     1      40.533 -15.150   6.057  1.00  0.00     0.020 A 
ENDBRANCH   1   5
BRANCH   2  16
HETATM   16  C   UNL     1      43.751 -19.217   1.430  1.00  0.00     0.141 C 
BRANCH  16  17
HETATM   17  C   UNL     1      44.139 -19.976   2.680  1.00  0.00    -0.047 A 
HETATM   18  C   UNL     1      44.355 -21.363   2.625  1.00  0.00     0.044 A 
HETATM   19  C   UNL     1      44.675 -22.065   3.782  1.00  0.00     0.066 A 
HETATM   20  C   UNL     1      44.804 -21.410   4.999  1.00  0.00     0.036 A 
HETATM   21  C   UNL     1      44.604 -20.031   5.063  1.00  0.00     0.003 A 
HETATM   22  C   UNL     1      44.271 -19.317   3.909  1.00  0.00     0.007 A 
BRANCH  19  23
HETATM   23  O   UNL     1      44.861 -23.416   3.761  1.00  0.00    -0.361 OA
HETATM   24  H   UNL     1      45.252 -23.654   2.903  1.00  0.00     0.217 HD
ENDBRANCH  19  23
ENDBRANCH  16  17
ENDBRANCH   2  16
TORSDOF 4
ENDMDL
MODEL 4
REMARK VINA RESULT:      -8.1      1.471      1.735
REMARK  4 active torsions:
REMARK  status: ('A' for Active; 'I' for Inactive)
REMARK    1  A    between atoms: C_4  and  N_5 
REMARK       I    between atoms: N_5  and  C_6 
REMARK    2  A    between atoms: C_6  and  C_7 
REMARK    3  A    between atoms: C_7  and  C_8 
REMARK    4  A    between atoms: C_10  and  O_11 
ROOT
HETATM    1  N   UNL     1      42.263 -16.100   2.512  1.00  0.00    -0.325 N 
HETATM    2  C   UNL     1      41.004 -15.924   1.980  1.00  0.00     0.226 C 
HETATM    3  O   UNL     1      40.121 -16.778   1.921  1.00  0.00    -0.273 OA
HETATM    4  H   UNL     1      42.847 -15.286   2.691  1.00  0.00     0.169 HD
ENDROOT
BRANCH   1   5
HETATM    5  C   UNL     1      42.868 -17.309   2.936  1.00  0.00     0.065 A 
HETATM    6  C   UNL     1      42.934 -18.449   2.126  1.00  0.00     0.038 A 
HETATM    7  C   UNL     1      43.586 -19.603   2.573  1.00  0.00    -0.059 A 
HETATM    8  C   UNL     1      43.676 -20.820   1.700  1.00  0.00     0.048 C 
HETATM    9  C   UNL     1      44.151 -19.609   3.850  1.00  0.00     0.020 A 
HETATM   10  C   UNL     1      44.087 -18.469   4.668  1.00  0.00    -0.005 A 
HETATM   11  C   UNL     1      43.448 -17.297   4.214  1.00  0.00     0.093 A 
HETATM   12  C   UNL     1      44.653 -18.461   5.951  1.00  0.00     0.015 A 
HETATM   13  N   UNL     1      43.381 -16.177   4.978  1.00  0.00    -0.258 NA
HETATM   14  C   UNL     1      43.936 -16.214   6.211  1.00  0.00     0.117 A 
HETATM   15  C   UNL     1      44.576 -17.319   6.736  1.00  0.00     0.020 A 
ENDBRANCH   1   5
BRANCH   2  16
HETATM   16  C   UNL     1      40.778 -14.529   1.411  1.00  0.00     0.141 C 
BRANCH  16  17
HETATM   17  C   UNL     1      40.381 -14.575  -0.048  1.00  0.00    -0.047 A 
HETATM   18  C   UNL     1      41.273 -15.081  -1.007  1.00  0.00     0.044 A 
HETATM   19  C   UNL     1      40.920 -15.089  -2.353  1.00  0.00     0.066 A 
HETATM   20  C   UNL     1      39.681 -14.616  -2.766  1.00  0.00     0.036 A 
HETATM   21  C   UNL     1      38.783 -14.122  -1.820  1.00  0.00     0.003 A 
HETATM   22  C   UNL     1      39.132 -14.099  -0.467  1.00  0.00     0.007 A 
BRANCH  19  23
HETATM   23  O   UNL     1      41.779 -15.549  -3.307  1.00  0.00    -0.361 OA
HETATM   24  H   UNL     1      42.390 -16.176  -2.886  1.00  0.00     0.217 HD
ENDBRANCH  19  23
ENDBRANCH  16  17
ENDBRANCH   2  16
TORSDOF 4
ENDMDL
MODEL 5
REMARK VINA RESULT:      -7.9      1.981      2.786
REMARK  4 active torsions:
REMARK  status: ('A' for Active; 'I' for Inactive)
REMARK    1  A    between atoms: C_4  and  N_5 
REMARK       I    between atoms: N_5  and  C_6 
REMARK    2  A    between atoms: C_6  and  C_7 
REMARK    3  A    between atoms: C_7  and  C_8 
REMARK    4  A    between atoms: C_10  and  O_11 
ROOT
HETATM    1  N   UNL     1      42.862 -17.170   1.760  1.00  0.00    -0.325 N 
HETATM    2  C   UNL     1      41.655 -17.076   1.103  1.00  0.00     0.226 C 
HETATM    3  O   UNL     1      40.751 -17.909   1.135  1.00  0.00    -0.273 OA
HETATM    4  H   UNL     1      43.459 -16.347   1.828  1.00  0.00     0.169 HD
ENDROOT
BRANCH   1   5
HETATM    5  C   UNL     1      43.392 -18.286   2.454  1.00  0.00     0.065 A 
HETATM    6  C   UNL     1      43.622 -19.523   1.840  1.00  0.00     0.038 A 
HETATM    7  C   UNL     1      44.191 -20.579   2.556  1.00  0.00    -0.059 A 
HETATM    8  C   UNL     1      44.457 -21.900   1.896  1.00  0.00     0.048 C 
HETATM    9  C   UNL     1      44.509 -20.389   3.903  1.00  0.00     0.020 A 
HETATM   10  C   UNL     1      44.281 -19.152   4.527  1.00  0.00    -0.005 A 
HETATM   11  C   UNL     1      43.724 -18.077   3.802  1.00  0.00     0.093 A 
HETATM   12  C   UNL     1      44.597 -18.947   5.877  1.00  0.00     0.015 A 
HETATM   13  N   UNL     1      43.502 -16.867   4.375  1.00  0.00    -0.258 NA
HETATM   14  C   UNL     1      43.818 -16.713   5.681  1.00  0.00     0.117 A 
HETATM   15  C   UNL     1      44.361 -17.712   6.465  1.00  0.00     0.020 A 
ENDBRANCH   1   5
BRANCH   2  16
HETATM   16  C   UNL     1      41.521 -15.813   0.262  1.00  0.00     0.141 C 
BRANCH  16  17
HETATM   17  C   UNL     1      40.894 -14.681   1.044  1.00  0.00    -0.047 A 
HETATM   18  C   UNL     1      41.705 -13.731   1.686  1.00  0.00     0.044 A 
HETATM   19  C   UNL     1      41.127 -12.711   2.436  1.00  0.00     0.066 A 
HETATM   20  C   UNL     1      39.747 -12.605   2.547  1.00  0.00     0.036 A 
HETATM   21  C   UNL     1      38.932 -13.536   1.904  1.00  0.00     0.003 A 
HETATM   22  C   UNL     1      39.502 -14.571   1.158  1.00  0.00     0.007 A 
BRANCH  19  23
HETATM   23  O   UNL     1      41.894 -11.793   3.092  1.00  0.00    -0.361 OA
HETATM   24  H   UNL     1      42.767 -11.769   2.665  1.00  0.00     0.217 HD
ENDBRANCH  19  23
ENDBRANCH  16  17
ENDBRANCH   2  16
TORSDOF 4
ENDMDL
MODEL 6
REMARK VINA RESULT:      -7.9      3.365      5.126
REMARK  4 active torsions:
REMARK  status: ('A' for Active; 'I' for Inactive)
REMARK    1  A    between atoms: C_4  and  N_5 
REMARK       I    between atoms: N_5  and  C_6 
REMARK    2  A    between atoms: C_6  and  C_7 
REMARK    3  A    between atoms: C_7  and  C_8 
REMARK    4  A    between atoms: C_10  and  O_11 
ROOT
HETATM    1  N   UNL     1      41.533 -17.163   3.919  1.00  0.00    -0.325 N 
HETATM    2  C   UNL     1      41.648 -15.918   3.342  1.00  0.00     0.226 C 
HETATM    3  O   UNL     1      42.689 -15.276   3.217  1.00  0.00    -0.273 OA
HETATM    4  H   UNL     1      40.670 -17.691   3.800  1.00  0.00     0.169 HD
ENDROOT
BRANCH   1   5
HETATM    5  C   UNL     1      42.520 -17.887   4.633  1.00  0.00     0.065 A 
HETATM    6  C   UNL     1      42.790 -17.668   5.989  1.00  0.00     0.038 A 
HETATM    7  C   UNL     1      43.741 -18.442   6.661  1.00  0.00    -0.059 A 
HETATM    8  C   UNL     1      44.018 -18.223   8.119  1.00  0.00     0.048 C 
HETATM    9  C   UNL     1      44.435 -19.425   5.952  1.00  0.00     0.020 A 
HETATM   10  C   UNL     1      44.171 -19.650   4.591  1.00  0.00    -0.005 A 
HETATM   11  C   UNL     1      43.198 -18.884   3.915  1.00  0.00     0.093 A 
HETATM   12  C   UNL     1      44.858 -20.635   3.869  1.00  0.00     0.015 A 
HETATM   13  N   UNL     1      42.914 -19.087   2.603  1.00  0.00    -0.258 NA
HETATM   14  C   UNL     1      43.604 -20.045   1.943  1.00  0.00     0.117 A 
HETATM   15  C   UNL     1      44.574 -20.836   2.525  1.00  0.00     0.020 A 
ENDBRANCH   1   5
BRANCH   2  16
HETATM   16  C   UNL     1      40.317 -15.345   2.871  1.00  0.00     0.141 C 
BRANCH  16  17
HETATM   17  C   UNL     1      39.897 -14.148   3.694  1.00  0.00    -0.047 A 
HETATM   18  C   UNL     1      39.882 -14.226   5.097  1.00  0.00     0.044 A 
HETATM   19  C   UNL     1      39.460 -13.136   5.852  1.00  0.00     0.066 A 
HETATM   20  C   UNL     1      39.067 -11.955   5.237  1.00  0.00     0.036 A 
HETATM   21  C   UNL     1      39.089 -11.863   3.846  1.00  0.00     0.003 A 
HETATM   22  C   UNL     1      39.500 -12.955   3.077  1.00  0.00     0.007 A 
BRANCH  19  23
HETATM   23  O   UNL     1      39.410 -13.197   7.214  1.00  0.00    -0.361 OA
HETATM   24  H   UNL     1      40.307 -13.376   7.542  1.00  0.00     0.217 HD
ENDBRANCH  19  23
ENDBRANCH  16  17
ENDBRANCH   2  16
TORSDOF 4
ENDMDL
MODEL 7
REMARK VINA RESULT:      -7.8      3.328      7.411
REMARK  4 active torsions:
REMARK  status: ('A' for Active; 'I' for Inactive)
REMARK    1  A    between atoms: C_4  and  N_5 
REMARK       I    between atoms: N_5  and  C_6 
REMARK    2  A    between atoms: C_6  and  C_7 
REMARK    3  A    between atoms: C_7  and  C_8 
REMARK    4  A    between atoms: C_10  and  O_11 
ROOT
HETATM    1  N   UNL     1      42.224 -17.600   5.759  1.00  0.00    -0.325 N 
HETATM    2  C   UNL     1      43.549 -17.585   6.137  1.00  0.00     0.226 C 
HETATM    3  O   UNL     1      44.271 -16.592   6.188  1.00  0.00    -0.273 OA
HETATM    4  H   UNL     1      41.664 -18.432   5.936  1.00  0.00     0.169 HD
ENDROOT
BRANCH   1   5
HETATM    5  C   UNL     1      41.467 -16.543   5.195  1.00  0.00     0.065 A 
HETATM    6  C   UNL     1      40.957 -15.484   5.955  1.00  0.00     0.038 A 
HETATM    7  C   UNL     1      40.258 -14.440   5.344  1.00  0.00    -0.059 A 
HETATM    8  C   UNL     1      39.727 -13.294   6.153  1.00  0.00     0.048 C 
HETATM    9  C   UNL     1      40.055 -14.479   3.962  1.00  0.00     0.020 A 
HETATM   10  C   UNL     1      40.563 -15.539   3.193  1.00  0.00    -0.005 A 
HETATM   11  C   UNL     1      41.287 -16.585   3.804  1.00  0.00     0.093 A 
HETATM   12  C   UNL     1      40.370 -15.590   1.806  1.00  0.00     0.015 A 
HETATM   13  N   UNL     1      41.798 -17.616   3.084  1.00  0.00    -0.258 NA
HETATM   14  C   UNL     1      41.585 -17.628   1.748  1.00  0.00     0.117 A 
HETATM   15  C   UNL     1      40.885 -16.649   1.071  1.00  0.00     0.020 A 
ENDBRANCH   1   5
BRANCH   2  16
HETATM   16  C   UNL     1      44.096 -18.966   6.475  1.00  0.00     0.141 C 
BRANCH  16  17
HETATM   17  C   UNL     1      44.293 -19.812   5.237  1.00  0.00    -0.047 A 
HETATM   18  C   UNL     1      44.497 -21.197   5.353  1.00  0.00     0.044 A 
HETATM   19  C   UNL     1      44.714 -21.967   4.215  1.00  0.00     0.066 A 
HETATM   20  C   UNL     1      44.716 -21.388   2.953  1.00  0.00     0.036 A 
HETATM   21  C   UNL     1      44.503 -20.016   2.826  1.00  0.00     0.003 A 
HETATM   22  C   UNL     1      44.295 -19.230   3.962  1.00  0.00     0.007 A 
BRANCH  19  23
HETATM   23  O   UNL     1      44.942 -23.309   4.303  1.00  0.00    -0.361 OA
HETATM   24  H   UNL     1      45.786 -23.502   3.862  1.00  0.00     0.217 HD
ENDBRANCH  19  23
ENDBRANCH  16  17
ENDBRANCH   2  16
TORSDOF 4
ENDMDL
MODEL 8
REMARK VINA RESULT:      -7.8      4.226      7.442
REMARK  4 active torsions:
REMARK  status: ('A' for Active; 'I' for Inactive)
REMARK    1  A    between atoms: C_4  and  N_5 
REMARK       I    between atoms: N_5  and  C_6 
REMARK    2  A    between atoms: C_6  and  C_7 
REMARK    3  A    between atoms: C_7  and  C_8 
REMARK    4  A    between atoms: C_10  and  O_11 
ROOT
HETATM    1  N   UNL     1      43.487 -17.456   6.690  1.00  0.00    -0.325 N 
HETATM    2  C   UNL     1      44.565 -18.305   6.562  1.00  0.00     0.226 C 
HETATM    3  O   UNL     1      45.744 -17.965   6.487  1.00  0.00    -0.273 OA
HETATM    4  H   UNL     1      42.577 -17.839   6.939  1.00  0.00     0.169 HD
ENDROOT
BRANCH   1   5
HETATM    5  C   UNL     1      43.476 -16.043   6.591  1.00  0.00     0.065 A 
HETATM    6  C   UNL     1      44.304 -15.220   7.364  1.00  0.00     0.038 A 
HETATM    7  C   UNL     1      44.289 -13.833   7.194  1.00  0.00    -0.059 A 
HETATM    8  C   UNL     1      45.189 -12.950   8.007  1.00  0.00     0.048 C 
HETATM    9  C   UNL     1      43.418 -13.276   6.254  1.00  0.00     0.020 A 
HETATM   10  C   UNL     1      42.583 -14.094   5.476  1.00  0.00    -0.005 A 
HETATM   11  C   UNL     1      42.610 -15.497   5.631  1.00  0.00     0.093 A 
HETATM   12  C   UNL     1      41.707 -13.549   4.528  1.00  0.00     0.015 A 
HETATM   13  N   UNL     1      41.822 -16.313   4.885  1.00  0.00    -0.258 NA
HETATM   14  C   UNL     1      40.988 -15.744   3.985  1.00  0.00     0.117 A 
HETATM   15  C   UNL     1      40.895 -14.383   3.772  1.00  0.00     0.020 A 
ENDBRANCH   1   5
BRANCH   2  16
HETATM   16  C   UNL     1      44.170 -19.774   6.483  1.00  0.00     0.141 C 
BRANCH  16  17
HETATM   17  C   UNL     1      44.255 -20.304   5.069  1.00  0.00    -0.047 A 
HETATM   18  C   UNL     1      44.549 -21.658   4.839  1.00  0.00     0.044 A 
HETATM   19  C   UNL     1      44.663 -22.136   3.538  1.00  0.00     0.066 A 
HETATM   20  C   UNL     1      44.470 -21.294   2.451  1.00  0.00     0.036 A 
HETATM   21  C   UNL     1      44.166 -19.950   2.668  1.00  0.00     0.003 A 
HETATM   22  C   UNL     1      44.061 -19.456   3.971  1.00  0.00     0.007 A 
BRANCH  19  23
HETATM   23  O   UNL     1      44.976 -23.440   3.288  1.00  0.00    -0.361 OA
HETATM   24  H   UNL     1      44.425 -23.999   3.862  1.00  0.00     0.217 HD
ENDBRANCH  19  23
ENDBRANCH  16  17
ENDBRANCH   2  16
TORSDOF 4
ENDMDL
MODEL 9
REMARK VINA RESULT:      -7.8      2.241      3.849
REMARK  4 active torsions:
REMARK  status: ('A' for Active; 'I' for Inactive)
REMARK    1  A    between atoms: C_4  and  N_5 
REMARK       I    between atoms: N_5  and  C_6 
REMARK    2  A    between atoms: C_6  and  C_7 
REMARK    3  A    between atoms: C_7  and  C_8 
REMARK    4  A    between atoms: C_10  and  O_11 
ROOT
HETATM    1  N   UNL     1      41.092 -14.701   2.268  1.00  0.00    -0.325 N 
HETATM    2  C   UNL     1      39.919 -14.508   1.572  1.00  0.00     0.226 C 
HETATM    3  O   UNL     1      38.878 -15.145   1.724  1.00  0.00    -0.273 OA
HETATM    4  H   UNL     1      41.828 -14.001   2.208  1.00  0.00     0.169 HD
ENDROOT
BRANCH   1   5
HETATM    5  C   UNL     1      41.411 -15.755   3.160  1.00  0.00     0.065 A 
HETATM    6  C   UNL     1      40.879 -15.845   4.452  1.00  0.00     0.038 A 
HETATM    7  C   UNL     1      41.187 -16.930   5.276  1.00  0.00    -0.059 A 
HETATM    8  C   UNL     1      40.603 -17.039   6.654  1.00  0.00     0.048 C 
HETATM    9  C   UNL     1      42.055 -17.916   4.800  1.00  0.00     0.020 A 
HETATM   10  C   UNL     1      42.594 -17.833   3.506  1.00  0.00    -0.005 A 
HETATM   11  C   UNL     1      42.269 -16.748   2.663  1.00  0.00     0.093 A 
HETATM   12  C   UNL     1      43.464 -18.816   3.014  1.00  0.00     0.015 A 
HETATM   13  N   UNL     1      42.767 -16.648   1.405  1.00  0.00    -0.258 NA
HETATM   14  C   UNL     1      43.605 -17.616   0.972  1.00  0.00     0.117 A 
HETATM   15  C   UNL     1      43.980 -18.708   1.730  1.00  0.00     0.020 A 
ENDBRANCH   1   5
BRANCH   2  16
HETATM   16  C   UNL     1      40.014 -13.410   0.520  1.00  0.00     0.141 C 
BRANCH  16  17
HETATM   17  C   UNL     1      39.919 -13.966  -0.883  1.00  0.00    -0.047 A 
HETATM   18  C   UNL     1      41.072 -14.427  -1.540  1.00  0.00     0.044 A 
HETATM   19  C   UNL     1      40.989 -14.903  -2.844  1.00  0.00     0.066 A 
HETATM   20  C   UNL     1      39.771 -14.948  -3.509  1.00  0.00     0.036 A 
HETATM   21  C   UNL     1      38.618 -14.504  -2.862  1.00  0.00     0.003 A 
HETATM   22  C   UNL     1      38.691 -14.012  -1.555  1.00  0.00     0.007 A 
BRANCH  19  23
HETATM   23  O   UNL     1      42.098 -15.330  -3.513  1.00  0.00    -0.361 OA
HETATM   24  H   UNL     1      42.400 -14.608  -4.089  1.00  0.00     0.217 HD
ENDBRANCH  19  23
ENDBRANCH  16  17
ENDBRANCH   2  16
TORSDOF 4
ENDMDL
MODEL 10
REMARK VINA RESULT:      -7.7      2.402      7.982
REMARK  4 active torsions:
REMARK  status: ('A' for Active; 'I' for Inactive)
REMARK    1  A    between atoms: C_4  and  N_5 
REMARK       I    between atoms: N_5  and  C_6 
REMARK    2  A    between atoms: C_6  and  C_7 
REMARK    3  A    between atoms: C_7  and  C_8 
REMARK    4  A    between atoms: C_10  and  O_11 
ROOT
HETATM    1  N   UNL     1      42.199 -15.824   0.309  1.00  0.00    -0.325 N 
HETATM    2  C   UNL     1      42.259 -17.103   0.817  1.00  0.00     0.226 C 
HETATM    3  O   UNL     1      41.296 -17.789   1.155  1.00  0.00    -0.273 OA
HETATM    4  H   UNL     1      43.029 -15.418  -0.121  1.00  0.00     0.169 HD
ENDROOT
BRANCH   1   5
HETATM    5  C   UNL     1      41.071 -14.970   0.229  1.00  0.00     0.065 A 
HETATM    6  C   UNL     1      40.594 -14.238   1.322  1.00  0.00     0.038 A 
HETATM    7  C   UNL     1      39.506 -13.372   1.180  1.00  0.00    -0.059 A 
HETATM    8  C   UNL     1      39.004 -12.571   2.345  1.00  0.00     0.048 C 
HETATM    9  C   UNL     1      38.886 -13.264  -0.067  1.00  0.00     0.020 A 
HETATM   10  C   UNL     1      39.358 -13.997  -1.169  1.00  0.00    -0.005 A 
HETATM   11  C   UNL     1      40.468 -14.857  -1.034  1.00  0.00     0.093 A 
HETATM   12  C   UNL     1      38.747 -13.896  -2.426  1.00  0.00     0.015 A 
HETATM   13  N   UNL     1      40.953 -15.568  -2.083  1.00  0.00    -0.258 NA
HETATM   14  C   UNL     1      40.331 -15.445  -3.278  1.00  0.00     0.117 A 
HETATM   15  C   UNL     1      39.237 -14.631  -3.497  1.00  0.00     0.020 A 
ENDBRANCH   1   5
BRANCH   2  16
HETATM   16  C   UNL     1      43.681 -17.627   0.967  1.00  0.00     0.141 C 
BRANCH  16  17
HETATM   17  C   UNL     1      43.896 -18.293   2.308  1.00  0.00    -0.047 A 
HETATM   18  C   UNL     1      43.778 -17.548   3.493  1.00  0.00     0.044 A 
HETATM   19  C   UNL     1      44.012 -18.152   4.724  1.00  0.00     0.066 A 
HETATM   20  C   UNL     1      44.347 -19.498   4.803  1.00  0.00     0.036 A 
HETATM   21  C   UNL     1      44.455 -20.249   3.634  1.00  0.00     0.003 A 
HETATM   22  C   UNL     1      44.233 -19.650   2.391  1.00  0.00     0.007 A 
BRANCH  19  23
HETATM   23  O   UNL     1      43.932 -17.444   5.887  1.00  0.00    -0.361 OA
HETATM   24  H   UNL     1      44.833 -17.199   6.155  1.00  0.00     0.217 HD
ENDBRANCH  19  23
ENDBRANCH  16  17
ENDBRANCH   2  16
TORSDOF 4
ENDMDL
