MODEL 1
REMARK VINA RESULT:      -8.9      0.000      0.000
REMARK  7 active torsions:
REMARK  status: ('A' for Active; 'I' for Inactive)
REMARK    1  A    between atoms: C_2  and  O_3 
REMARK    2  A    between atoms: O_3  and  C_4 
REMARK       I    between atoms: C_4  and  N_5 
REMARK       I    between atoms: N_8  and  C_9 
REMARK    3  A    between atoms: C_9  and  C_10 
REMARK    4  A    between atoms: C_11  and  N_12 
REMARK       I    between atoms: N_12  and  C_13 
REMARK    5  A    between atoms: C_13  and  C_14 
REMARK    6  A    between atoms: N_16  and  C_17 
REMARK    7  A    between atoms: C_18  and  O_19 
ROOT
HETATM    1  C   UNL     1      41.815 -12.830   4.192  1.00  0.00     0.059 A 
HETATM    2  C   UNL     1      41.998 -13.240   5.523  1.00  0.00     0.050 A 
HETATM    3  C   UNL     1      41.704 -12.329   6.554  1.00  0.00     0.030 A 
HETATM    4  C   UNL     1      41.214 -11.051   6.274  1.00  0.00     0.002 A 
HETATM    5  C   UNL     1      41.044 -10.647   4.956  1.00  0.00     0.001 A 
HETATM    6  C   UNL     1      41.363 -11.523   3.921  1.00  0.00     0.019 A 
ENDROOT
BRANCH   2   7
HETATM    7  N   UNL     1      42.544 -14.468   5.949  1.00  0.00    -0.326 N 
HETATM    8  C   UNL     1      43.851 -14.739   6.298  1.00  0.00     0.228 C 
HETATM    9  O   UNL     1      44.820 -14.075   5.940  1.00  0.00    -0.273 OA
HETATM   10  H   UNL     1      41.918 -15.263   5.889  1.00  0.00     0.169 HD
BRANCH   8  11
HETATM   11  C   UNL     1      44.032 -15.980   7.183  1.00  0.00     0.105 C 
HETATM   12  C   UNL     1      44.758 -17.119   6.490  1.00  0.00     0.147 C 
HETATM   13  N   UNL     1      43.691 -17.834   5.819  1.00  0.00    -0.315 N 
HETATM   14  C   UNL     1      42.456 -17.598   6.442  1.00  0.00     0.225 C 
HETATM   15  O   UNL     1      41.376 -18.108   6.189  1.00  0.00    -0.273 OA
HETATM   16  C   UNL     1      42.683 -16.592   7.546  1.00  0.00     0.119 C 
BRANCH  13  17
HETATM   17  C   UNL     1      43.881 -18.526   4.594  1.00  0.00     0.071 A 
HETATM   18  C   UNL     1      44.358 -19.847   4.541  1.00  0.00     0.095 A 
HETATM   19  C   UNL     1      44.687 -20.443   3.318  1.00  0.00     0.039 A 
HETATM   20  C   UNL     1      44.516 -19.739   2.128  1.00  0.00     0.009 A 
HETATM   21  C   UNL     1      43.995 -18.444   2.148  1.00  0.00    -0.060 A 
HETATM   22  C   UNL     1      43.870 -17.651   0.879  1.00  0.00     0.048 C 
HETATM   23  C   UNL     1      43.675 -17.852   3.380  1.00  0.00     0.039 A 
BRANCH  18  24
HETATM   24  O   UNL     1      44.511 -20.574   5.698  1.00  0.00    -0.354 OA
HETATM   25  C   UNL     1      44.720 -21.957   5.399  1.00  0.00     0.210 C 
ENDBRANCH  18  24
ENDBRANCH  13  17
ENDBRANCH   8  11
ENDBRANCH   2   7
BRANCH   1  26
HETATM   26  C   UNL     1      42.302 -13.605   3.026  1.00  0.00     0.256 C 
HETATM   27  N   UNL     1      41.378 -14.091   2.110  1.00  0.00    -0.345 N 
HETATM   28  C   UNL     1      39.922 -14.136   2.281  1.00  0.00     0.146 C 
HETATM   29  C   UNL     1      41.841 -14.753   0.894  1.00  0.00     0.146 C 
HETATM   30  C   UNL     1      39.232 -13.475   1.082  1.00  0.00     0.148 C 
HETATM   31  N   UNL     1      39.717 -13.984  -0.204  1.00  0.00    -0.325 N 
HETATM   32  C   UNL     1      38.911 -13.776  -1.314  1.00  0.00     0.362 C 
HETATM   33  C   UNL     1      41.174 -14.143  -0.346  1.00  0.00     0.148 C 
HETATM   34  O   UNL     1      37.768 -13.338  -1.250  1.00  0.00    -0.238 OA
HETATM   35  O   UNL     1      43.520 -13.704   2.878  1.00  0.00    -0.267 OA
BRANCH  32  36
HETATM   36  O   UNL     1      39.529 -14.114  -2.478  1.00  0.00    -0.304 OA
BRANCH  36  37
HETATM   37  C   UNL     1      38.678 -14.608  -3.521  1.00  0.00     0.176 C 
HETATM   38  C   UNL     1      39.098 -16.006  -3.941  1.00  0.00     0.034 C 
ENDBRANCH  36  37
ENDBRANCH  32  36
ENDBRANCH   1  26
TORSDOF 7
ENDMDL
MODEL 2
REMARK VINA RESULT:      -8.6      2.705      4.387
REMARK  7 active torsions:
REMARK  status: ('A' for Active; 'I' for Inactive)
REMARK    1  A    between atoms: C_2  and  O_3 
REMARK    2  A    between atoms: O_3  and  C_4 
REMARK       I    between atoms: C_4  and  N_5 
REMARK       I    between atoms: N_8  and  C_9 
REMARK    3  A    between atoms: C_9  and  C_10 
REMARK    4  A    between atoms: C_11  and  N_12 
REMARK       I    between atoms: N_12  and  C_13 
REMARK    5  A    between atoms: C_13  and  C_14 
REMARK    6  A    between atoms: N_16  and  C_17 
REMARK    7  A    between atoms: C_18  and  O_19 
ROOT
HETATM    1  C   UNL     1      39.064 -12.883   3.224  1.00  0.00     0.059 A 
HETATM    2  C   UNL     1      39.637 -14.099   3.630  1.00  0.00     0.050 A 
HETATM    3  C   UNL     1      40.148 -14.199   4.937  1.00  0.00     0.030 A 
HETATM    4  C   UNL     1      40.069 -13.127   5.831  1.00  0.00     0.002 A 
HETATM    5  C   UNL     1      39.511 -11.923   5.421  1.00  0.00     0.001 A 
HETATM    6  C   UNL     1      39.031 -11.794   4.119  1.00  0.00     0.019 A 
ENDROOT
BRANCH   2   7
HETATM    7  N   UNL     1      39.842 -15.235   2.820  1.00  0.00    -0.326 N 
HETATM    8  C   UNL     1      40.836 -15.441   1.886  1.00  0.00     0.228 C 
HETATM    9  O   UNL     1      41.470 -14.546   1.333  1.00  0.00    -0.273 OA
HETATM   10  H   UNL     1      39.109 -15.933   2.862  1.00  0.00     0.169 HD
BRANCH   8  11
HETATM   11  C   UNL     1      41.103 -16.915   1.552  1.00  0.00     0.105 C 
HETATM   12  C   UNL     1      41.474 -17.755   2.762  1.00  0.00     0.147 C 
HETATM   13  N   UNL     1      42.909 -17.584   2.859  1.00  0.00    -0.315 N 
HETATM   14  C   UNL     1      43.460 -17.226   1.619  1.00  0.00     0.225 C 
HETATM   15  O   UNL     1      44.638 -17.091   1.331  1.00  0.00    -0.273 OA
HETATM   16  C   UNL     1      42.320 -17.055   0.642  1.00  0.00     0.119 C 
BRANCH  13  17
HETATM   17  C   UNL     1      43.604 -17.609   4.097  1.00  0.00     0.071 A 
HETATM   18  C   UNL     1      44.226 -18.769   4.589  1.00  0.00     0.095 A 
HETATM   19  C   UNL     1      44.761 -18.804   5.881  1.00  0.00     0.039 A 
HETATM   20  C   UNL     1      44.709 -17.671   6.691  1.00  0.00     0.009 A 
HETATM   21  C   UNL     1      44.144 -16.489   6.209  1.00  0.00    -0.060 A 
HETATM   22  C   UNL     1      44.021 -15.284   7.095  1.00  0.00     0.048 C 
HETATM   23  C   UNL     1      43.602 -16.467   4.914  1.00  0.00     0.039 A 
BRANCH  18  24
HETATM   24  O   UNL     1      44.314 -19.892   3.802  1.00  0.00    -0.354 OA
HETATM   25  C   UNL     1      45.110 -20.894   4.442  1.00  0.00     0.210 C 
ENDBRANCH  18  24
ENDBRANCH  13  17
ENDBRANCH   8  11
ENDBRANCH   2   7
BRANCH   1  26
HETATM   26  C   UNL     1      38.705 -12.580   1.818  1.00  0.00     0.256 C 
HETATM   27  N   UNL     1      39.534 -11.746   1.079  1.00  0.00    -0.345 N 
HETATM   28  C   UNL     1      40.624 -10.916   1.599  1.00  0.00     0.146 C 
HETATM   29  C   UNL     1      39.265 -11.530  -0.340  1.00  0.00     0.146 C 
HETATM   30  C   UNL     1      41.914 -11.193   0.820  1.00  0.00     0.148 C 
HETATM   31  N   UNL     1      41.726 -11.122  -0.632  1.00  0.00    -0.325 N 
HETATM   32  C   UNL     1      42.861 -10.949  -1.411  1.00  0.00     0.362 C 
HETATM   33  C   UNL     1      40.527 -11.779  -1.178  1.00  0.00     0.148 C 
HETATM   34  O   UNL     1      43.969 -10.701  -0.950  1.00  0.00    -0.238 OA
HETATM   35  O   UNL     1      37.729 -13.161   1.343  1.00  0.00    -0.267 OA
BRANCH  32  36
HETATM   36  O   UNL     1      42.606 -11.084  -2.741  1.00  0.00    -0.304 OA
BRANCH  36  37
HETATM   37  C   UNL     1      42.587  -9.870  -3.504  1.00  0.00     0.176 C 
HETATM   38  C   UNL     1      42.439 -10.167  -4.986  1.00  0.00     0.034 C 
ENDBRANCH  36  37
ENDBRANCH  32  36
ENDBRANCH   1  26
TORSDOF 7
ENDMDL
MODEL 3
REMARK VINA RESULT:      -8.6      2.592      6.139
REMARK  7 active torsions:
REMARK  status: ('A' for Active; 'I' for Inactive)
REMARK    1  A    between atoms: C_2  and  O_3 
REMARK    2  A    between atoms: O_3  and  C_4 
REMARK       I    between atoms: C_4  and  N_5 
REMARK       I    between atoms: N_8  and  C_9 
REMARK    3  A    between atoms: C_9  and  C_10 
REMARK    4  A    between atoms: C_11  and  N_12 
REMARK       I    between atoms: N_12  and  C_13 
REMARK    5  A    between atoms: C_13  and  C_14 
REMARK    6  A    between atoms: N_16  and  C_17 
REMARK    7  A    between atoms: C_18  and  O_19 
ROOT
HETATM    1  C   UNL     1      39.432 -12.350   1.628  1.00  0.00     0.059 A 
HETATM    2  C   UNL     1      39.417 -13.708   1.985  1.00  0.00     0.050 A 
HETATM    3  C   UNL     1      38.421 -14.536   1.437  1.00  0.00     0.030 A 
HETATM    4  C   UNL     1      37.477 -14.037   0.535  1.00  0.00     0.002 A 
HETATM    5  C   UNL     1      37.490 -12.691   0.193  1.00  0.00     0.001 A 
HETATM    6  C   UNL     1      38.447 -11.847   0.753  1.00  0.00     0.019 A 
ENDROOT
BRANCH   2   7
HETATM    7  N   UNL     1      40.261 -14.331   2.927  1.00  0.00    -0.326 N 
HETATM    8  C   UNL     1      41.640 -14.352   2.946  1.00  0.00     0.228 C 
HETATM    9  O   UNL     1      42.354 -14.167   1.963  1.00  0.00    -0.273 OA
HETATM   10  H   UNL     1      39.791 -14.914   3.609  1.00  0.00     0.169 HD
BRANCH   8  11
HETATM   11  C   UNL     1      42.257 -14.648   4.320  1.00  0.00     0.105 C 
HETATM   12  C   UNL     1      43.440 -15.599   4.262  1.00  0.00     0.147 C 
HETATM   13  N   UNL     1      42.820 -16.907   4.330  1.00  0.00    -0.315 N 
HETATM   14  C   UNL     1      41.557 -16.835   4.937  1.00  0.00     0.225 C 
HETATM   15  O   UNL     1      40.810 -17.755   5.228  1.00  0.00    -0.273 OA
HETATM   16  C   UNL     1      41.263 -15.380   5.216  1.00  0.00     0.119 C 
BRANCH  13  17
HETATM   17  C   UNL     1      43.370 -18.052   3.696  1.00  0.00     0.071 A 
HETATM   18  C   UNL     1      43.204 -18.307   2.324  1.00  0.00     0.095 A 
HETATM   19  C   UNL     1      43.619 -19.520   1.765  1.00  0.00     0.039 A 
HETATM   20  C   UNL     1      44.234 -20.485   2.560  1.00  0.00     0.009 A 
HETATM   21  C   UNL     1      44.459 -20.237   3.916  1.00  0.00    -0.060 A 
HETATM   22  C   UNL     1      45.058 -21.294   4.797  1.00  0.00     0.048 C 
HETATM   23  C   UNL     1      44.031 -19.020   4.470  1.00  0.00     0.039 A 
BRANCH  18  24
HETATM   24  O   UNL     1      42.624 -17.362   1.511  1.00  0.00    -0.354 OA
HETATM   25  C   UNL     1      41.245 -17.668   1.289  1.00  0.00     0.210 C 
ENDBRANCH  18  24
ENDBRANCH  13  17
ENDBRANCH   8  11
ENDBRANCH   2   7
BRANCH   1  26
HETATM   26  C   UNL     1      40.276 -11.337   2.306  1.00  0.00     0.256 C 
HETATM   27  N   UNL     1      39.937 -10.934   3.592  1.00  0.00    -0.345 N 
HETATM   28  C   UNL     1      38.680 -11.216   4.291  1.00  0.00     0.146 C 
HETATM   29  C   UNL     1      40.819 -10.029   4.324  1.00  0.00     0.146 C 
HETATM   30  C   UNL     1      38.970 -11.836   5.663  1.00  0.00     0.148 C 
HETATM   31  N   UNL     1      39.945 -11.065   6.439  1.00  0.00    -0.325 N 
HETATM   32  C   UNL     1      39.981 -11.282   7.809  1.00  0.00     0.362 C 
HETATM   33  C   UNL     1      41.137 -10.588   5.717  1.00  0.00     0.148 C 
HETATM   34  O   UNL     1      39.151 -11.953   8.411  1.00  0.00    -0.238 OA
HETATM   35  O   UNL     1      41.297 -10.968   1.727  1.00  0.00    -0.267 OA
BRANCH  32  36
HETATM   36  O   UNL     1      41.036 -10.666   8.407  1.00  0.00    -0.304 OA
BRANCH  36  37
HETATM   37  C   UNL     1      40.848 -10.284   9.776  1.00  0.00     0.176 C 
HETATM   38  C   UNL     1      41.944 -10.864  10.652  1.00  0.00     0.034 C 
ENDBRANCH  36  37
ENDBRANCH  32  36
ENDBRANCH   1  26
TORSDOF 7
ENDMDL
MODEL 4
REMARK VINA RESULT:      -8.3      3.224      7.411
REMARK  7 active torsions:
REMARK  status: ('A' for Active; 'I' for Inactive)
REMARK    1  A    between atoms: C_2  and  O_3 
REMARK    2  A    between atoms: O_3  and  C_4 
REMARK       I    between atoms: C_4  and  N_5 
REMARK       I    between atoms: N_8  and  C_9 
REMARK    3  A    between atoms: C_9  and  C_10 
REMARK    4  A    between atoms: C_11  and  N_12 
REMARK       I    between atoms: N_12  and  C_13 
REMARK    5  A    between atoms: C_13  and  C_14 
REMARK    6  A    between atoms: N_16  and  C_17 
REMARK    7  A    between atoms: C_18  and  O_19 
ROOT
HETATM    1  C   UNL     1      42.900 -15.753   4.357  1.00  0.00     0.059 A 
HETATM    2  C   UNL     1      42.163 -15.466   5.518  1.00  0.00     0.050 A 
HETATM    3  C   UNL     1      41.996 -16.482   6.476  1.00  0.00     0.030 A 
HETATM    4  C   UNL     1      42.566 -17.746   6.301  1.00  0.00     0.002 A 
HETATM    5  C   UNL     1      43.285 -18.028   5.147  1.00  0.00     0.001 A 
HETATM    6  C   UNL     1      43.432 -17.045   4.170  1.00  0.00     0.019 A 
ENDROOT
BRANCH   2   7
HETATM    7  N   UNL     1      41.480 -14.264   5.795  1.00  0.00    -0.326 N 
HETATM    8  C   UNL     1      42.021 -13.026   6.070  1.00  0.00     0.228 C 
HETATM    9  O   UNL     1      43.159 -12.840   6.493  1.00  0.00    -0.273 OA
HETATM   10  H   UNL     1      40.476 -14.354   5.903  1.00  0.00     0.169 HD
BRANCH   8  11
HETATM   11  C   UNL     1      41.073 -11.844   5.824  1.00  0.00     0.105 C 
HETATM   12  C   UNL     1      41.444 -10.595   6.603  1.00  0.00     0.147 C 
HETATM   13  N   UNL     1      40.774 -10.783   7.874  1.00  0.00    -0.315 N 
HETATM   14  C   UNL     1      39.684 -11.657   7.745  1.00  0.00     0.225 C 
HETATM   15  O   UNL     1      38.861 -11.961   8.593  1.00  0.00    -0.273 OA
HETATM   16  C   UNL     1      39.666 -12.162   6.321  1.00  0.00     0.119 C 
BRANCH  13  17
HETATM   17  C   UNL     1      41.290 -10.277   9.096  1.00  0.00     0.071 A 
HETATM   18  C   UNL     1      40.703  -9.192   9.770  1.00  0.00     0.095 A 
HETATM   19  C   UNL     1      41.326  -8.616  10.882  1.00  0.00     0.039 A 
HETATM   20  C   UNL     1      42.529  -9.134  11.357  1.00  0.00     0.009 A 
HETATM   21  C   UNL     1      43.108 -10.244  10.739  1.00  0.00    -0.060 A 
HETATM   22  C   UNL     1      44.437 -10.769  11.199  1.00  0.00     0.048 C 
HETATM   23  C   UNL     1      42.480 -10.810   9.619  1.00  0.00     0.039 A 
BRANCH  18  24
HETATM   24  O   UNL     1      39.504  -8.678   9.338  1.00  0.00    -0.354 OA
HETATM   25  C   UNL     1      38.489  -8.871  10.327  1.00  0.00     0.210 C 
ENDBRANCH  18  24
ENDBRANCH  13  17
ENDBRANCH   8  11
ENDBRANCH   2   7
BRANCH   1  26
HETATM   26  C   UNL     1      42.952 -14.852   3.181  1.00  0.00     0.256 C 
HETATM   27  N   UNL     1      41.936 -14.923   2.236  1.00  0.00    -0.345 N 
HETATM   28  C   UNL     1      40.916 -15.970   2.130  1.00  0.00     0.146 C 
HETATM   29  C   UNL     1      41.903 -13.966   1.133  1.00  0.00     0.146 C 
HETATM   30  C   UNL     1      39.519 -15.340   2.085  1.00  0.00     0.148 C 
HETATM   31  N   UNL     1      39.410 -14.272   1.087  1.00  0.00    -0.325 N 
HETATM   32  C   UNL     1      38.135 -13.917   0.673  1.00  0.00     0.362 C 
HETATM   33  C   UNL     1      40.522 -13.307   1.026  1.00  0.00     0.148 C 
HETATM   34  O   UNL     1      37.125 -14.542   0.974  1.00  0.00    -0.238 OA
HETATM   35  O   UNL     1      43.853 -14.014   3.146  1.00  0.00    -0.267 OA
BRANCH  32  36
HETATM   36  O   UNL     1      38.131 -12.800  -0.105  1.00  0.00    -0.304 OA
BRANCH  36  37
HETATM   37  C   UNL     1      37.143 -11.812   0.218  1.00  0.00     0.176 C 
HETATM   38  C   UNL     1      37.451 -11.160   1.555  1.00  0.00     0.034 C 
ENDBRANCH  36  37
ENDBRANCH  32  36
ENDBRANCH   1  26
TORSDOF 7
ENDMDL
MODEL 5
REMARK VINA RESULT:      -8.2      2.432      5.392
REMARK  7 active torsions:
REMARK  status: ('A' for Active; 'I' for Inactive)
REMARK    1  A    between atoms: C_2  and  O_3 
REMARK    2  A    between atoms: O_3  and  C_4 
REMARK       I    between atoms: C_4  and  N_5 
REMARK       I    between atoms: N_8  and  C_9 
REMARK    3  A    between atoms: C_9  and  C_10 
REMARK    4  A    between atoms: C_11  and  N_12 
REMARK       I    between atoms: N_12  and  C_13 
REMARK    5  A    between atoms: C_13  and  C_14 
REMARK    6  A    between atoms: N_16  and  C_17 
REMARK    7  A    between atoms: C_18  and  O_19 
ROOT
HETATM    1  C   UNL     1      41.672 -13.507  -1.528  1.00  0.00     0.059 A 
HETATM    2  C   UNL     1      41.430 -14.676  -0.790  1.00  0.00     0.050 A 
HETATM    3  C   UNL     1      40.861 -15.782  -1.448  1.00  0.00     0.030 A 
HETATM    4  C   UNL     1      40.565 -15.740  -2.813  1.00  0.00     0.002 A 
HETATM    5  C   UNL     1      40.797 -14.577  -3.537  1.00  0.00     0.001 A 
HETATM    6  C   UNL     1      41.327 -13.460  -2.894  1.00  0.00     0.019 A 
ENDROOT
BRANCH   2   7
HETATM    7  N   UNL     1      41.616 -14.838   0.599  1.00  0.00    -0.326 N 
HETATM    8  C   UNL     1      42.442 -15.735   1.244  1.00  0.00     0.228 C 
HETATM    9  O   UNL     1      42.857 -16.780   0.750  1.00  0.00    -0.273 OA
HETATM   10  H   UNL     1      40.989 -14.299   1.184  1.00  0.00     0.169 HD
BRANCH   8  11
HETATM   11  C   UNL     1      42.815 -15.342   2.680  1.00  0.00     0.105 C 
HETATM   12  C   UNL     1      43.862 -16.248   3.304  1.00  0.00     0.147 C 
HETATM   13  N   UNL     1      43.076 -17.324   3.872  1.00  0.00    -0.315 N 
HETATM   14  C   UNL     1      41.760 -16.910   4.123  1.00  0.00     0.225 C 
HETATM   15  O   UNL     1      40.867 -17.534   4.674  1.00  0.00    -0.273 OA
HETATM   16  C   UNL     1      41.618 -15.494   3.613  1.00  0.00     0.119 C 
BRANCH  13  17
HETATM   17  C   UNL     1      43.560 -18.656   3.977  1.00  0.00     0.071 A 
HETATM   18  C   UNL     1      44.131 -19.159   5.158  1.00  0.00     0.095 A 
HETATM   19  C   UNL     1      44.742 -20.418   5.179  1.00  0.00     0.039 A 
HETATM   20  C   UNL     1      44.765 -21.205   4.030  1.00  0.00     0.009 A 
HETATM   21  C   UNL     1      44.158 -20.752   2.857  1.00  0.00    -0.060 A 
HETATM   22  C   UNL     1      44.235 -21.561   1.595  1.00  0.00     0.048 C 
HETATM   23  C   UNL     1      43.555 -19.484   2.843  1.00  0.00     0.039 A 
BRANCH  18  24
HETATM   24  O   UNL     1      44.100 -18.414   6.312  1.00  0.00    -0.354 OA
HETATM   25  C   UNL     1      43.824 -19.248   7.442  1.00  0.00     0.210 C 
ENDBRANCH  18  24
ENDBRANCH  13  17
ENDBRANCH   8  11
ENDBRANCH   2   7
BRANCH   1  26
HETATM   26  C   UNL     1      42.047 -12.213  -0.908  1.00  0.00     0.256 C 
HETATM   27  N   UNL     1      41.123 -11.565  -0.099  1.00  0.00    -0.345 N 
HETATM   28  C   UNL     1      39.700 -11.890   0.033  1.00  0.00     0.146 C 
HETATM   29  C   UNL     1      41.511 -10.353   0.617  1.00  0.00     0.146 C 
HETATM   30  C   UNL     1      39.336 -12.070   1.511  1.00  0.00     0.148 C 
HETATM   31  N   UNL     1      39.793 -10.956   2.348  1.00  0.00    -0.325 N 
HETATM   32  C   UNL     1      39.187 -10.803   3.586  1.00  0.00     0.362 C 
HETATM   33  C   UNL     1      41.160 -10.464   2.107  1.00  0.00     0.148 C 
HETATM   34  O   UNL     1      38.205 -11.440   3.945  1.00  0.00    -0.238 OA
HETATM   35  O   UNL     1      43.202 -11.819  -1.069  1.00  0.00    -0.267 OA
BRANCH  32  36
HETATM   36  O   UNL     1      39.805  -9.866   4.356  1.00  0.00    -0.304 OA
BRANCH  36  37
HETATM   37  C   UNL     1      40.153 -10.274   5.686  1.00  0.00     0.176 C 
HETATM   38  C   UNL     1      41.109 -11.453   5.655  1.00  0.00     0.034 C 
ENDBRANCH  36  37
ENDBRANCH  32  36
ENDBRANCH   1  26
TORSDOF 7
ENDMDL
MODEL 6
REMARK VINA RESULT:      -8.2      3.805      8.473
REMARK  7 active torsions:
REMARK  status: ('A' for Active; 'I' for Inactive)
REMARK    1  A    between atoms: C_2  and  O_3 
REMARK    2  A    between atoms: O_3  and  C_4 
REMARK       I    between atoms: C_4  and  N_5 
REMARK       I    between atoms: N_8  and  C_9 
REMARK    3  A    between atoms: C_9  and  C_10 
REMARK    4  A    between atoms: C_11  and  N_12 
REMARK       I    between atoms: N_12  and  C_13 
REMARK    5  A    between atoms: C_13  and  C_14 
REMARK    6  A    between atoms: N_16  and  C_17 
REMARK    7  A    between atoms: C_18  and  O_19 
ROOT
HETATM    1  C   UNL     1      41.400 -12.464   4.236  1.00  0.00     0.059 A 
HETATM    2  C   UNL     1      40.701 -11.269   4.473  1.00  0.00     0.050 A 
HETATM    3  C   UNL     1      40.442 -10.415   3.385  1.00  0.00     0.030 A 
HETATM    4  C   UNL     1      40.841 -10.749   2.089  1.00  0.00     0.002 A 
HETATM    5  C   UNL     1      41.541 -11.927   1.861  1.00  0.00     0.001 A 
HETATM    6  C   UNL     1      41.838 -12.769   2.931  1.00  0.00     0.019 A 
ENDROOT
BRANCH   2   7
HETATM    7  N   UNL     1      40.298 -10.775   5.730  1.00  0.00    -0.326 N 
HETATM    8  C   UNL     1      40.853  -9.740   6.452  1.00  0.00     0.228 C 
HETATM    9  O   UNL     1      42.002  -9.329   6.312  1.00  0.00    -0.273 OA
HETATM   10  H   UNL     1      39.579 -11.318   6.197  1.00  0.00     0.169 HD
BRANCH   8  11
HETATM   11  C   UNL     1      39.919  -9.115   7.497  1.00  0.00     0.105 C 
HETATM   12  C   UNL     1      40.652  -8.477   8.664  1.00  0.00     0.147 C 
HETATM   13  N   UNL     1      40.837  -9.580   9.584  1.00  0.00    -0.315 N 
HETATM   14  C   UNL     1      39.884 -10.585   9.365  1.00  0.00     0.225 C 
HETATM   15  O   UNL     1      39.702 -11.603  10.014  1.00  0.00    -0.273 OA
HETATM   16  C   UNL     1      39.058 -10.182   8.166  1.00  0.00     0.119 C 
BRANCH  13  17
HETATM   17  C   UNL     1      41.954  -9.674  10.456  1.00  0.00     0.071 A 
HETATM   18  C   UNL     1      43.118 -10.384  10.116  1.00  0.00     0.095 A 
HETATM   19  C   UNL     1      44.133 -10.592  11.057  1.00  0.00     0.039 A 
HETATM   20  C   UNL     1      44.014 -10.069  12.343  1.00  0.00     0.009 A 
HETATM   21  C   UNL     1      42.892  -9.314  12.692  1.00  0.00    -0.060 A 
HETATM   22  C   UNL     1      42.721  -8.803  14.093  1.00  0.00     0.048 C 
HETATM   23  C   UNL     1      41.875  -9.117  11.743  1.00  0.00     0.039 A 
BRANCH  18  24
HETATM   24  O   UNL     1      43.273 -10.889   8.847  1.00  0.00    -0.354 OA
HETATM   25  C   UNL     1      44.335 -11.847   8.813  1.00  0.00     0.210 C 
ENDBRANCH  18  24
ENDBRANCH  13  17
ENDBRANCH   8  11
ENDBRANCH   2   7
BRANCH   1  26
HETATM   26  C   UNL     1      41.931 -13.326   5.319  1.00  0.00     0.256 C 
HETATM   27  N   UNL     1      41.798 -14.704   5.205  1.00  0.00    -0.345 N 
HETATM   28  C   UNL     1      40.965 -15.422   4.236  1.00  0.00     0.146 C 
HETATM   29  C   UNL     1      42.417 -15.577   6.199  1.00  0.00     0.146 C 
HETATM   30  C   UNL     1      41.805 -16.470   3.496  1.00  0.00     0.148 C 
HETATM   31  N   UNL     1      42.571 -17.328   4.405  1.00  0.00    -0.325 N 
HETATM   32  C   UNL     1      43.029 -18.537   3.901  1.00  0.00     0.362 C 
HETATM   33  C   UNL     1      43.265 -16.660   5.519  1.00  0.00     0.148 C 
HETATM   34  O   UNL     1      42.702 -18.985   2.809  1.00  0.00    -0.238 OA
HETATM   35  O   UNL     1      42.551 -12.777   6.230  1.00  0.00    -0.267 OA
BRANCH  32  36
HETATM   36  O   UNL     1      43.880 -19.168   4.755  1.00  0.00    -0.304 OA
BRANCH  36  37
HETATM   37  C   UNL     1      44.746 -20.149   4.169  1.00  0.00     0.176 C 
HETATM   38  C   UNL     1      44.801 -21.400   5.028  1.00  0.00     0.034 C 
ENDBRANCH  36  37
ENDBRANCH  32  36
ENDBRANCH   1  26
TORSDOF 7
ENDMDL
MODEL 7
REMARK VINA RESULT:      -8.1      3.450      7.218
REMARK  7 active torsions:
REMARK  status: ('A' for Active; 'I' for Inactive)
REMARK    1  A    between atoms: C_2  and  O_3 
REMARK    2  A    between atoms: O_3  and  C_4 
REMARK       I    between atoms: C_4  and  N_5 
REMARK       I    between atoms: N_8  and  C_9 
REMARK    3  A    between atoms: C_9  and  C_10 
REMARK    4  A    between atoms: C_11  and  N_12 
REMARK       I    between atoms: N_12  and  C_13 
REMARK    5  A    between atoms: C_13  and  C_14 
REMARK    6  A    between atoms: N_16  and  C_17 
REMARK    7  A    between atoms: C_18  and  O_19 
ROOT
HETATM    1  C   UNL     1      40.625 -14.908   3.624  1.00  0.00     0.059 A 
HETATM    2  C   UNL     1      40.831 -14.637   4.986  1.00  0.00     0.050 A 
HETATM    3  C   UNL     1      41.254 -15.684   5.824  1.00  0.00     0.030 A 
HETATM    4  C   UNL     1      41.492 -16.966   5.321  1.00  0.00     0.002 A 
HETATM    5  C   UNL     1      41.276 -17.232   3.975  1.00  0.00     0.001 A 
HETATM    6  C   UNL     1      40.824 -16.215   3.135  1.00  0.00     0.019 A 
ENDROOT
BRANCH   2   7
HETATM    7  N   UNL     1      40.570 -13.415   5.641  1.00  0.00    -0.326 N 
HETATM    8  C   UNL     1      41.469 -12.426   5.981  1.00  0.00     0.228 C 
HETATM    9  O   UNL     1      42.677 -12.599   6.118  1.00  0.00    -0.273 OA
HETATM   10  H   UNL     1      39.624 -13.307   5.990  1.00  0.00     0.169 HD
BRANCH   8  11
HETATM   11  C   UNL     1      40.844 -11.043   6.204  1.00  0.00     0.105 C 
HETATM   12  C   UNL     1      41.681 -10.134   7.088  1.00  0.00     0.147 C 
HETATM   13  N   UNL     1      41.243 -10.476   8.426  1.00  0.00    -0.315 N 
HETATM   14  C   UNL     1      39.955 -11.031   8.410  1.00  0.00     0.225 C 
HETATM   15  O   UNL     1      39.260 -11.345   9.363  1.00  0.00    -0.273 OA
HETATM   16  C   UNL     1      39.527 -11.157   6.966  1.00  0.00     0.119 C 
BRANCH  13  17
HETATM   17  C   UNL     1      42.102 -10.409   9.555  1.00  0.00     0.071 A 
HETATM   18  C   UNL     1      41.918  -9.472  10.587  1.00  0.00     0.095 A 
HETATM   19  C   UNL     1      42.871  -9.326  11.601  1.00  0.00     0.039 A 
HETATM   20  C   UNL     1      44.007 -10.133  11.617  1.00  0.00     0.009 A 
HETATM   21  C   UNL     1      44.189 -11.108  10.633  1.00  0.00    -0.060 A 
HETATM   22  C   UNL     1      45.440 -11.937  10.601  1.00  0.00     0.048 C 
HETATM   23  C   UNL     1      43.231 -11.242   9.616  1.00  0.00     0.039 A 
BRANCH  18  24
HETATM   24  O   UNL     1      40.795  -8.681  10.610  1.00  0.00    -0.354 OA
HETATM   25  C   UNL     1      40.058  -8.888  11.819  1.00  0.00     0.210 C 
ENDBRANCH  18  24
ENDBRANCH  13  17
ENDBRANCH   8  11
ENDBRANCH   2   7
BRANCH   1  26
HETATM   26  C   UNL     1      39.967 -13.960   2.694  1.00  0.00     0.256 C 
HETATM   27  N   UNL     1      40.422 -13.880   1.384  1.00  0.00    -0.345 N 
HETATM   28  C   UNL     1      41.659 -14.460   0.854  1.00  0.00     0.146 C 
HETATM   29  C   UNL     1      39.714 -13.042   0.420  1.00  0.00     0.146 C 
HETATM   30  C   UNL     1      41.353 -15.310  -0.385  1.00  0.00     0.148 C 
HETATM   31  N   UNL     1      40.535 -14.598  -1.372  1.00  0.00    -0.325 N 
HETATM   32  C   UNL     1      40.537 -15.089  -2.670  1.00  0.00     0.362 C 
HETATM   33  C   UNL     1      39.389 -13.832  -0.854  1.00  0.00     0.148 C 
HETATM   34  O   UNL     1      41.292 -15.971  -3.060  1.00  0.00    -0.238 OA
HETATM   35  O   UNL     1      38.981 -13.350   3.108  1.00  0.00    -0.267 OA
BRANCH  32  36
HETATM   36  O   UNL     1      39.610 -14.481  -3.458  1.00  0.00    -0.304 OA
BRANCH  36  37
HETATM   37  C   UNL     1      38.671 -15.348  -4.109  1.00  0.00     0.176 C 
HETATM   38  C   UNL     1      37.260 -15.083  -3.613  1.00  0.00     0.034 C 
ENDBRANCH  36  37
ENDBRANCH  32  36
ENDBRANCH   1  26
TORSDOF 7
ENDMDL
MODEL 8
REMARK VINA RESULT:      -8.1      1.783      2.696
REMARK  7 active torsions:
REMARK  status: ('A' for Active; 'I' for Inactive)
REMARK    1  A    between atoms: C_2  and  O_3 
REMARK    2  A    between atoms: O_3  and  C_4 
REMARK       I    between atoms: C_4  and  N_5 
REMARK       I    between atoms: N_8  and  C_9 
REMARK    3  A    between atoms: C_9  and  C_10 
REMARK    4  A    between atoms: C_11  and  N_12 
REMARK       I    between atoms: N_12  and  C_13 
REMARK    5  A    between atoms: C_13  and  C_14 
REMARK    6  A    between atoms: N_16  and  C_17 
REMARK    7  A    between atoms: C_18  and  O_19 
ROOT
HETATM    1  C   UNL     1      40.453 -12.579   4.723  1.00  0.00     0.059 A 
HETATM    2  C   UNL     1      41.341 -12.962   5.741  1.00  0.00     0.050 A 
HETATM    3  C   UNL     1      41.840 -11.971   6.606  1.00  0.00     0.030 A 
HETATM    4  C   UNL     1      41.447 -10.636   6.483  1.00  0.00     0.002 A 
HETATM    5  C   UNL     1      40.576 -10.260   5.469  1.00  0.00     0.001 A 
HETATM    6  C   UNL     1      40.098 -11.222   4.580  1.00  0.00     0.019 A 
ENDROOT
BRANCH   2   7
HETATM    7  N   UNL     1      41.872 -14.253   5.941  1.00  0.00    -0.326 N 
HETATM    8  C   UNL     1      43.186 -14.602   6.172  1.00  0.00     0.228 C 
HETATM    9  O   UNL     1      44.155 -13.911   5.868  1.00  0.00    -0.273 OA
HETATM   10  H   UNL     1      41.220 -15.015   5.795  1.00  0.00     0.169 HD
BRANCH   8  11
HETATM   11  C   UNL     1      43.376 -15.969   6.844  1.00  0.00     0.105 C 
HETATM   12  C   UNL     1      44.151 -16.960   5.994  1.00  0.00     0.147 C 
HETATM   13  N   UNL     1      43.123 -17.577   5.180  1.00  0.00    -0.315 N 
HETATM   14  C   UNL     1      41.866 -17.475   5.794  1.00  0.00     0.225 C 
HETATM   15  O   UNL     1      40.808 -17.959   5.424  1.00  0.00    -0.273 OA
HETATM   16  C   UNL     1      42.034 -16.662   7.057  1.00  0.00     0.119 C 
BRANCH  13  17
HETATM   17  C   UNL     1      43.367 -18.050   3.864  1.00  0.00     0.071 A 
HETATM   18  C   UNL     1      43.000 -17.319   2.721  1.00  0.00     0.095 A 
HETATM   19  C   UNL     1      43.107 -17.883   1.444  1.00  0.00     0.039 A 
HETATM   20  C   UNL     1      43.610 -19.172   1.288  1.00  0.00     0.009 A 
HETATM   21  C   UNL     1      44.031 -19.901   2.402  1.00  0.00    -0.060 A 
HETATM   22  C   UNL     1      44.511 -21.316   2.253  1.00  0.00     0.048 C 
HETATM   23  C   UNL     1      43.912 -19.331   3.679  1.00  0.00     0.039 A 
BRANCH  18  24
HETATM   24  O   UNL     1      42.525 -16.035   2.844  1.00  0.00    -0.354 OA
HETATM   25  C   UNL     1      43.568 -15.087   2.603  1.00  0.00     0.210 C 
ENDBRANCH  18  24
ENDBRANCH  13  17
ENDBRANCH   8  11
ENDBRANCH   2   7
BRANCH   1  26
HETATM   26  C   UNL     1      40.043 -13.478   3.618  1.00  0.00     0.256 C 
HETATM   27  N   UNL     1      40.199 -13.045   2.308  1.00  0.00    -0.345 N 
HETATM   28  C   UNL     1      40.508 -11.679   1.872  1.00  0.00     0.146 C 
HETATM   29  C   UNL     1      39.915 -13.956   1.203  1.00  0.00     0.146 C 
HETATM   30  C   UNL     1      41.720 -11.688   0.934  1.00  0.00     0.148 C 
HETATM   31  N   UNL     1      41.591 -12.666  -0.151  1.00  0.00    -0.325 N 
HETATM   32  C   UNL     1      42.400 -12.490  -1.264  1.00  0.00     0.362 C 
HETATM   33  C   UNL     1      41.089 -14.001   0.217  1.00  0.00     0.148 C 
HETATM   34  O   UNL     1      43.089 -11.494  -1.451  1.00  0.00    -0.238 OA
HETATM   35  O   UNL     1      39.665 -14.611   3.917  1.00  0.00    -0.267 OA
BRANCH  32  36
HETATM   36  O   UNL     1      42.342 -13.543  -2.123  1.00  0.00    -0.304 OA
BRANCH  36  37
HETATM   37  C   UNL     1      41.696 -13.296  -3.379  1.00  0.00     0.176 C 
HETATM   38  C   UNL     1      40.443 -14.144  -3.516  1.00  0.00     0.034 C 
ENDBRANCH  36  37
ENDBRANCH  32  36
ENDBRANCH   1  26
TORSDOF 7
ENDMDL
MODEL 9
REMARK VINA RESULT:      -8.0      2.778      4.796
REMARK  7 active torsions:
REMARK  status: ('A' for Active; 'I' for Inactive)
REMARK    1  A    between atoms: C_2  and  O_3 
REMARK    2  A    between atoms: O_3  and  C_4 
REMARK       I    between atoms: C_4  and  N_5 
REMARK       I    between atoms: N_8  and  C_9 
REMARK    3  A    between atoms: C_9  and  C_10 
REMARK    4  A    between atoms: C_11  and  N_12 
REMARK       I    between atoms: N_12  and  C_13 
REMARK    5  A    between atoms: C_13  and  C_14 
REMARK    6  A    between atoms: N_16  and  C_17 
REMARK    7  A    between atoms: C_18  and  O_19 
ROOT
HETATM    1  C   UNL     1      41.668 -13.743   0.110  1.00  0.00     0.059 A 
HETATM    2  C   UNL     1      41.754 -14.542   1.262  1.00  0.00     0.050 A 
HETATM    3  C   UNL     1      41.567 -15.930   1.133  1.00  0.00     0.030 A 
HETATM    4  C   UNL     1      41.326 -16.518  -0.111  1.00  0.00     0.002 A 
HETATM    5  C   UNL     1      41.232 -15.723  -1.246  1.00  0.00     0.001 A 
HETATM    6  C   UNL     1      41.379 -14.341  -1.134  1.00  0.00     0.019 A 
ENDROOT
BRANCH   2   7
HETATM    7  N   UNL     1      41.925 -14.082   2.584  1.00  0.00    -0.326 N 
HETATM    8  C   UNL     1      40.964 -13.942   3.563  1.00  0.00     0.228 C 
HETATM    9  O   UNL     1      39.760 -13.829   3.348  1.00  0.00    -0.273 OA
HETATM   10  H   UNL     1      42.846 -13.716   2.798  1.00  0.00     0.169 HD
BRANCH   8  11
HETATM   11  C   UNL     1      41.511 -13.918   4.997  1.00  0.00     0.105 C 
HETATM   12  C   UNL     1      42.757 -14.765   5.185  1.00  0.00     0.147 C 
HETATM   13  N   UNL     1      42.225 -16.080   5.480  1.00  0.00    -0.315 N 
HETATM   14  C   UNL     1      40.924 -15.994   5.998  1.00  0.00     0.225 C 
HETATM   15  O   UNL     1      40.225 -16.897   6.429  1.00  0.00    -0.273 OA
HETATM   16  C   UNL     1      40.514 -14.540   5.970  1.00  0.00     0.119 C 
BRANCH  13  17
HETATM   17  C   UNL     1      42.892 -17.279   5.112  1.00  0.00     0.071 A 
HETATM   18  C   UNL     1      43.738 -17.972   5.994  1.00  0.00     0.095 A 
HETATM   19  C   UNL     1      44.504 -19.056   5.551  1.00  0.00     0.039 A 
HETATM   20  C   UNL     1      44.413 -19.483   4.228  1.00  0.00     0.009 A 
HETATM   21  C   UNL     1      43.541 -18.846   3.343  1.00  0.00    -0.060 A 
HETATM   22  C   UNL     1      43.485 -19.253   1.899  1.00  0.00     0.048 C 
HETATM   23  C   UNL     1      42.783 -17.754   3.795  1.00  0.00     0.039 A 
BRANCH  18  24
HETATM   24  O   UNL     1      43.827 -17.588   7.311  1.00  0.00    -0.354 OA
HETATM   25  C   UNL     1      44.254 -18.683   8.126  1.00  0.00     0.210 C 
ENDBRANCH  18  24
ENDBRANCH  13  17
ENDBRANCH   8  11
ENDBRANCH   2   7
BRANCH   1  26
HETATM   26  C   UNL     1      41.616 -12.262   0.147  1.00  0.00     0.256 C 
HETATM   27  N   UNL     1      40.394 -11.629  -0.041  1.00  0.00    -0.345 N 
HETATM   28  C   UNL     1      39.155 -12.249  -0.518  1.00  0.00     0.146 C 
HETATM   29  C   UNL     1      40.298 -10.179   0.109  1.00  0.00     0.146 C 
HETATM   30  C   UNL     1      38.007 -11.943   0.451  1.00  0.00     0.148 C 
HETATM   31  N   UNL     1      37.898 -10.515   0.768  1.00  0.00    -0.325 N 
HETATM   32  C   UNL     1      36.690 -10.071   1.286  1.00  0.00     0.362 C 
HETATM   33  C   UNL     1      39.154  -9.805   1.061  1.00  0.00     0.148 C 
HETATM   34  O   UNL     1      35.680 -10.763   1.342  1.00  0.00    -0.238 OA
HETATM   35  O   UNL     1      42.653 -11.664   0.434  1.00  0.00    -0.267 OA
BRANCH  32  36
HETATM   36  O   UNL     1      36.752  -8.783   1.720  1.00  0.00    -0.304 OA
BRANCH  36  37
HETATM   37  C   UNL     1      36.217  -8.533   3.027  1.00  0.00     0.176 C 
HETATM   38  C   UNL     1      35.149  -7.456   2.975  1.00  0.00     0.034 C 
ENDBRANCH  36  37
ENDBRANCH  32  36
ENDBRANCH   1  26
TORSDOF 7
ENDMDL
MODEL 10
REMARK VINA RESULT:      -7.9      4.007      7.821
REMARK  7 active torsions:
REMARK  status: ('A' for Active; 'I' for Inactive)
REMARK    1  A    between atoms: C_2  and  O_3 
REMARK    2  A    between atoms: O_3  and  C_4 
REMARK       I    between atoms: C_4  and  N_5 
REMARK       I    between atoms: N_8  and  C_9 
REMARK    3  A    between atoms: C_9  and  C_10 
REMARK    4  A    between atoms: C_11  and  N_12 
REMARK       I    between atoms: N_12  and  C_13 
REMARK    5  A    between atoms: C_13  and  C_14 
REMARK    6  A    between atoms: N_16  and  C_17 
REMARK    7  A    between atoms: C_18  and  O_19 
ROOT
HETATM    1  C   UNL     1      40.852 -11.615   3.764  1.00  0.00     0.059 A 
HETATM    2  C   UNL     1      40.324 -10.414   4.266  1.00  0.00     0.050 A 
HETATM    3  C   UNL     1      40.058  -9.368   3.364  1.00  0.00     0.030 A 
HETATM    4  C   UNL     1      40.283  -9.516   1.993  1.00  0.00     0.002 A 
HETATM    5  C   UNL     1      40.815 -10.702   1.503  1.00  0.00     0.001 A 
HETATM    6  C   UNL     1      41.118 -11.738   2.385  1.00  0.00     0.019 A 
ENDROOT
BRANCH   2   7
HETATM    7  N   UNL     1      40.110 -10.102   5.624  1.00  0.00    -0.326 N 
HETATM    8  C   UNL     1      40.829  -9.233   6.418  1.00  0.00     0.228 C 
HETATM    9  O   UNL     1      41.985  -8.881   6.197  1.00  0.00    -0.273 OA
HETATM   10  H   UNL     1      39.407 -10.664   6.090  1.00  0.00     0.169 HD
BRANCH   8  11
HETATM   11  C   UNL     1      40.075  -8.723   7.654  1.00  0.00     0.105 C 
HETATM   12  C   UNL     1      40.971  -8.490   8.858  1.00  0.00     0.147 C 
HETATM   13  N   UNL     1      41.012  -9.788   9.499  1.00  0.00    -0.315 N 
HETATM   14  C   UNL     1      39.889 -10.556   9.158  1.00  0.00     0.225 C 
HETATM   15  O   UNL     1      39.569 -11.652   9.587  1.00  0.00    -0.273 OA
HETATM   16  C   UNL     1      39.081  -9.766   8.154  1.00  0.00     0.119 C 
BRANCH  13  17
HETATM   17  C   UNL     1      42.142 -10.251  10.224  1.00  0.00     0.071 A 
HETATM   18  C   UNL     1      42.170 -10.295  11.628  1.00  0.00     0.095 A 
HETATM   19  C   UNL     1      43.351 -10.603  12.313  1.00  0.00     0.039 A 
HETATM   20  C   UNL     1      44.514 -10.900  11.606  1.00  0.00     0.009 A 
HETATM   21  C   UNL     1      44.501 -10.916  10.210  1.00  0.00    -0.060 A 
HETATM   22  C   UNL     1      45.763 -11.168   9.436  1.00  0.00     0.048 C 
HETATM   23  C   UNL     1      43.314 -10.598   9.531  1.00  0.00     0.039 A 
BRANCH  18  24
HETATM   24  O   UNL     1      41.031 -10.031  12.351  1.00  0.00    -0.354 OA
HETATM   25  C   UNL     1      40.521 -11.230  12.941  1.00  0.00     0.210 C 
ENDBRANCH  18  24
ENDBRANCH  13  17
ENDBRANCH   8  11
ENDBRANCH   2   7
BRANCH   1  26
HETATM   26  C   UNL     1      41.386 -12.695   4.628  1.00  0.00     0.256 C 
HETATM   27  N   UNL     1      41.092 -14.015   4.311  1.00  0.00    -0.345 N 
HETATM   28  C   UNL     1      40.097 -14.477   3.338  1.00  0.00     0.146 C 
HETATM   29  C   UNL     1      41.703 -15.098   5.075  1.00  0.00     0.146 C 
HETATM   30  C   UNL     1      40.742 -15.455   2.350  1.00  0.00     0.148 C 
HETATM   31  N   UNL     1      41.492 -16.524   3.018  1.00  0.00    -0.325 N 
HETATM   32  C   UNL     1      41.765 -17.665   2.279  1.00  0.00     0.362 C 
HETATM   33  C   UNL     1      42.358 -16.123   4.140  1.00  0.00     0.148 C 
HETATM   34  O   UNL     1      41.287 -17.887   1.172  1.00  0.00    -0.238 OA
HETATM   35  O   UNL     1      42.146 -12.370   5.540  1.00  0.00    -0.267 OA
BRANCH  32  36
HETATM   36  O   UNL     1      42.619 -18.509   2.919  1.00  0.00    -0.304 OA
BRANCH  36  37
HETATM   37  C   UNL     1      43.688 -19.043   2.127  1.00  0.00     0.176 C 
HETATM   38  C   UNL     1      43.541 -20.546   1.967  1.00  0.00     0.034 C 
ENDBRANCH  36  37
ENDBRANCH  32  36
ENDBRANCH   1  26
TORSDOF 7
ENDMDL
