MODEL 1
REMARK VINA RESULT:      -8.8      0.000      0.000
REMARK  8 active torsions:
REMARK  status: ('A' for Active; 'I' for Inactive)
REMARK    1  A    between atoms: C_2  and  N_3 
REMARK       I    between atoms: N_3  and  C_4 
REMARK       I    between atoms: C_4  and  N_5 
REMARK    2  A    between atoms: N_8  and  C_9 
REMARK    3  A    between atoms: C_11  and  C_12 
REMARK    4  A    between atoms: C_19  and  C_20 
REMARK    5  A    between atoms: C_20  and  O_21 
REMARK    6  A    between atoms: C_23  and  C_24 
REMARK    7  A    between atoms: C_24  and  C_25 
REMARK    8  A    between atoms: C_27  and  O_28 
ROOT
HETATM    1  C   UNL     1      42.757 -15.259   5.263  1.00  0.00     0.137 A 
HETATM    2  N   UNL     1      43.465 -14.250   5.807  1.00  0.00    -0.210 NA
HETATM    3  C   UNL     1      44.032 -14.447   7.012  1.00  0.00     0.162 A 
HETATM    4  N   UNL     1      43.902 -15.571   7.732  1.00  0.00    -0.230 NA
HETATM    5  C   UNL     1      43.219 -16.592   7.179  1.00  0.00     0.071 A 
HETATM    6  C   UNL     1      42.627 -16.493   5.916  1.00  0.00     0.019 A 
ENDROOT
BRANCH   1   7
HETATM    7  N   UNL     1      42.239 -15.059   3.985  1.00  0.00    -0.362 N 
HETATM    8  C   UNL     1      40.803 -14.718   3.837  1.00  0.00     0.144 C 
HETATM    9  C   UNL     1      40.568 -13.279   3.343  1.00  0.00     0.147 C 
HETATM   10  N   UNL     1      41.413 -12.987   2.187  1.00  0.00    -0.331 N 
HETATM   11  C   UNL     1      40.832 -12.996   0.932  1.00  0.00     0.318 C 
HETATM   12  C   UNL     1      42.837 -13.112   2.515  1.00  0.00     0.147 C 
HETATM   13  N   UNL     1      41.702 -12.934  -0.125  1.00  0.00    -0.339 N 
HETATM   14  O   UNL     1      39.615 -13.033   0.775  1.00  0.00    -0.247 OA
HETATM   15  H   UNL     1      42.609 -13.339   0.027  1.00  0.00     0.164 HD
HETATM   16  C   UNL     1      43.152 -14.558   2.937  1.00  0.00     0.144 C 
BRANCH  13  17
HETATM   17  C   UNL     1      41.283 -12.882  -1.524  1.00  0.00     0.078 C 
HETATM   18  C   UNL     1      41.216 -14.261  -2.179  1.00  0.00     0.032 C 
HETATM   19  C   UNL     1      42.120 -11.908  -2.351  1.00  0.00     0.032 C 
ENDBRANCH  13  17
ENDBRANCH   1   7
BRANCH   6  20
HETATM   20  C   UNL     1      41.993 -17.696   5.257  1.00  0.00     0.083 C 
BRANCH  20  21
HETATM   21  C   UNL     1      42.828 -18.517   4.288  1.00  0.00    -0.051 A 
HETATM   22  C   UNL     1      43.751 -19.426   4.839  1.00  0.00     0.044 A 
HETATM   23  C   UNL     1      44.566 -20.214   4.024  1.00  0.00     0.068 A 
HETATM   24  C   UNL     1      44.443 -20.112   2.639  1.00  0.00     0.037 A 
HETATM   25  C   UNL     1      43.536 -19.217   2.073  1.00  0.00     0.003 A 
HETATM   26  C   UNL     1      42.737 -18.419   2.892  1.00  0.00     0.007 A 
BRANCH  23  27
HETATM   27  O   UNL     1      45.501 -21.114   4.457  1.00  0.00    -0.356 OA
HETATM   28  C   UNL     1      45.009 -22.293   5.082  1.00  0.00     0.210 C 
ENDBRANCH  23  27
ENDBRANCH  20  21
ENDBRANCH   6  20
BRANCH   3  29
HETATM   29  C   UNL     1      44.915 -13.395   7.564  1.00  0.00     0.012 A 
HETATM   30  C   UNL     1      46.212 -13.175   7.063  1.00  0.00     0.015 A 
HETATM   31  C   UNL     1      47.052 -12.198   7.615  1.00  0.00     0.001 A 
HETATM   32  C   UNL     1      46.616 -11.421   8.685  1.00  0.00     0.000 A 
HETATM   33  C   UNL     1      45.338 -11.612   9.198  1.00  0.00     0.001 A 
HETATM   34  C   UNL     1      44.501 -12.585   8.644  1.00  0.00     0.015 A 
ENDBRANCH   3  29
BRANCH   5  35
HETATM   35  C   UNL     1      43.173 -17.854   8.017  1.00  0.00     0.226 C 
BRANCH  35  36
HETATM   36  O   UNL     1      44.453 -18.488   8.045  1.00  0.00    -0.390 OA
HETATM   37  C   UNL     1      44.647 -19.205   9.257  1.00  0.00     0.201 C 
ENDBRANCH  35  36
ENDBRANCH   5  35
TORSDOF 8
ENDMDL
MODEL 2
REMARK VINA RESULT:      -8.0      2.719      6.607
REMARK  8 active torsions:
REMARK  status: ('A' for Active; 'I' for Inactive)
REMARK    1  A    between atoms: C_2  and  N_3 
REMARK       I    between atoms: N_3  and  C_4 
REMARK       I    between atoms: C_4  and  N_5 
REMARK    2  A    between atoms: N_8  and  C_9 
REMARK    3  A    between atoms: C_11  and  C_12 
REMARK    4  A    between atoms: C_19  and  C_20 
REMARK    5  A    between atoms: C_20  and  O_21 
REMARK    6  A    between atoms: C_23  and  C_24 
REMARK    7  A    between atoms: C_24  and  C_25 
REMARK    8  A    between atoms: C_27  and  O_28 
ROOT
HETATM    1  C   UNL     1      41.390 -16.506   3.277  1.00  0.00     0.137 A 
HETATM    2  N   UNL     1      42.168 -17.522   2.855  1.00  0.00    -0.210 NA
HETATM    3  C   UNL     1      42.737 -18.316   3.783  1.00  0.00     0.162 A 
HETATM    4  N   UNL     1      42.618 -18.135   5.106  1.00  0.00    -0.230 NA
HETATM    5  C   UNL     1      41.817 -17.137   5.531  1.00  0.00     0.071 A 
HETATM    6  C   UNL     1      41.155 -16.286   4.642  1.00  0.00     0.019 A 
ENDROOT
BRANCH   1   7
HETATM    7  N   UNL     1      40.754 -15.742   2.301  1.00  0.00    -0.362 N 
HETATM    8  C   UNL     1      41.251 -14.372   2.024  1.00  0.00     0.144 C 
HETATM    9  C   UNL     1      41.908 -14.232   0.638  1.00  0.00     0.147 C 
HETATM   10  N   UNL     1      41.061 -14.822  -0.395  1.00  0.00    -0.331 N 
HETATM   11  C   UNL     1      40.321 -13.973  -1.199  1.00  0.00     0.318 C 
HETATM   12  C   UNL     1      40.836 -16.251  -0.158  1.00  0.00     0.147 C 
HETATM   13  N   UNL     1      39.385 -14.577  -1.997  1.00  0.00    -0.339 N 
HETATM   14  O   UNL     1      40.505 -12.759  -1.212  1.00  0.00    -0.247 OA
HETATM   15  H   UNL     1      38.988 -15.430  -1.643  1.00  0.00     0.164 HD
HETATM   16  C   UNL     1      40.102 -16.450   1.180  1.00  0.00     0.144 C 
BRANCH  13  17
HETATM   17  C   UNL     1      38.541 -13.860  -2.950  1.00  0.00     0.078 C 
HETATM   18  C   UNL     1      37.587 -12.873  -2.278  1.00  0.00     0.032 C 
HETATM   19  C   UNL     1      37.799 -14.800  -3.898  1.00  0.00     0.032 C 
ENDBRANCH  13  17
ENDBRANCH   1   7
BRANCH   6  20
HETATM   20  C   UNL     1      40.151 -15.270   5.137  1.00  0.00     0.083 C 
BRANCH  20  21
HETATM   21  C   UNL     1      40.666 -13.940   5.662  1.00  0.00    -0.051 A 
HETATM   22  C   UNL     1      39.725 -13.063   6.237  1.00  0.00     0.044 A 
HETATM   23  C   UNL     1      40.108 -11.817   6.736  1.00  0.00     0.068 A 
HETATM   24  C   UNL     1      41.451 -11.447   6.685  1.00  0.00     0.037 A 
HETATM   25  C   UNL     1      42.398 -12.300   6.119  1.00  0.00     0.003 A 
HETATM   26  C   UNL     1      42.008 -13.536   5.605  1.00  0.00     0.007 A 
BRANCH  23  27
HETATM   27  O   UNL     1      39.274 -10.889   7.298  1.00  0.00    -0.356 OA
HETATM   28  C   UNL     1      39.210 -10.867   8.719  1.00  0.00     0.210 C 
ENDBRANCH  23  27
ENDBRANCH  20  21
ENDBRANCH   6  20
BRANCH   3  29
HETATM   29  C   UNL     1      43.490 -19.508   3.334  1.00  0.00     0.012 A 
HETATM   30  C   UNL     1      43.280 -20.086   2.068  1.00  0.00     0.015 A 
HETATM   31  C   UNL     1      43.974 -21.235   1.666  1.00  0.00     0.001 A 
HETATM   32  C   UNL     1      44.892 -21.837   2.523  1.00  0.00     0.000 A 
HETATM   33  C   UNL     1      45.125 -21.286   3.778  1.00  0.00     0.001 A 
HETATM   34  C   UNL     1      44.433 -20.137   4.176  1.00  0.00     0.015 A 
ENDBRANCH   3  29
BRANCH   5  35
HETATM   35  C   UNL     1      41.672 -17.036   7.036  1.00  0.00     0.226 C 
BRANCH  35  36
HETATM   36  O   UNL     1      42.644 -17.850   7.694  1.00  0.00    -0.390 OA
HETATM   37  C   UNL     1      43.505 -17.068   8.510  1.00  0.00     0.201 C 
ENDBRANCH  35  36
ENDBRANCH   5  35
TORSDOF 8
ENDMDL
MODEL 3
REMARK VINA RESULT:      -7.9      2.077      6.491
REMARK  8 active torsions:
REMARK  status: ('A' for Active; 'I' for Inactive)
REMARK    1  A    between atoms: C_2  and  N_3 
REMARK       I    between atoms: N_3  and  C_4 
REMARK       I    between atoms: C_4  and  N_5 
REMARK    2  A    between atoms: N_8  and  C_9 
REMARK    3  A    between atoms: C_11  and  C_12 
REMARK    4  A    between atoms: C_19  and  C_20 
REMARK    5  A    between atoms: C_20  and  O_21 
REMARK    6  A    between atoms: C_23  and  C_24 
REMARK    7  A    between atoms: C_24  and  C_25 
REMARK    8  A    between atoms: C_27  and  O_28 
ROOT
HETATM    1  C   UNL     1      43.134 -16.215   4.402  1.00  0.00     0.137 A 
HETATM    2  N   UNL     1      43.276 -17.310   3.630  1.00  0.00    -0.210 NA
HETATM    3  C   UNL     1      43.900 -18.382   4.154  1.00  0.00     0.162 A 
HETATM    4  N   UNL     1      44.433 -18.418   5.384  1.00  0.00    -0.230 NA
HETATM    5  C   UNL     1      44.269 -17.334   6.169  1.00  0.00     0.071 A 
HETATM    6  C   UNL     1      43.601 -16.189   5.724  1.00  0.00     0.019 A 
ENDROOT
BRANCH   1   7
HETATM    7  N   UNL     1      42.423 -15.143   3.865  1.00  0.00    -0.362 N 
HETATM    8  C   UNL     1      42.991 -14.413   2.705  1.00  0.00     0.144 C 
HETATM    9  C   UNL     1      42.193 -14.622   1.405  1.00  0.00     0.147 C 
HETATM   10  N   UNL     1      40.765 -14.428   1.641  1.00  0.00    -0.331 N 
HETATM   11  C   UNL     1      40.188 -13.239   1.231  1.00  0.00     0.318 C 
HETATM   12  C   UNL     1      40.248 -15.378   2.631  1.00  0.00     0.147 C 
HETATM   13  N   UNL     1      38.909 -13.018   1.668  1.00  0.00    -0.339 N 
HETATM   14  O   UNL     1      40.778 -12.444   0.503  1.00  0.00    -0.247 OA
HETATM   15  H   UNL     1      38.667 -13.431   2.552  1.00  0.00     0.164 HD
HETATM   16  C   UNL     1      40.950 -15.160   3.983  1.00  0.00     0.144 C 
BRANCH  13  17
HETATM   17  C   UNL     1      38.113 -11.848   1.302  1.00  0.00     0.078 C 
HETATM   18  C   UNL     1      37.856 -10.909   2.480  1.00  0.00     0.032 C 
HETATM   19  C   UNL     1      36.815 -12.222   0.590  1.00  0.00     0.032 C 
ENDBRANCH  13  17
ENDBRANCH   1   7
BRANCH   6  20
HETATM   20  C   UNL     1      43.303 -15.046   6.666  1.00  0.00     0.083 C 
BRANCH  20  21
HETATM   21  C   UNL     1      44.446 -14.139   7.091  1.00  0.00    -0.051 A 
HETATM   22  C   UNL     1      44.365 -13.551   8.368  1.00  0.00     0.044 A 
HETATM   23  C   UNL     1      45.366 -12.698   8.836  1.00  0.00     0.068 A 
HETATM   24  C   UNL     1      46.476 -12.445   8.032  1.00  0.00     0.037 A 
HETATM   25  C   UNL     1      46.575 -13.016   6.763  1.00  0.00     0.003 A 
HETATM   26  C   UNL     1      45.563 -13.854   6.293  1.00  0.00     0.007 A 
BRANCH  23  27
HETATM   27  O   UNL     1      45.377 -12.067  10.050  1.00  0.00    -0.356 OA
HETATM   28  C   UNL     1      45.390 -10.645  10.029  1.00  0.00     0.210 C 
ENDBRANCH  23  27
ENDBRANCH  20  21
ENDBRANCH   6  20
BRANCH   3  29
HETATM   29  C   UNL     1      43.952 -19.632   3.365  1.00  0.00     0.012 A 
HETATM   30  C   UNL     1      44.672 -20.760   3.802  1.00  0.00     0.015 A 
HETATM   31  C   UNL     1      44.742 -21.927   3.031  1.00  0.00     0.001 A 
HETATM   32  C   UNL     1      44.096 -21.994   1.800  1.00  0.00     0.000 A 
HETATM   33  C   UNL     1      43.372 -20.899   1.342  1.00  0.00     0.001 A 
HETATM   34  C   UNL     1      43.301 -19.736   2.115  1.00  0.00     0.015 A 
ENDBRANCH   3  29
BRANCH   5  35
HETATM   35  C   UNL     1      44.833 -17.471   7.568  1.00  0.00     0.226 C 
BRANCH  35  36
HETATM   36  O   UNL     1      43.897 -18.122   8.429  1.00  0.00    -0.390 OA
HETATM   37  C   UNL     1      43.899 -19.528   8.224  1.00  0.00     0.201 C 
ENDBRANCH  35  36
ENDBRANCH   5  35
TORSDOF 8
ENDMDL
MODEL 4
REMARK VINA RESULT:      -7.9      2.360      7.238
REMARK  8 active torsions:
REMARK  status: ('A' for Active; 'I' for Inactive)
REMARK    1  A    between atoms: C_2  and  N_3 
REMARK       I    between atoms: N_3  and  C_4 
REMARK       I    between atoms: C_4  and  N_5 
REMARK    2  A    between atoms: N_8  and  C_9 
REMARK    3  A    between atoms: C_11  and  C_12 
REMARK    4  A    between atoms: C_19  and  C_20 
REMARK    5  A    between atoms: C_20  and  O_21 
REMARK    6  A    between atoms: C_23  and  C_24 
REMARK    7  A    between atoms: C_24  and  C_25 
REMARK    8  A    between atoms: C_27  and  O_28 
ROOT
HETATM    1  C   UNL     1      41.627 -14.355   2.554  1.00  0.00     0.137 A 
HETATM    2  N   UNL     1      41.948 -13.838   1.352  1.00  0.00    -0.210 NA
HETATM    3  C   UNL     1      41.676 -12.539   1.123  1.00  0.00     0.162 A 
HETATM    4  N   UNL     1      41.062 -11.732   2.000  1.00  0.00    -0.230 NA
HETATM    5  C   UNL     1      40.763 -12.237   3.213  1.00  0.00     0.071 A 
HETATM    6  C   UNL     1      41.043 -13.564   3.555  1.00  0.00     0.019 A 
ENDROOT
BRANCH   1   7
HETATM    7  N   UNL     1      41.981 -15.681   2.795  1.00  0.00    -0.362 N 
HETATM    8  C   UNL     1      41.076 -16.761   2.335  1.00  0.00     0.144 C 
HETATM    9  C   UNL     1      41.663 -17.599   1.184  1.00  0.00     0.147 C 
HETATM   10  N   UNL     1      43.033 -18.004   1.490  1.00  0.00    -0.331 N 
HETATM   11  C   UNL     1      43.255 -19.306   1.903  1.00  0.00     0.318 C 
HETATM   12  C   UNL     1      43.909 -16.843   1.681  1.00  0.00     0.147 C 
HETATM   13  N   UNL     1      44.510 -19.570   2.383  1.00  0.00    -0.339 N 
HETATM   14  O   UNL     1      42.389 -20.173   1.822  1.00  0.00    -0.247 OA
HETATM   15  H   UNL     1      44.985 -18.801   2.822  1.00  0.00     0.164 HD
HETATM   16  C   UNL     1      43.419 -16.010   2.878  1.00  0.00     0.144 C 
BRANCH  13  17
HETATM   17  C   UNL     1      44.955 -20.893   2.819  1.00  0.00     0.078 C 
HETATM   18  C   UNL     1      44.426 -22.021   1.935  1.00  0.00     0.032 C 
HETATM   19  C   UNL     1      44.662 -21.152   4.295  1.00  0.00     0.032 C 
ENDBRANCH  13  17
ENDBRANCH   1   7
BRANCH   6  20
HETATM   20  C   UNL     1      40.834 -14.066   4.965  1.00  0.00     0.083 C 
BRANCH  20  21
HETATM   21  C   UNL     1      42.039 -14.568   5.742  1.00  0.00    -0.051 A 
HETATM   22  C   UNL     1      41.926 -15.823   6.372  1.00  0.00     0.044 A 
HETATM   23  C   UNL     1      42.981 -16.357   7.114  1.00  0.00     0.068 A 
HETATM   24  C   UNL     1      44.174 -15.644   7.211  1.00  0.00     0.037 A 
HETATM   25  C   UNL     1      44.307 -14.400   6.596  1.00  0.00     0.003 A 
HETATM   26  C   UNL     1      43.244 -13.861   5.870  1.00  0.00     0.007 A 
BRANCH  23  27
HETATM   27  O   UNL     1      42.969 -17.556   7.774  1.00  0.00    -0.356 OA
HETATM   28  C   UNL     1      43.877 -18.547   7.311  1.00  0.00     0.210 C 
ENDBRANCH  23  27
ENDBRANCH  20  21
ENDBRANCH   6  20
BRANCH   3  29
HETATM   29  C   UNL     1      42.137 -11.928  -0.143  1.00  0.00     0.012 A 
HETATM   30  C   UNL     1      42.552 -10.584  -0.212  1.00  0.00     0.015 A 
HETATM   31  C   UNL     1      42.955 -10.006  -1.423  1.00  0.00     0.001 A 
HETATM   32  C   UNL     1      42.948 -10.756  -2.596  1.00  0.00     0.000 A 
HETATM   33  C   UNL     1      42.547 -12.087  -2.559  1.00  0.00     0.001 A 
HETATM   34  C   UNL     1      42.149 -12.663  -1.348  1.00  0.00     0.015 A 
ENDBRANCH   3  29
BRANCH   5  35
HETATM   35  C   UNL     1      40.137 -11.250   4.177  1.00  0.00     0.226 C 
BRANCH  35  36
HETATM   36  O   UNL     1      41.145 -10.509   4.868  1.00  0.00    -0.390 OA
HETATM   37  C   UNL     1      40.907 -10.497   6.268  1.00  0.00     0.201 C 
ENDBRANCH  35  36
ENDBRANCH   5  35
TORSDOF 8
ENDMDL
MODEL 5
REMARK VINA RESULT:      -7.8      2.770      6.443
REMARK  8 active torsions:
REMARK  status: ('A' for Active; 'I' for Inactive)
REMARK    1  A    between atoms: C_2  and  N_3 
REMARK       I    between atoms: N_3  and  C_4 
REMARK       I    between atoms: C_4  and  N_5 
REMARK    2  A    between atoms: N_8  and  C_9 
REMARK    3  A    between atoms: C_11  and  C_12 
REMARK    4  A    between atoms: C_19  and  C_20 
REMARK    5  A    between atoms: C_20  and  O_21 
REMARK    6  A    between atoms: C_23  and  C_24 
REMARK    7  A    between atoms: C_24  and  C_25 
REMARK    8  A    between atoms: C_27  and  O_28 
ROOT
HETATM    1  C   UNL     1      43.269 -15.784   3.800  1.00  0.00     0.137 A 
HETATM    2  N   UNL     1      43.509 -17.105   3.920  1.00  0.00    -0.210 NA
HETATM    3  C   UNL     1      43.913 -17.573   5.116  1.00  0.00     0.162 A 
HETATM    4  N   UNL     1      44.138 -16.803   6.190  1.00  0.00    -0.230 NA
HETATM    5  C   UNL     1      43.873 -15.485   6.082  1.00  0.00     0.071 A 
HETATM    6  C   UNL     1      43.413 -14.915   4.891  1.00  0.00     0.019 A 
ENDROOT
BRANCH   1   7
HETATM    7  N   UNL     1      42.784 -15.332   2.574  1.00  0.00    -0.362 N 
HETATM    8  C   UNL     1      43.241 -15.999   1.330  1.00  0.00     0.144 C 
HETATM    9  C   UNL     1      42.129 -16.798   0.626  1.00  0.00     0.147 C 
HETATM   10  N   UNL     1      40.914 -15.995   0.508  1.00  0.00    -0.331 N 
HETATM   11  C   UNL     1      40.617 -15.432  -0.720  1.00  0.00     0.318 C 
HETATM   12  C   UNL     1      40.402 -15.596   1.823  1.00  0.00     0.147 C 
HETATM   13  N   UNL     1      39.597 -14.518  -0.723  1.00  0.00    -0.339 N 
HETATM   14  O   UNL     1      41.215 -15.748  -1.746  1.00  0.00    -0.247 OA
HETATM   15  H   UNL     1      39.467 -13.999   0.127  1.00  0.00     0.164 HD
HETATM   16  C   UNL     1      41.440 -14.719   2.544  1.00  0.00     0.144 C 
BRANCH  13  17
HETATM   17  C   UNL     1      39.102 -13.852  -1.927  1.00  0.00     0.078 C 
HETATM   18  C   UNL     1      38.616 -12.428  -1.663  1.00  0.00     0.032 C 
HETATM   19  C   UNL     1      38.048 -14.677  -2.661  1.00  0.00     0.032 C 
ENDBRANCH  13  17
ENDBRANCH   1   7
BRANCH   6  20
HETATM   20  C   UNL     1      42.985 -13.467   4.835  1.00  0.00     0.083 C 
BRANCH  20  21
HETATM   21  C   UNL     1      41.738 -13.050   5.597  1.00  0.00    -0.051 A 
HETATM   22  C   UNL     1      41.800 -11.849   6.331  1.00  0.00     0.044 A 
HETATM   23  C   UNL     1      40.704 -11.395   7.068  1.00  0.00     0.068 A 
HETATM   24  C   UNL     1      39.522 -12.133   7.054  1.00  0.00     0.037 A 
HETATM   25  C   UNL     1      39.440 -13.325   6.335  1.00  0.00     0.003 A 
HETATM   26  C   UNL     1      40.543 -13.784   5.615  1.00  0.00     0.007 A 
BRANCH  23  27
HETATM   27  O   UNL     1      40.665 -10.255   7.823  1.00  0.00    -0.356 OA
HETATM   28  C   UNL     1      41.840  -9.936   8.557  1.00  0.00     0.210 C 
ENDBRANCH  23  27
ENDBRANCH  20  21
ENDBRANCH   6  20
BRANCH   3  29
HETATM   29  C   UNL     1      44.058 -19.034   5.297  1.00  0.00     0.012 A 
HETATM   30  C   UNL     1      43.672 -19.678   6.487  1.00  0.00     0.015 A 
HETATM   31  C   UNL     1      43.844 -21.058   6.660  1.00  0.00     0.001 A 
HETATM   32  C   UNL     1      44.412 -21.827   5.648  1.00  0.00     0.000 A 
HETATM   33  C   UNL     1      44.799 -21.220   4.458  1.00  0.00     0.001 A 
HETATM   34  C   UNL     1      44.623 -19.844   4.287  1.00  0.00     0.015 A 
ENDBRANCH   3  29
BRANCH   5  35
HETATM   35  C   UNL     1      44.080 -14.688   7.354  1.00  0.00     0.226 C 
BRANCH  35  36
HETATM   36  O   UNL     1      45.270 -13.901   7.269  1.00  0.00    -0.390 OA
HETATM   37  C   UNL     1      45.258 -12.845   8.219  1.00  0.00     0.201 C 
ENDBRANCH  35  36
ENDBRANCH   5  35
TORSDOF 8
ENDMDL
MODEL 6
REMARK VINA RESULT:      -7.7      2.806      7.208
REMARK  8 active torsions:
REMARK  status: ('A' for Active; 'I' for Inactive)
REMARK    1  A    between atoms: C_2  and  N_3 
REMARK       I    between atoms: N_3  and  C_4 
REMARK       I    between atoms: C_4  and  N_5 
REMARK    2  A    between atoms: N_8  and  C_9 
REMARK    3  A    between atoms: C_11  and  C_12 
REMARK    4  A    between atoms: C_19  and  C_20 
REMARK    5  A    between atoms: C_20  and  O_21 
REMARK    6  A    between atoms: C_23  and  C_24 
REMARK    7  A    between atoms: C_24  and  C_25 
REMARK    8  A    between atoms: C_27  and  O_28 
ROOT
HETATM    1  C   UNL     1      41.609 -15.221   2.686  1.00  0.00     0.137 A 
HETATM    2  N   UNL     1      41.522 -14.652   1.468  1.00  0.00    -0.210 NA
HETATM    3  C   UNL     1      41.530 -15.455   0.386  1.00  0.00     0.162 A 
HETATM    4  N   UNL     1      41.666 -16.788   0.438  1.00  0.00    -0.230 NA
HETATM    5  C   UNL     1      41.726 -17.364   1.656  1.00  0.00     0.071 A 
HETATM    6  C   UNL     1      41.686 -16.614   2.835  1.00  0.00     0.019 A 
ENDROOT
BRANCH   1   7
HETATM    7  N   UNL     1      41.527 -14.379   3.792  1.00  0.00    -0.362 N 
HETATM    8  C   UNL     1      42.511 -13.277   3.931  1.00  0.00     0.144 C 
HETATM    9  C   UNL     1      41.886 -11.880   3.762  1.00  0.00     0.147 C 
HETATM   10  N   UNL     1      40.675 -11.756   4.569  1.00  0.00    -0.331 N 
HETATM   11  C   UNL     1      40.747 -11.047   5.754  1.00  0.00     0.318 C 
HETATM   12  C   UNL     1      39.662 -12.741   4.175  1.00  0.00     0.147 C 
HETATM   13  N   UNL     1      39.653 -11.146   6.573  1.00  0.00    -0.339 N 
HETATM   14  O   UNL     1      41.720 -10.356   6.044  1.00  0.00    -0.247 OA
HETATM   15  H   UNL     1      39.136 -12.006   6.516  1.00  0.00     0.164 HD
HETATM   16  C   UNL     1      40.199 -14.164   4.404  1.00  0.00     0.144 C 
BRANCH  13  17
HETATM   17  C   UNL     1      39.516 -10.434   7.842  1.00  0.00     0.078 C 
HETATM   18  C   UNL     1      39.018 -11.328   8.977  1.00  0.00     0.032 C 
HETATM   19  C   UNL     1      38.673  -9.167   7.714  1.00  0.00     0.032 C 
ENDBRANCH  13  17
ENDBRANCH   1   7
BRANCH   6  20
HETATM   20  C   UNL     1      41.608 -17.289   4.185  1.00  0.00     0.083 C 
BRANCH  20  21
HETATM   21  C   UNL     1      42.874 -17.391   5.019  1.00  0.00    -0.051 A 
HETATM   22  C   UNL     1      43.137 -16.347   5.926  1.00  0.00     0.044 A 
HETATM   23  C   UNL     1      44.282 -16.355   6.726  1.00  0.00     0.068 A 
HETATM   24  C   UNL     1      45.165 -17.429   6.638  1.00  0.00     0.037 A 
HETATM   25  C   UNL     1      44.924 -18.473   5.745  1.00  0.00     0.003 A 
HETATM   26  C   UNL     1      43.788 -18.452   4.935  1.00  0.00     0.007 A 
BRANCH  23  27
HETATM   27  O   UNL     1      44.636 -15.387   7.625  1.00  0.00    -0.356 OA
HETATM   28  C   UNL     1      44.845 -14.080   7.106  1.00  0.00     0.210 C 
ENDBRANCH  23  27
ENDBRANCH  20  21
ENDBRANCH   6  20
BRANCH   3  29
HETATM   29  C   UNL     1      41.308 -14.854  -0.947  1.00  0.00     0.012 A 
HETATM   30  C   UNL     1      41.450 -13.472  -1.174  1.00  0.00     0.015 A 
HETATM   31  C   UNL     1      41.205 -12.909  -2.433  1.00  0.00     0.001 A 
HETATM   32  C   UNL     1      40.807 -13.715  -3.496  1.00  0.00     0.000 A 
HETATM   33  C   UNL     1      40.663 -15.084  -3.306  1.00  0.00     0.001 A 
HETATM   34  C   UNL     1      40.911 -15.644  -2.048  1.00  0.00     0.015 A 
ENDBRANCH   3  29
BRANCH   5  35
HETATM   35  C   UNL     1      41.806 -18.876   1.640  1.00  0.00     0.226 C 
BRANCH  35  36
HETATM   36  O   UNL     1      43.167 -19.311   1.613  1.00  0.00    -0.390 OA
HETATM   37  C   UNL     1      43.278 -20.683   1.962  1.00  0.00     0.201 C 
ENDBRANCH  35  36
ENDBRANCH   5  35
TORSDOF 8
ENDMDL
MODEL 7
REMARK VINA RESULT:      -7.5      2.741      6.500
REMARK  8 active torsions:
REMARK  status: ('A' for Active; 'I' for Inactive)
REMARK    1  A    between atoms: C_2  and  N_3 
REMARK       I    between atoms: N_3  and  C_4 
REMARK       I    between atoms: C_4  and  N_5 
REMARK    2  A    between atoms: N_8  and  C_9 
REMARK    3  A    between atoms: C_11  and  C_12 
REMARK    4  A    between atoms: C_19  and  C_20 
REMARK    5  A    between atoms: C_20  and  O_21 
REMARK    6  A    between atoms: C_23  and  C_24 
REMARK    7  A    between atoms: C_24  and  C_25 
REMARK    8  A    between atoms: C_27  and  O_28 
ROOT
HETATM    1  C   UNL     1      41.957 -15.995   3.091  1.00  0.00     0.137 A 
HETATM    2  N   UNL     1      42.384 -17.229   3.420  1.00  0.00    -0.210 NA
HETATM    3  C   UNL     1      43.287 -17.347   4.413  1.00  0.00     0.162 A 
HETATM    4  N   UNL     1      43.827 -16.309   5.068  1.00  0.00    -0.230 NA
HETATM    5  C   UNL     1      43.381 -15.074   4.760  1.00  0.00     0.071 A 
HETATM    6  C   UNL     1      42.417 -14.858   3.771  1.00  0.00     0.019 A 
ENDROOT
BRANCH   1   7
HETATM    7  N   UNL     1      40.971 -15.901   2.111  1.00  0.00    -0.362 N 
HETATM    8  C   UNL     1      39.625 -15.406   2.490  1.00  0.00     0.144 C 
HETATM    9  C   UNL     1      39.295 -14.026   1.892  1.00  0.00     0.147 C 
HETATM   10  N   UNL     1      39.604 -13.996   0.464  1.00  0.00    -0.331 N 
HETATM   11  C   UNL     1      38.558 -14.097  -0.435  1.00  0.00     0.318 C 
HETATM   12  C   UNL     1      41.026 -14.254   0.215  1.00  0.00     0.147 C 
HETATM   13  N   UNL     1      38.916 -14.284  -1.744  1.00  0.00    -0.339 N 
HETATM   14  O   UNL     1      37.384 -14.002  -0.086  1.00  0.00    -0.247 OA
HETATM   15  H   UNL     1      39.779 -14.775  -1.899  1.00  0.00     0.164 HD
HETATM   16  C   UNL     1      41.399 -15.660   0.717  1.00  0.00     0.144 C 
BRANCH  13  17
HETATM   17  C   UNL     1      37.962 -14.363  -2.848  1.00  0.00     0.078 C 
HETATM   18  C   UNL     1      38.344 -15.411  -3.893  1.00  0.00     0.032 C 
HETATM   19  C   UNL     1      37.692 -13.004  -3.489  1.00  0.00     0.032 C 
ENDBRANCH  13  17
ENDBRANCH   1   7
BRANCH   6  20
HETATM   20  C   UNL     1      41.828 -13.484   3.545  1.00  0.00     0.083 C 
BRANCH  20  21
HETATM   21  C   UNL     1      41.098 -12.811   4.694  1.00  0.00    -0.051 A 
HETATM   22  C   UNL     1      41.382 -11.453   4.935  1.00  0.00     0.044 A 
HETATM   23  C   UNL     1      40.764 -10.757   5.976  1.00  0.00     0.068 A 
HETATM   24  C   UNL     1      39.831 -11.416   6.774  1.00  0.00     0.037 A 
HETATM   25  C   UNL     1      39.535 -12.761   6.553  1.00  0.00     0.003 A 
HETATM   26  C   UNL     1      40.169 -13.457   5.524  1.00  0.00     0.007 A 
BRANCH  23  27
HETATM   27  O   UNL     1      40.980  -9.446   6.302  1.00  0.00    -0.356 OA
HETATM   28  C   UNL     1      41.656  -8.652   5.335  1.00  0.00     0.210 C 
ENDBRANCH  23  27
ENDBRANCH  20  21
ENDBRANCH   6  20
BRANCH   3  29
HETATM   29  C   UNL     1      43.670 -18.701   4.869  1.00  0.00     0.012 A 
HETATM   30  C   UNL     1      43.380 -19.157   6.169  1.00  0.00     0.015 A 
HETATM   31  C   UNL     1      43.777 -20.429   6.602  1.00  0.00     0.001 A 
HETATM   32  C   UNL     1      44.478 -21.274   5.747  1.00  0.00     0.000 A 
HETATM   33  C   UNL     1      44.776 -20.854   4.456  1.00  0.00     0.001 A 
HETATM   34  C   UNL     1      44.376 -19.586   4.025  1.00  0.00     0.015 A 
ENDBRANCH   3  29
BRANCH   5  35
HETATM   35  C   UNL     1      43.980 -13.957   5.589  1.00  0.00     0.226 C 
BRANCH  35  36
HETATM   36  O   UNL     1      44.767 -14.486   6.658  1.00  0.00    -0.390 OA
HETATM   37  C   UNL     1      44.782 -13.605   7.773  1.00  0.00     0.201 C 
ENDBRANCH  35  36
ENDBRANCH   5  35
TORSDOF 8
ENDMDL
MODEL 8
REMARK VINA RESULT:      -7.5      3.509      8.619
REMARK  8 active torsions:
REMARK  status: ('A' for Active; 'I' for Inactive)
REMARK    1  A    between atoms: C_2  and  N_3 
REMARK       I    between atoms: N_3  and  C_4 
REMARK       I    between atoms: C_4  and  N_5 
REMARK    2  A    between atoms: N_8  and  C_9 
REMARK    3  A    between atoms: C_11  and  C_12 
REMARK    4  A    between atoms: C_19  and  C_20 
REMARK    5  A    between atoms: C_20  and  O_21 
REMARK    6  A    between atoms: C_23  and  C_24 
REMARK    7  A    between atoms: C_24  and  C_25 
REMARK    8  A    between atoms: C_27  and  O_28 
ROOT
HETATM    1  C   UNL     1      41.490 -14.743   2.401  1.00  0.00     0.137 A 
HETATM    2  N   UNL     1      42.016 -15.878   2.902  1.00  0.00    -0.210 NA
HETATM    3  C   UNL     1      42.399 -16.838   2.039  1.00  0.00     0.162 A 
HETATM    4  N   UNL     1      42.249 -16.760   0.708  1.00  0.00    -0.230 NA
HETATM    5  C   UNL     1      41.748 -15.616   0.201  1.00  0.00     0.071 A 
HETATM    6  C   UNL     1      41.359 -14.549   1.018  1.00  0.00     0.019 A 
ENDROOT
BRANCH   1   7
HETATM    7  N   UNL     1      41.166 -13.735   3.306  1.00  0.00    -0.362 N 
HETATM    8  C   UNL     1      39.808 -13.712   3.901  1.00  0.00     0.144 C 
HETATM    9  C   UNL     1      39.798 -14.034   5.406  1.00  0.00     0.147 C 
HETATM   10  N   UNL     1      40.812 -13.251   6.107  1.00  0.00    -0.331 N 
HETATM   11  C   UNL     1      40.402 -12.149   6.836  1.00  0.00     0.318 C 
HETATM   12  C   UNL     1      42.159 -13.540   5.605  1.00  0.00     0.147 C 
HETATM   13  N   UNL     1      41.403 -11.330   7.288  1.00  0.00    -0.339 N 
HETATM   14  O   UNL     1      39.218 -11.931   7.080  1.00  0.00    -0.247 OA
HETATM   15  H   UNL     1      42.233 -11.295   6.723  1.00  0.00     0.164 HD
HETATM   16  C   UNL     1      42.257 -13.157   4.119  1.00  0.00     0.144 C 
BRANCH  13  17
HETATM   17  C   UNL     1      41.177 -10.146   8.116  1.00  0.00     0.078 C 
HETATM   18  C   UNL     1      41.337  -8.838   7.342  1.00  0.00     0.032 C 
HETATM   19  C   UNL     1      42.020 -10.152   9.389  1.00  0.00     0.032 C 
ENDBRANCH  13  17
ENDBRANCH   1   7
BRANCH   6  20
HETATM   20  C   UNL     1      40.939 -13.225   0.422  1.00  0.00     0.083 C 
BRANCH  20  21
HETATM   21  C   UNL     1      39.474 -12.828   0.499  1.00  0.00    -0.051 A 
HETATM   22  C   UNL     1      39.183 -11.460   0.662  1.00  0.00     0.044 A 
HETATM   23  C   UNL     1      37.866 -11.006   0.752  1.00  0.00     0.068 A 
HETATM   24  C   UNL     1      36.822 -11.925   0.655  1.00  0.00     0.037 A 
HETATM   25  C   UNL     1      37.089 -13.284   0.495  1.00  0.00     0.003 A 
HETATM   26  C   UNL     1      38.407 -13.735   0.424  1.00  0.00     0.007 A 
BRANCH  23  27
HETATM   27  O   UNL     1      37.477  -9.706   0.923  1.00  0.00    -0.356 OA
HETATM   28  C   UNL     1      36.303  -9.489   1.696  1.00  0.00     0.210 C 
ENDBRANCH  23  27
ENDBRANCH  20  21
ENDBRANCH   6  20
BRANCH   3  29
HETATM   29  C   UNL     1      43.093 -18.034   2.566  1.00  0.00     0.012 A 
HETATM   30  C   UNL     1      43.647 -18.061   3.860  1.00  0.00     0.015 A 
HETATM   31  C   UNL     1      44.332 -19.186   4.338  1.00  0.00     0.001 A 
HETATM   32  C   UNL     1      44.483 -20.311   3.531  1.00  0.00     0.000 A 
HETATM   33  C   UNL     1      43.942 -20.316   2.250  1.00  0.00     0.001 A 
HETATM   34  C   UNL     1      43.256 -19.193   1.777  1.00  0.00     0.015 A 
ENDBRANCH   3  29
BRANCH   5  35
HETATM   35  C   UNL     1      41.675 -15.569  -1.311  1.00  0.00     0.226 C 
BRANCH  35  36
HETATM   36  O   UNL     1      40.336 -15.792  -1.759  1.00  0.00    -0.390 OA
HETATM   37  C   UNL     1      40.140 -15.282  -3.071  1.00  0.00     0.201 C 
ENDBRANCH  35  36
ENDBRANCH   5  35
TORSDOF 8
ENDMDL
MODEL 9
REMARK VINA RESULT:      -7.5      3.046      6.837
REMARK  8 active torsions:
REMARK  status: ('A' for Active; 'I' for Inactive)
REMARK    1  A    between atoms: C_2  and  N_3 
REMARK       I    between atoms: N_3  and  C_4 
REMARK       I    between atoms: C_4  and  N_5 
REMARK    2  A    between atoms: N_8  and  C_9 
REMARK    3  A    between atoms: C_11  and  C_12 
REMARK    4  A    between atoms: C_19  and  C_20 
REMARK    5  A    between atoms: C_20  and  O_21 
REMARK    6  A    between atoms: C_23  and  C_24 
REMARK    7  A    between atoms: C_24  and  C_25 
REMARK    8  A    between atoms: C_27  and  O_28 
ROOT
HETATM    1  C   UNL     1      42.278 -14.126   2.818  1.00  0.00     0.137 A 
HETATM    2  N   UNL     1      42.587 -15.405   2.528  1.00  0.00    -0.210 NA
HETATM    3  C   UNL     1      43.228 -16.134   3.463  1.00  0.00     0.162 A 
HETATM    4  N   UNL     1      43.620 -15.656   4.652  1.00  0.00    -0.230 NA
HETATM    5  C   UNL     1      43.289 -14.386   4.957  1.00  0.00     0.071 A 
HETATM    6  C   UNL     1      42.591 -13.566   4.065  1.00  0.00     0.019 A 
ENDROOT
BRANCH   1   7
HETATM    7  N   UNL     1      41.554 -13.412   1.866  1.00  0.00    -0.362 N 
HETATM    8  C   UNL     1      42.221 -13.023   0.599  1.00  0.00     0.144 C 
HETATM    9  C   UNL     1      41.670 -13.766  -0.631  1.00  0.00     0.147 C 
HETATM   10  N   UNL     1      40.210 -13.728  -0.644  1.00  0.00    -0.331 N 
HETATM   11  C   UNL     1      39.585 -12.843  -1.504  1.00  0.00     0.318 C 
HETATM   12  C   UNL     1      39.643 -14.370   0.546  1.00  0.00     0.147 C 
HETATM   13  N   UNL     1      38.235 -12.691  -1.322  1.00  0.00    -0.339 N 
HETATM   14  O   UNL     1      40.196 -12.248  -2.388  1.00  0.00    -0.247 OA
HETATM   15  H   UNL     1      37.899 -12.824  -0.384  1.00  0.00     0.164 HD
HETATM   16  C   UNL     1      40.092 -13.616   1.810  1.00  0.00     0.144 C 
BRANCH  13  17
HETATM   17  C   UNL     1      37.389 -11.842  -2.159  1.00  0.00     0.078 C 
HETATM   18  C   UNL     1      36.261 -11.168  -1.378  1.00  0.00     0.032 C 
HETATM   19  C   UNL     1      36.860 -12.574  -3.389  1.00  0.00     0.032 C 
ENDBRANCH  13  17
ENDBRANCH   1   7
BRANCH   6  20
HETATM   20  C   UNL     1      42.104 -12.197   4.484  1.00  0.00     0.083 C 
BRANCH  20  21
HETATM   21  C   UNL     1      41.114 -12.100   5.632  1.00  0.00    -0.051 A 
HETATM   22  C   UNL     1      41.364 -11.131   6.622  1.00  0.00     0.044 A 
HETATM   23  C   UNL     1      40.512 -10.978   7.717  1.00  0.00     0.068 A 
HETATM   24  C   UNL     1      39.380 -11.786   7.816  1.00  0.00     0.037 A 
HETATM   25  C   UNL     1      39.114 -12.753   6.847  1.00  0.00     0.003 A 
HETATM   26  C   UNL     1      39.979 -12.914   5.764  1.00  0.00     0.007 A 
BRANCH  23  27
HETATM   27  O   UNL     1      40.671 -10.080   8.737  1.00  0.00    -0.356 OA
HETATM   28  C   UNL     1      40.905 -10.621  10.032  1.00  0.00     0.210 C 
ENDBRANCH  23  27
ENDBRANCH  20  21
ENDBRANCH   6  20
BRANCH   3  29
HETATM   29  C   UNL     1      43.460 -17.572   3.207  1.00  0.00     0.012 A 
HETATM   30  C   UNL     1      44.030 -18.417   4.177  1.00  0.00     0.015 A 
HETATM   31  C   UNL     1      44.277 -19.771   3.913  1.00  0.00     0.001 A 
HETATM   32  C   UNL     1      43.965 -20.311   2.669  1.00  0.00     0.000 A 
HETATM   33  C   UNL     1      43.396 -19.503   1.691  1.00  0.00     0.001 A 
HETATM   34  C   UNL     1      43.148 -18.153   1.958  1.00  0.00     0.015 A 
ENDBRANCH   3  29
BRANCH   5  35
HETATM   35  C   UNL     1      43.700 -13.937   6.344  1.00  0.00     0.226 C 
BRANCH  35  36
HETATM   36  O   UNL     1      45.124 -13.891   6.459  1.00  0.00    -0.390 OA
HETATM   37  C   UNL     1      45.524 -13.210   7.640  1.00  0.00     0.201 C 
ENDBRANCH  35  36
ENDBRANCH   5  35
TORSDOF 8
ENDMDL
MODEL 10
REMARK VINA RESULT:      -7.4      2.763      6.518
REMARK  8 active torsions:
REMARK  status: ('A' for Active; 'I' for Inactive)
REMARK    1  A    between atoms: C_2  and  N_3 
REMARK       I    between atoms: N_3  and  C_4 
REMARK       I    between atoms: C_4  and  N_5 
REMARK    2  A    between atoms: N_8  and  C_9 
REMARK    3  A    between atoms: C_11  and  C_12 
REMARK    4  A    between atoms: C_19  and  C_20 
REMARK    5  A    between atoms: C_20  and  O_21 
REMARK    6  A    between atoms: C_23  and  C_24 
REMARK    7  A    between atoms: C_24  and  C_25 
REMARK    8  A    between atoms: C_27  and  O_28 
ROOT
HETATM    1  C   UNL     1      41.411 -16.171   2.781  1.00  0.00     0.137 A 
HETATM    2  N   UNL     1      42.171 -17.240   2.475  1.00  0.00    -0.210 NA
HETATM    3  C   UNL     1      42.581 -18.038   3.480  1.00  0.00     0.162 A 
HETATM    4  N   UNL     1      42.321 -17.813   4.776  1.00  0.00    -0.230 NA
HETATM    5  C   UNL     1      41.538 -16.759   5.083  1.00  0.00     0.071 A 
HETATM    6  C   UNL     1      41.034 -15.898   4.104  1.00  0.00     0.019 A 
ENDROOT
BRANCH   1   7
HETATM    7  N   UNL     1      40.938 -15.400   1.721  1.00  0.00    -0.362 N 
HETATM    8  C   UNL     1      39.476 -15.321   1.486  1.00  0.00     0.144 C 
HETATM    9  C   UNL     1      38.887 -13.929   1.778  1.00  0.00     0.147 C 
HETATM   10  N   UNL     1      39.690 -12.886   1.144  1.00  0.00    -0.331 N 
HETATM   11  C   UNL     1      39.213 -12.308  -0.019  1.00  0.00     0.318 C 
HETATM   12  C   UNL     1      41.070 -12.892   1.639  1.00  0.00     0.147 C 
HETATM   13  N   UNL     1      40.097 -11.502  -0.687  1.00  0.00    -0.339 N 
HETATM   14  O   UNL     1      38.064 -12.488  -0.414  1.00  0.00    -0.247 OA
HETATM   15  H   UNL     1      41.069 -11.737  -0.588  1.00  0.00     0.164 HD
HETATM   16  C   UNL     1      41.742 -14.234   1.298  1.00  0.00     0.144 C 
BRANCH  13  17
HETATM   17  C   UNL     1      39.767 -10.763  -1.904  1.00  0.00     0.078 C 
HETATM   18  C   UNL     1      40.126 -11.525  -3.180  1.00  0.00     0.032 C 
HETATM   19  C   UNL     1      40.352  -9.353  -1.910  1.00  0.00     0.032 C 
ENDBRANCH  13  17
ENDBRANCH   1   7
BRANCH   6  20
HETATM   20  C   UNL     1      40.043 -14.813   4.457  1.00  0.00     0.083 C 
BRANCH  20  21
HETATM   21  C   UNL     1      40.528 -13.624   5.269  1.00  0.00    -0.051 A 
HETATM   22  C   UNL     1      39.577 -12.945   6.054  1.00  0.00     0.044 A 
HETATM   23  C   UNL     1      39.933 -11.836   6.824  1.00  0.00     0.068 A 
HETATM   24  C   UNL     1      41.260 -11.411   6.831  1.00  0.00     0.037 A 
HETATM   25  C   UNL     1      42.218 -12.069   6.060  1.00  0.00     0.003 A 
HETATM   26  C   UNL     1      41.854 -13.165   5.278  1.00  0.00     0.007 A 
BRANCH  23  27
HETATM   27  O   UNL     1      39.086 -11.100   7.608  1.00  0.00    -0.356 OA
HETATM   28  C   UNL     1      39.393 -11.039   8.995  1.00  0.00     0.210 C 
ENDBRANCH  23  27
ENDBRANCH  20  21
ENDBRANCH   6  20
BRANCH   3  29
HETATM   29  C   UNL     1      43.309 -19.283   3.148  1.00  0.00     0.012 A 
HETATM   30  C   UNL     1      44.313 -19.804   3.986  1.00  0.00     0.015 A 
HETATM   31  C   UNL     1      45.018 -20.965   3.646  1.00  0.00     0.001 A 
HETATM   32  C   UNL     1      44.740 -21.632   2.456  1.00  0.00     0.000 A 
HETATM   33  C   UNL     1      43.751 -21.145   1.609  1.00  0.00     0.001 A 
HETATM   34  C   UNL     1      43.045 -19.987   1.953  1.00  0.00     0.015 A 
ENDBRANCH   3  29
BRANCH   5  35
HETATM   35  C   UNL     1      41.227 -16.607   6.558  1.00  0.00     0.226 C 
BRANCH  35  36
HETATM   36  O   UNL     1      42.091 -17.430   7.345  1.00  0.00    -0.390 OA
HETATM   37  C   UNL     1      43.223 -16.701   7.799  1.00  0.00     0.201 C 
ENDBRANCH  35  36
ENDBRANCH   5  35
TORSDOF 8
ENDMDL
