MODEL 1
REMARK VINA RESULT:      -9.1      0.000      0.000
REMARK  9 active torsions:
REMARK  status: ('A' for Active; 'I' for Inactive)
REMARK    1  A    between atoms: C_5  and  C_6 
REMARK    2  A    between atoms: C_8  and  N_9 
REMARK       I    between atoms: N_9  and  C_10 
REMARK    3  A    between atoms: C_10  and  C_11 
REMARK    4  A    between atoms: C_11  and  N_12 
REMARK    5  A    between atoms: N_12  and  C_14 
REMARK    6  A    between atoms: C_14  and  C_15 
REMARK       I    between atoms: C_15  and  N_16 
REMARK    7  A    between atoms: N_16  and  C_17 
REMARK    8  A    between atoms: C_20  and  O_21 
REMARK    9  A    between atoms: O_21  and  C_22 
ROOT
HETATM    1  N   UNL     1      42.056 -12.097   4.342  1.00  0.00    -0.058 N 
HETATM    2  H   UNL     1      42.996 -11.694   4.431  1.00  0.00     0.280 HD
HETATM    3  C   UNL     1      41.140 -10.893   4.294  1.00  0.00     0.270 C 
ENDROOT
BRANCH   1   4
HETATM    4  C   UNL     1      41.865 -12.945   5.605  1.00  0.00     0.337 C 
BRANCH   4   5
HETATM    5  C   UNL     1      42.920 -12.797   6.707  1.00  0.00     0.248 C 
HETATM    6  N   UNL     1      42.705 -11.723   7.552  1.00  0.00    -0.326 N 
HETATM    7  H   UNL     1      42.042 -11.009   7.281  1.00  0.00     0.169 HD
HETATM    8  O   UNL     1      43.851 -13.596   6.751  1.00  0.00    -0.271 OA
BRANCH   6   9
HETATM    9  C   UNL     1      43.392 -11.442   8.755  1.00  0.00     0.035 A 
HETATM   10  C   UNL     1      42.849 -10.707   9.815  1.00  0.00     0.043 A 
HETATM   11  C   UNL     1      43.613 -10.405  10.960  1.00  0.00    -0.005 A 
HETATM   12  C   UNL     1      44.930 -10.881  11.029  1.00  0.00     0.014 A 
HETATM   13  C   UNL     1      45.476 -11.621   9.980  1.00  0.00     0.003 A 
HETATM   14  C   UNL     1      44.714 -11.889   8.846  1.00  0.00     0.029 A 
BRANCH  11  15
HETATM   15  C   UNL     1      43.021  -9.590  12.024  1.00  0.00     0.074 A 
HETATM   16  C   UNL     1      42.383  -8.378  11.836  1.00  0.00     0.084 A 
HETATM   17  S   UNL     1      41.827  -7.754  13.334  1.00  0.00    -0.085 SA
HETATM   18  C   UNL     1      42.461  -9.135  14.128  1.00  0.00     0.071 A 
HETATM   19  C   UNL     1      42.336  -9.277  15.605  1.00  0.00     0.078 C 
HETATM   20  N   UNL     1      43.055 -10.014  13.348  1.00  0.00    -0.245 NA
ENDBRANCH  11  15
ENDBRANCH   6   9
ENDBRANCH   4   5
ENDBRANCH   1   4
BRANCH   1  21
HETATM   21  C   UNL     1      42.080 -12.902   3.043  1.00  0.00     0.337 C 
BRANCH  21  22
HETATM   22  C   UNL     1      42.981 -14.143   3.051  1.00  0.00     0.248 C 
HETATM   23  N   UNL     1      42.310 -15.333   2.822  1.00  0.00    -0.326 N 
HETATM   24  H   UNL     1      41.295 -15.336   2.842  1.00  0.00     0.169 HD
HETATM   25  O   UNL     1      44.188 -14.011   3.208  1.00  0.00    -0.271 OA
BRANCH  23  26
HETATM   26  C   UNL     1      42.895 -16.619   2.729  1.00  0.00     0.034 A 
HETATM   27  C   UNL     1      43.508 -17.120   1.582  1.00  0.00     0.032 A 
HETATM   28  C   UNL     1      44.082 -18.397   1.584  1.00  0.00     0.039 A 
HETATM   29  C   UNL     1      44.058 -19.195   2.728  1.00  0.00     0.078 A 
HETATM   30  C   UNL     1      43.423 -18.710   3.869  1.00  0.00     0.039 A 
HETATM   31  C   UNL     1      42.846 -17.432   3.868  1.00  0.00     0.032 A 
BRANCH  29  32
HETATM   32  O   UNL     1      44.677 -20.403   2.589  1.00  0.00    -0.255 OA
BRANCH  32  33
HETATM   33  C   UNL     1      43.930 -21.467   2.021  1.00  0.00     0.530 C 
HETATM   34  F   UNL     1      42.644 -21.107   1.821  1.00  0.00    -0.144 F 
HETATM   35  F   UNL     1      44.473 -21.857   0.848  1.00  0.00    -0.144 F 
HETATM   36  F   UNL     1      43.951 -22.517   2.869  1.00  0.00    -0.144 F 
ENDBRANCH  32  33
ENDBRANCH  29  32
ENDBRANCH  23  26
ENDBRANCH  21  22
ENDBRANCH   1  21
TORSDOF 9
ENDMDL
MODEL 2
REMARK VINA RESULT:      -8.9      4.959      6.334
REMARK  9 active torsions:
REMARK  status: ('A' for Active; 'I' for Inactive)
REMARK    1  A    between atoms: C_5  and  C_6 
REMARK    2  A    between atoms: C_8  and  N_9 
REMARK       I    between atoms: N_9  and  C_10 
REMARK    3  A    between atoms: C_10  and  C_11 
REMARK    4  A    between atoms: C_11  and  N_12 
REMARK    5  A    between atoms: N_12  and  C_14 
REMARK    6  A    between atoms: C_14  and  C_15 
REMARK       I    between atoms: C_15  and  N_16 
REMARK    7  A    between atoms: N_16  and  C_17 
REMARK    8  A    between atoms: C_20  and  O_21 
REMARK    9  A    between atoms: O_21  and  C_22 
ROOT
HETATM    1  N   UNL     1      39.468 -13.666  -1.336  1.00  0.00    -0.058 N 
HETATM    2  H   UNL     1      40.060 -12.952  -0.895  1.00  0.00     0.280 HD
HETATM    3  C   UNL     1      39.038 -13.034  -2.642  1.00  0.00     0.270 C 
ENDROOT
BRANCH   1   4
HETATM    4  C   UNL     1      38.304 -13.878  -0.362  1.00  0.00     0.337 C 
BRANCH   4   5
HETATM    5  C   UNL     1      38.666 -14.131   1.107  1.00  0.00     0.248 C 
HETATM    6  N   UNL     1      39.428 -13.129   1.680  1.00  0.00    -0.326 N 
HETATM    7  H   UNL     1      39.870 -12.444   1.082  1.00  0.00     0.169 HD
HETATM    8  O   UNL     1      38.285 -15.167   1.643  1.00  0.00    -0.271 OA
BRANCH   6   9
HETATM    9  C   UNL     1      39.756 -12.992   3.049  1.00  0.00     0.035 A 
HETATM   10  C   UNL     1      40.755 -13.729   3.693  1.00  0.00     0.043 A 
HETATM   11  C   UNL     1      40.985 -13.591   5.077  1.00  0.00    -0.005 A 
HETATM   12  C   UNL     1      40.204 -12.675   5.796  1.00  0.00     0.014 A 
HETATM   13  C   UNL     1      39.212 -11.931   5.159  1.00  0.00     0.003 A 
HETATM   14  C   UNL     1      38.982 -12.098   3.795  1.00  0.00     0.029 A 
BRANCH  11  15
HETATM   15  C   UNL     1      42.008 -14.419   5.721  1.00  0.00     0.074 A 
HETATM   16  C   UNL     1      43.326 -14.050   5.911  1.00  0.00     0.084 A 
HETATM   17  S   UNL     1      44.191 -15.299   6.708  1.00  0.00    -0.085 SA
HETATM   18  C   UNL     1      42.758 -16.240   6.756  1.00  0.00     0.071 A 
HETATM   19  C   UNL     1      42.771 -17.598   7.364  1.00  0.00     0.078 C 
HETATM   20  N   UNL     1      41.696 -15.681   6.215  1.00  0.00    -0.245 NA
ENDBRANCH  11  15
ENDBRANCH   6   9
ENDBRANCH   4   5
ENDBRANCH   1   4
BRANCH   1  21
HETATM   21  C   UNL     1      40.370 -14.888  -1.513  1.00  0.00     0.337 C 
BRANCH  21  22
HETATM   22  C   UNL     1      41.317 -15.184  -0.345  1.00  0.00     0.248 C 
HETATM   23  N   UNL     1      41.284 -16.498   0.093  1.00  0.00    -0.326 N 
HETATM   24  H   UNL     1      40.547 -17.110  -0.243  1.00  0.00     0.169 HD
HETATM   25  O   UNL     1      42.044 -14.296   0.083  1.00  0.00    -0.271 OA
BRANCH  23  26
HETATM   26  C   UNL     1      42.085 -17.058   1.118  1.00  0.00     0.034 A 
HETATM   27  C   UNL     1      43.421 -17.420   0.960  1.00  0.00     0.032 A 
HETATM   28  C   UNL     1      44.146 -17.948   2.036  1.00  0.00     0.039 A 
HETATM   29  C   UNL     1      43.553 -18.121   3.287  1.00  0.00     0.078 A 
HETATM   30  C   UNL     1      42.210 -17.785   3.444  1.00  0.00     0.039 A 
HETATM   31  C   UNL     1      41.482 -17.259   2.367  1.00  0.00     0.032 A 
BRANCH  29  32
HETATM   32  O   UNL     1      44.386 -18.622   4.244  1.00  0.00    -0.255 OA
BRANCH  32  33
HETATM   33  C   UNL     1      44.484 -20.033   4.363  1.00  0.00     0.530 C 
HETATM   34  F   UNL     1      43.949 -20.461   5.527  1.00  0.00    -0.144 F 
HETATM   35  F   UNL     1      43.863 -20.643   3.332  1.00  0.00    -0.144 F 
HETATM   36  F   UNL     1      45.788 -20.382   4.341  1.00  0.00    -0.144 F 
ENDBRANCH  32  33
ENDBRANCH  29  32
ENDBRANCH  23  26
ENDBRANCH  21  22
ENDBRANCH   1  21
TORSDOF 9
ENDMDL
MODEL 3
REMARK VINA RESULT:      -8.8      6.625     10.290
REMARK  9 active torsions:
REMARK  status: ('A' for Active; 'I' for Inactive)
REMARK    1  A    between atoms: C_5  and  C_6 
REMARK    2  A    between atoms: C_8  and  N_9 
REMARK       I    between atoms: N_9  and  C_10 
REMARK    3  A    between atoms: C_10  and  C_11 
REMARK    4  A    between atoms: C_11  and  N_12 
REMARK    5  A    between atoms: N_12  and  C_14 
REMARK    6  A    between atoms: C_14  and  C_15 
REMARK       I    between atoms: C_15  and  N_16 
REMARK    7  A    between atoms: N_16  and  C_17 
REMARK    8  A    between atoms: C_20  and  O_21 
REMARK    9  A    between atoms: O_21  and  C_22 
ROOT
HETATM    1  N   UNL     1      40.404 -12.962   3.010  1.00  0.00    -0.058 N 
HETATM    2  H   UNL     1      39.753 -13.359   2.322  1.00  0.00     0.280 HD
HETATM    3  C   UNL     1      39.674 -11.756   3.558  1.00  0.00     0.270 C 
ENDROOT
BRANCH   1   4
HETATM    4  C   UNL     1      41.656 -12.591   2.207  1.00  0.00     0.337 C 
BRANCH   4   5
HETATM    5  C   UNL     1      41.661 -12.960   0.719  1.00  0.00     0.248 C 
HETATM    6  N   UNL     1      40.784 -13.976   0.388  1.00  0.00    -0.326 N 
HETATM    7  H   UNL     1      40.381 -14.539   1.125  1.00  0.00     0.169 HD
HETATM    8  O   UNL     1      42.423 -12.366  -0.038  1.00  0.00    -0.271 OA
BRANCH   6   9
HETATM    9  C   UNL     1      40.435 -14.403  -0.915  1.00  0.00     0.035 A 
HETATM   10  C   UNL     1      39.320 -13.936  -1.620  1.00  0.00     0.043 A 
HETATM   11  C   UNL     1      38.992 -14.453  -2.889  1.00  0.00    -0.005 A 
HETATM   12  C   UNL     1      39.825 -15.433  -3.448  1.00  0.00     0.014 A 
HETATM   13  C   UNL     1      40.943 -15.897  -2.755  1.00  0.00     0.003 A 
HETATM   14  C   UNL     1      41.238 -15.393  -1.490  1.00  0.00     0.029 A 
BRANCH  11  15
HETATM   15  C   UNL     1      37.787 -13.972  -3.571  1.00  0.00     0.074 A 
HETATM   16  C   UNL     1      36.855 -14.776  -4.200  1.00  0.00     0.084 A 
HETATM   17  S   UNL     1      35.593 -13.824  -4.866  1.00  0.00    -0.085 SA
HETATM   18  C   UNL     1      36.362 -12.412  -4.267  1.00  0.00     0.071 A 
HETATM   19  C   UNL     1      35.765 -11.071  -4.509  1.00  0.00     0.078 C 
HETATM   20  N   UNL     1      37.488 -12.615  -3.615  1.00  0.00    -0.245 NA
ENDBRANCH  11  15
ENDBRANCH   6   9
ENDBRANCH   4   5
ENDBRANCH   1   4
BRANCH   1  21
HETATM   21  C   UNL     1      40.626 -14.067   4.044  1.00  0.00     0.337 C 
BRANCH  21  22
HETATM   22  C   UNL     1      41.082 -15.417   3.479  1.00  0.00     0.248 C 
HETATM   23  N   UNL     1      42.340 -15.813   3.902  1.00  0.00    -0.326 N 
HETATM   24  H   UNL     1      42.929 -15.143   4.387  1.00  0.00     0.169 HD
HETATM   25  O   UNL     1      40.327 -16.057   2.757  1.00  0.00    -0.271 OA
BRANCH  23  26
HETATM   26  C   UNL     1      42.988 -17.030   3.578  1.00  0.00     0.034 A 
HETATM   27  C   UNL     1      43.285 -18.031   4.501  1.00  0.00     0.032 A 
HETATM   28  C   UNL     1      43.909 -19.215   4.088  1.00  0.00     0.039 A 
HETATM   29  C   UNL     1      44.244 -19.423   2.750  1.00  0.00     0.078 A 
HETATM   30  C   UNL     1      43.974 -18.415   1.828  1.00  0.00     0.039 A 
HETATM   31  C   UNL     1      43.351 -17.228   2.239  1.00  0.00     0.032 A 
BRANCH  29  32
HETATM   32  O   UNL     1      44.824 -20.631   2.494  1.00  0.00    -0.255 OA
BRANCH  32  33
HETATM   33  C   UNL     1      43.983 -21.690   2.064  1.00  0.00     0.530 C 
HETATM   34  F   UNL     1      42.716 -21.262   1.880  1.00  0.00    -0.144 F 
HETATM   35  F   UNL     1      44.445 -22.230   0.916  1.00  0.00    -0.144 F 
HETATM   36  F   UNL     1      43.974 -22.651   3.012  1.00  0.00    -0.144 F 
ENDBRANCH  32  33
ENDBRANCH  29  32
ENDBRANCH  23  26
ENDBRANCH  21  22
ENDBRANCH   1  21
TORSDOF 9
ENDMDL
MODEL 4
REMARK VINA RESULT:      -8.8      6.445     11.773
REMARK  9 active torsions:
REMARK  status: ('A' for Active; 'I' for Inactive)
REMARK    1  A    between atoms: C_5  and  C_6 
REMARK    2  A    between atoms: C_8  and  N_9 
REMARK       I    between atoms: N_9  and  C_10 
REMARK    3  A    between atoms: C_10  and  C_11 
REMARK    4  A    between atoms: C_11  and  N_12 
REMARK    5  A    between atoms: N_12  and  C_14 
REMARK    6  A    between atoms: C_14  and  C_15 
REMARK       I    between atoms: C_15  and  N_16 
REMARK    7  A    between atoms: N_16  and  C_17 
REMARK    8  A    between atoms: C_20  and  O_21 
REMARK    9  A    between atoms: O_21  and  C_22 
ROOT
HETATM    1  N   UNL     1      40.834 -11.453   5.523  1.00  0.00    -0.058 N 
HETATM    2  H   UNL     1      40.540 -11.748   4.585  1.00  0.00     0.280 HD
HETATM    3  C   UNL     1      41.162  -9.985   5.363  1.00  0.00     0.270 C 
ENDROOT
BRANCH   1   4
HETATM    4  C   UNL     1      42.063 -12.310   5.846  1.00  0.00     0.337 C 
BRANCH   4   5
HETATM    5  C   UNL     1      42.420 -13.416   4.846  1.00  0.00     0.248 C 
HETATM    6  N   UNL     1      41.532 -14.477   4.839  1.00  0.00    -0.326 N 
HETATM    7  H   UNL     1      40.871 -14.570   5.598  1.00  0.00     0.169 HD
HETATM    8  O   UNL     1      43.433 -13.297   4.164  1.00  0.00    -0.271 OA
BRANCH   6   9
HETATM    9  C   UNL     1      41.494 -15.542   3.910  1.00  0.00     0.035 A 
HETATM   10  C   UNL     1      42.278 -16.696   4.008  1.00  0.00     0.043 A 
HETATM   11  C   UNL     1      42.239 -17.691   3.010  1.00  0.00    -0.005 A 
HETATM   12  C   UNL     1      41.373 -17.513   1.922  1.00  0.00     0.014 A 
HETATM   13  C   UNL     1      40.582 -16.369   1.821  1.00  0.00     0.003 A 
HETATM   14  C   UNL     1      40.652 -15.385   2.804  1.00  0.00     0.029 A 
BRANCH  11  15
HETATM   15  C   UNL     1      43.115 -18.860   3.127  1.00  0.00     0.074 A 
HETATM   16  C   UNL     1      43.938 -19.132   4.204  1.00  0.00     0.084 A 
HETATM   17  S   UNL     1      44.791 -20.599   3.952  1.00  0.00    -0.085 SA
HETATM   18  C   UNL     1      44.004 -20.780   2.438  1.00  0.00     0.071 A 
HETATM   19  C   UNL     1      44.301 -21.953   1.572  1.00  0.00     0.078 C 
HETATM   20  N   UNL     1      43.162 -19.819   2.121  1.00  0.00    -0.245 NA
ENDBRANCH  11  15
ENDBRANCH   6   9
ENDBRANCH   4   5
ENDBRANCH   1   4
BRANCH   1  21
HETATM   21  C   UNL     1      39.629 -11.718   6.427  1.00  0.00     0.337 C 
BRANCH  21  22
HETATM   22  C   UNL     1      39.611 -10.938   7.747  1.00  0.00     0.248 C 
HETATM   23  N   UNL     1      40.609 -11.303   8.636  1.00  0.00    -0.326 N 
HETATM   24  H   UNL     1      41.150 -12.141   8.449  1.00  0.00     0.169 HD
HETATM   25  O   UNL     1      38.783 -10.050   7.913  1.00  0.00    -0.271 OA
BRANCH  23  26
HETATM   26  C   UNL     1      40.856 -10.719   9.902  1.00  0.00     0.034 A 
HETATM   27  C   UNL     1      40.077 -10.945  11.035  1.00  0.00     0.032 A 
HETATM   28  C   UNL     1      40.408 -10.342  12.255  1.00  0.00     0.039 A 
HETATM   29  C   UNL     1      41.520  -9.508  12.368  1.00  0.00     0.078 A 
HETATM   30  C   UNL     1      42.287  -9.258  11.233  1.00  0.00     0.039 A 
HETATM   31  C   UNL     1      41.956  -9.859  10.009  1.00  0.00     0.032 A 
BRANCH  29  32
HETATM   32  O   UNL     1      41.732  -9.013  13.621  1.00  0.00    -0.255 OA
BRANCH  32  33
HETATM   33  C   UNL     1      42.732  -9.629  14.417  1.00  0.00     0.530 C 
HETATM   34  F   UNL     1      42.487  -9.449  15.732  1.00  0.00    -0.144 F 
HETATM   35  F   UNL     1      42.805 -10.951  14.151  1.00  0.00    -0.144 F 
HETATM   36  F   UNL     1      43.926  -9.071  14.127  1.00  0.00    -0.144 F 
ENDBRANCH  32  33
ENDBRANCH  29  32
ENDBRANCH  23  26
ENDBRANCH  21  22
ENDBRANCH   1  21
TORSDOF 9
ENDMDL
MODEL 5
REMARK VINA RESULT:      -8.7      6.563     11.509
REMARK  9 active torsions:
REMARK  status: ('A' for Active; 'I' for Inactive)
REMARK    1  A    between atoms: C_5  and  C_6 
REMARK    2  A    between atoms: C_8  and  N_9 
REMARK       I    between atoms: N_9  and  C_10 
REMARK    3  A    between atoms: C_10  and  C_11 
REMARK    4  A    between atoms: C_11  and  N_12 
REMARK    5  A    between atoms: N_12  and  C_14 
REMARK    6  A    between atoms: C_14  and  C_15 
REMARK       I    between atoms: C_15  and  N_16 
REMARK    7  A    between atoms: N_16  and  C_17 
REMARK    8  A    between atoms: C_20  and  O_21 
REMARK    9  A    between atoms: O_21  and  C_22 
ROOT
HETATM    1  N   UNL     1      40.544 -12.903   6.111  1.00  0.00    -0.058 N 
HETATM    2  H   UNL     1      40.934 -13.312   6.968  1.00  0.00     0.280 HD
HETATM    3  C   UNL     1      39.136 -12.508   6.498  1.00  0.00     0.270 C 
ENDROOT
BRANCH   1   4
HETATM    4  C   UNL     1      40.587 -14.030   5.074  1.00  0.00     0.337 C 
BRANCH   4   5
HETATM    5  C   UNL     1      41.228 -15.352   5.512  1.00  0.00     0.248 C 
HETATM    6  N   UNL     1      42.499 -15.556   5.006  1.00  0.00    -0.326 N 
HETATM    7  H   UNL     1      42.825 -14.975   4.246  1.00  0.00     0.169 HD
HETATM    8  O   UNL     1      40.590 -16.112   6.234  1.00  0.00    -0.271 OA
BRANCH   6   9
HETATM    9  C   UNL     1      43.403 -16.579   5.375  1.00  0.00     0.035 A 
HETATM   10  C   UNL     1      43.518 -17.802   4.707  1.00  0.00     0.043 A 
HETATM   11  C   UNL     1      44.393 -18.806   5.168  1.00  0.00    -0.005 A 
HETATM   12  C   UNL     1      45.173 -18.543   6.303  1.00  0.00     0.014 A 
HETATM   13  C   UNL     1      45.071 -17.322   6.970  1.00  0.00     0.003 A 
HETATM   14  C   UNL     1      44.182 -16.351   6.515  1.00  0.00     0.029 A 
BRANCH  11  15
HETATM   15  C   UNL     1      44.444 -20.092   4.467  1.00  0.00     0.074 A 
HETATM   16  C   UNL     1      44.756 -21.305   5.053  1.00  0.00     0.084 A 
HETATM   17  S   UNL     1      44.698 -22.565   3.890  1.00  0.00    -0.085 SA
HETATM   18  C   UNL     1      44.254 -21.420   2.693  1.00  0.00     0.071 A 
HETATM   19  C   UNL     1      44.024 -21.852   1.287  1.00  0.00     0.078 C 
HETATM   20  N   UNL     1      44.155 -20.175   3.110  1.00  0.00    -0.245 NA
ENDBRANCH  11  15
ENDBRANCH   6   9
ENDBRANCH   4   5
ENDBRANCH   1   4
BRANCH   1  21
HETATM   21  C   UNL     1      41.446 -11.713   5.783  1.00  0.00     0.337 C 
BRANCH  21  22
HETATM   22  C   UNL     1      41.726 -10.755   6.947  1.00  0.00     0.248 C 
HETATM   23  N   UNL     1      41.866 -11.380   8.175  1.00  0.00    -0.326 N 
HETATM   24  H   UNL     1      41.610 -12.359   8.259  1.00  0.00     0.169 HD
HETATM   25  O   UNL     1      41.847  -9.556   6.727  1.00  0.00    -0.271 OA
BRANCH  23  26
HETATM   26  C   UNL     1      42.173 -10.749   9.405  1.00  0.00     0.034 A 
HETATM   27  C   UNL     1      41.248 -10.055  10.182  1.00  0.00     0.032 A 
HETATM   28  C   UNL     1      41.634  -9.479  11.399  1.00  0.00     0.039 A 
HETATM   29  C   UNL     1      42.945  -9.587  11.863  1.00  0.00     0.078 A 
HETATM   30  C   UNL     1      43.880 -10.258  11.078  1.00  0.00     0.039 A 
HETATM   31  C   UNL     1      43.496 -10.834   9.858  1.00  0.00     0.032 A 
BRANCH  29  32
HETATM   32  O   UNL     1      43.168  -8.998  13.073  1.00  0.00    -0.255 OA
BRANCH  32  33
HETATM   33  C   UNL     1      42.559  -9.581  14.215  1.00  0.00     0.530 C 
HETATM   34  F   UNL     1      42.674 -10.926  14.194  1.00  0.00    -0.144 F 
HETATM   35  F   UNL     1      43.114  -9.101  15.348  1.00  0.00    -0.144 F 
HETATM   36  F   UNL     1      41.247  -9.266  14.217  1.00  0.00    -0.144 F 
ENDBRANCH  32  33
ENDBRANCH  29  32
ENDBRANCH  23  26
ENDBRANCH  21  22
ENDBRANCH   1  21
TORSDOF 9
ENDMDL
MODEL 6
REMARK VINA RESULT:      -8.7      3.077      4.360
REMARK  9 active torsions:
REMARK  status: ('A' for Active; 'I' for Inactive)
REMARK    1  A    between atoms: C_5  and  C_6 
REMARK    2  A    between atoms: C_8  and  N_9 
REMARK       I    between atoms: N_9  and  C_10 
REMARK    3  A    between atoms: C_10  and  C_11 
REMARK    4  A    between atoms: C_11  and  N_12 
REMARK    5  A    between atoms: N_12  and  C_14 
REMARK    6  A    between atoms: C_14  and  C_15 
REMARK       I    between atoms: C_15  and  N_16 
REMARK    7  A    between atoms: N_16  and  C_17 
REMARK    8  A    between atoms: C_20  and  O_21 
REMARK    9  A    between atoms: O_21  and  C_22 
ROOT
HETATM    1  N   UNL     1      40.036 -12.737   2.197  1.00  0.00    -0.058 N 
HETATM    2  H   UNL     1      40.775 -12.205   2.671  1.00  0.00     0.280 HD
HETATM    3  C   UNL     1      39.112 -11.674   1.643  1.00  0.00     0.270 C 
ENDROOT
BRANCH   1   4
HETATM    4  C   UNL     1      39.384 -13.583   3.296  1.00  0.00     0.337 C 
BRANCH   4   5
HETATM    5  C   UNL     1      40.158 -13.726   4.612  1.00  0.00     0.248 C 
HETATM    6  N   UNL     1      40.933 -14.869   4.689  1.00  0.00    -0.326 N 
HETATM    7  H   UNL     1      40.783 -15.611   4.019  1.00  0.00     0.169 HD
HETATM    8  O   UNL     1      40.027 -12.864   5.475  1.00  0.00    -0.271 OA
BRANCH   6   9
HETATM    9  C   UNL     1      41.887 -15.180   5.685  1.00  0.00     0.035 A 
HETATM   10  C   UNL     1      42.830 -14.272   6.178  1.00  0.00     0.043 A 
HETATM   11  C   UNL     1      43.798 -14.666   7.124  1.00  0.00    -0.005 A 
HETATM   12  C   UNL     1      43.780 -15.990   7.586  1.00  0.00     0.014 A 
HETATM   13  C   UNL     1      42.837 -16.899   7.106  1.00  0.00     0.003 A 
HETATM   14  C   UNL     1      41.905 -16.498   6.152  1.00  0.00     0.029 A 
BRANCH  11  15
HETATM   15  C   UNL     1      44.798 -13.695   7.575  1.00  0.00     0.074 A 
HETATM   16  C   UNL     1      45.980 -13.408   6.918  1.00  0.00     0.084 A 
HETATM   17  S   UNL     1      46.865 -12.211   7.771  1.00  0.00    -0.085 SA
HETATM   18  C   UNL     1      45.619 -12.148   8.947  1.00  0.00     0.071 A 
HETATM   19  C   UNL     1      45.732 -11.232  10.115  1.00  0.00     0.078 C 
HETATM   20  N   UNL     1      44.603 -12.960   8.739  1.00  0.00    -0.245 NA
ENDBRANCH  11  15
ENDBRANCH   6   9
ENDBRANCH   4   5
ENDBRANCH   1   4
BRANCH   1  21
HETATM   21  C   UNL     1      40.750 -13.551   1.117  1.00  0.00     0.337 C 
BRANCH  21  22
HETATM   22  C   UNL     1      41.791 -14.554   1.628  1.00  0.00     0.248 C 
HETATM   23  N   UNL     1      41.491 -15.876   1.344  1.00  0.00    -0.326 N 
HETATM   24  H   UNL     1      40.566 -16.106   0.995  1.00  0.00     0.169 HD
HETATM   25  O   UNL     1      42.799 -14.145   2.191  1.00  0.00    -0.271 OA
BRANCH  23  26
HETATM   26  C   UNL     1      42.295 -17.001   1.653  1.00  0.00     0.034 A 
HETATM   27  C   UNL     1      43.335 -17.466   0.851  1.00  0.00     0.032 A 
HETATM   28  C   UNL     1      44.094 -18.575   1.245  1.00  0.00     0.039 A 
HETATM   29  C   UNL     1      43.832 -19.237   2.444  1.00  0.00     0.078 A 
HETATM   30  C   UNL     1      42.776 -18.793   3.237  1.00  0.00     0.039 A 
HETATM   31  C   UNL     1      42.013 -17.684   2.843  1.00  0.00     0.032 A 
BRANCH  29  32
HETATM   32  O   UNL     1      44.667 -20.283   2.708  1.00  0.00    -0.255 OA
BRANCH  32  33
HETATM   33  C   UNL     1      44.228 -21.585   2.352  1.00  0.00     0.530 C 
HETATM   34  F   UNL     1      45.058 -22.148   1.447  1.00  0.00    -0.144 F 
HETATM   35  F   UNL     1      44.151 -22.377   3.443  1.00  0.00    -0.144 F 
HETATM   36  F   UNL     1      42.999 -21.497   1.803  1.00  0.00    -0.144 F 
ENDBRANCH  32  33
ENDBRANCH  29  32
ENDBRANCH  23  26
ENDBRANCH  21  22
ENDBRANCH   1  21
TORSDOF 9
ENDMDL
MODEL 7
REMARK VINA RESULT:      -8.7      5.628      9.628
REMARK  9 active torsions:
REMARK  status: ('A' for Active; 'I' for Inactive)
REMARK    1  A    between atoms: C_5  and  C_6 
REMARK    2  A    between atoms: C_8  and  N_9 
REMARK       I    between atoms: N_9  and  C_10 
REMARK    3  A    between atoms: C_10  and  C_11 
REMARK    4  A    between atoms: C_11  and  N_12 
REMARK    5  A    between atoms: N_12  and  C_14 
REMARK    6  A    between atoms: C_14  and  C_15 
REMARK       I    between atoms: C_15  and  N_16 
REMARK    7  A    between atoms: N_16  and  C_17 
REMARK    8  A    between atoms: C_20  and  O_21 
REMARK    9  A    between atoms: O_21  and  C_22 
ROOT
HETATM    1  N   UNL     1      41.017 -13.246   4.729  1.00  0.00    -0.058 N 
HETATM    2  H   UNL     1      40.594 -13.985   4.156  1.00  0.00     0.280 HD
HETATM    3  C   UNL     1      39.838 -12.424   5.201  1.00  0.00     0.270 C 
ENDROOT
BRANCH   1   4
HETATM    4  C   UNL     1      41.938 -12.479   3.774  1.00  0.00     0.337 C 
BRANCH   4   5
HETATM    5  C   UNL     1      42.072 -13.027   2.349  1.00  0.00     0.248 C 
HETATM    6  N   UNL     1      41.399 -12.285   1.395  1.00  0.00    -0.326 N 
HETATM    7  H   UNL     1      40.715 -11.604   1.695  1.00  0.00     0.169 HD
HETATM    8  O   UNL     1      42.724 -14.050   2.163  1.00  0.00    -0.271 OA
BRANCH   6   9
HETATM    9  C   UNL     1      41.486 -12.433  -0.009  1.00  0.00     0.035 A 
HETATM   10  C   UNL     1      40.608 -13.209  -0.772  1.00  0.00     0.043 A 
HETATM   11  C   UNL     1      40.791 -13.367  -2.160  1.00  0.00    -0.005 A 
HETATM   12  C   UNL     1      41.864 -12.704  -2.772  1.00  0.00     0.014 A 
HETATM   13  C   UNL     1      42.740 -11.921  -2.020  1.00  0.00     0.003 A 
HETATM   14  C   UNL     1      42.557 -11.797  -0.644  1.00  0.00     0.029 A 
BRANCH  11  15
HETATM   15  C   UNL     1      39.877 -14.231  -2.912  1.00  0.00     0.074 A 
HETATM   16  C   UNL     1      40.184 -15.492  -3.388  1.00  0.00     0.084 A 
HETATM   17  S   UNL     1      38.838 -16.169  -4.207  1.00  0.00    -0.085 SA
HETATM   18  C   UNL     1      37.936 -14.750  -3.867  1.00  0.00     0.071 A 
HETATM   19  C   UNL     1      36.530 -14.622  -4.338  1.00  0.00     0.078 C 
HETATM   20  N   UNL     1      38.578 -13.820  -3.192  1.00  0.00    -0.245 NA
ENDBRANCH  11  15
ENDBRANCH   6   9
ENDBRANCH   4   5
ENDBRANCH   1   4
BRANCH   1  21
HETATM   21  C   UNL     1      41.747 -13.975   5.857  1.00  0.00     0.337 C 
BRANCH  21  22
HETATM   22  C   UNL     1      42.711 -15.081   5.413  1.00  0.00     0.248 C 
HETATM   23  N   UNL     1      42.122 -16.072   4.645  1.00  0.00    -0.326 N 
HETATM   24  H   UNL     1      41.110 -16.105   4.577  1.00  0.00     0.169 HD
HETATM   25  O   UNL     1      43.897 -15.005   5.710  1.00  0.00    -0.271 OA
BRANCH  23  26
HETATM   26  C   UNL     1      42.781 -17.183   4.063  1.00  0.00     0.034 A 
HETATM   27  C   UNL     1      43.182 -17.246   2.730  1.00  0.00     0.032 A 
HETATM   28  C   UNL     1      43.850 -18.377   2.242  1.00  0.00     0.039 A 
HETATM   29  C   UNL     1      44.131 -19.461   3.074  1.00  0.00     0.078 A 
HETATM   30  C   UNL     1      43.709 -19.414   4.401  1.00  0.00     0.039 A 
HETATM   31  C   UNL     1      43.039 -18.283   4.890  1.00  0.00     0.032 A 
BRANCH  29  32
HETATM   32  O   UNL     1      44.806 -20.479   2.468  1.00  0.00    -0.255 OA
BRANCH  32  33
HETATM   33  C   UNL     1      44.063 -21.621   2.070  1.00  0.00     0.530 C 
HETATM   34  F   UNL     1      44.606 -22.198   0.976  1.00  0.00    -0.144 F 
HETATM   35  F   UNL     1      44.006 -22.525   3.071  1.00  0.00    -0.144 F 
HETATM   36  F   UNL     1      42.804 -21.239   1.769  1.00  0.00    -0.144 F 
ENDBRANCH  32  33
ENDBRANCH  29  32
ENDBRANCH  23  26
ENDBRANCH  21  22
ENDBRANCH   1  21
TORSDOF 9
ENDMDL
MODEL 8
REMARK VINA RESULT:      -8.6      6.656     11.447
REMARK  9 active torsions:
REMARK  status: ('A' for Active; 'I' for Inactive)
REMARK    1  A    between atoms: C_5  and  C_6 
REMARK    2  A    between atoms: C_8  and  N_9 
REMARK       I    between atoms: N_9  and  C_10 
REMARK    3  A    between atoms: C_10  and  C_11 
REMARK    4  A    between atoms: C_11  and  N_12 
REMARK    5  A    between atoms: N_12  and  C_14 
REMARK    6  A    between atoms: C_14  and  C_15 
REMARK       I    between atoms: C_15  and  N_16 
REMARK    7  A    between atoms: N_16  and  C_17 
REMARK    8  A    between atoms: C_20  and  O_21 
REMARK    9  A    between atoms: O_21  and  C_22 
ROOT
HETATM    1  N   UNL     1      40.486 -12.728   6.427  1.00  0.00    -0.058 N 
HETATM    2  H   UNL     1      40.598 -13.068   7.389  1.00  0.00     0.280 HD
HETATM    3  C   UNL     1      39.888 -13.904   5.686  1.00  0.00     0.270 C 
ENDROOT
BRANCH   1   4
HETATM    4  C   UNL     1      41.904 -12.383   5.958  1.00  0.00     0.337 C 
BRANCH   4   5
HETATM    5  C   UNL     1      42.844 -13.558   5.665  1.00  0.00     0.248 C 
HETATM    6  N   UNL     1      42.710 -14.618   6.543  1.00  0.00    -0.326 N 
HETATM    7  H   UNL     1      42.201 -14.481   7.406  1.00  0.00     0.169 HD
HETATM    8  O   UNL     1      43.627 -13.474   4.724  1.00  0.00    -0.271 OA
BRANCH   6   9
HETATM    9  C   UNL     1      43.299 -15.898   6.422  1.00  0.00     0.035 A 
HETATM   10  C   UNL     1      43.276 -16.664   5.251  1.00  0.00     0.043 A 
HETATM   11  C   UNL     1      43.824 -17.961   5.217  1.00  0.00    -0.005 A 
HETATM   12  C   UNL     1      44.422 -18.465   6.381  1.00  0.00     0.014 A 
HETATM   13  C   UNL     1      44.457 -17.705   7.550  1.00  0.00     0.003 A 
HETATM   14  C   UNL     1      43.887 -16.434   7.572  1.00  0.00     0.029 A 
BRANCH  11  15
HETATM   15  C   UNL     1      43.733 -18.748   3.984  1.00  0.00     0.074 A 
HETATM   16  C   UNL     1      43.134 -18.324   2.813  1.00  0.00     0.084 A 
HETATM   17  S   UNL     1      43.248 -19.537   1.606  1.00  0.00    -0.085 SA
HETATM   18  C   UNL     1      44.094 -20.538   2.713  1.00  0.00     0.071 A 
HETATM   19  C   UNL     1      44.546 -21.896   2.305  1.00  0.00     0.078 C 
HETATM   20  N   UNL     1      44.284 -20.022   3.909  1.00  0.00    -0.245 NA
ENDBRANCH  11  15
ENDBRANCH   6   9
ENDBRANCH   4   5
ENDBRANCH   1   4
BRANCH   1  21
HETATM   21  C   UNL     1      39.548 -11.525   6.528  1.00  0.00     0.337 C 
BRANCH  21  22
HETATM   22  C   UNL     1      39.580 -10.774   7.865  1.00  0.00     0.248 C 
HETATM   23  N   UNL     1      40.599 -11.172   8.715  1.00  0.00    -0.326 N 
HETATM   24  H   UNL     1      41.123 -12.013   8.494  1.00  0.00     0.169 HD
HETATM   25  O   UNL     1      38.770  -9.879   8.074  1.00  0.00    -0.271 OA
BRANCH  23  26
HETATM   26  C   UNL     1      40.892 -10.619   9.986  1.00  0.00     0.034 A 
HETATM   27  C   UNL     1      41.718  -9.515  10.189  1.00  0.00     0.032 A 
HETATM   28  C   UNL     1      41.936  -9.021  11.481  1.00  0.00     0.039 A 
HETATM   29  C   UNL     1      41.334  -9.614  12.590  1.00  0.00     0.078 A 
HETATM   30  C   UNL     1      40.529 -10.734  12.395  1.00  0.00     0.039 A 
HETATM   31  C   UNL     1      40.311 -11.232  11.103  1.00  0.00     0.032 A 
BRANCH  29  32
HETATM   32  O   UNL     1      41.619  -9.010  13.780  1.00  0.00    -0.255 OA
BRANCH  32  33
HETATM   33  C   UNL     1      42.706  -9.519  14.537  1.00  0.00     0.530 C 
HETATM   34  F   UNL     1      42.686 -10.869  14.570  1.00  0.00    -0.144 F 
HETATM   35  F   UNL     1      43.882  -9.100  14.023  1.00  0.00    -0.144 F 
HETATM   36  F   UNL     1      42.607  -9.061  15.802  1.00  0.00    -0.144 F 
ENDBRANCH  32  33
ENDBRANCH  29  32
ENDBRANCH  23  26
ENDBRANCH  21  22
ENDBRANCH   1  21
TORSDOF 9
ENDMDL
MODEL 9
REMARK VINA RESULT:      -8.6      6.175      9.160
REMARK  9 active torsions:
REMARK  status: ('A' for Active; 'I' for Inactive)
REMARK    1  A    between atoms: C_5  and  C_6 
REMARK    2  A    between atoms: C_8  and  N_9 
REMARK       I    between atoms: N_9  and  C_10 
REMARK    3  A    between atoms: C_10  and  C_11 
REMARK    4  A    between atoms: C_11  and  N_12 
REMARK    5  A    between atoms: N_12  and  C_14 
REMARK    6  A    between atoms: C_14  and  C_15 
REMARK       I    between atoms: C_15  and  N_16 
REMARK    7  A    between atoms: N_16  and  C_17 
REMARK    8  A    between atoms: C_20  and  O_21 
REMARK    9  A    between atoms: O_21  and  C_22 
ROOT
HETATM    1  N   UNL     1      40.945 -13.150   4.477  1.00  0.00    -0.058 N 
HETATM    2  H   UNL     1      41.700 -13.604   3.951  1.00  0.00     0.280 HD
HETATM    3  C   UNL     1      41.666 -12.335   5.529  1.00  0.00     0.270 C 
ENDROOT
BRANCH   1   4
HETATM    4  C   UNL     1      40.123 -14.300   5.070  1.00  0.00     0.337 C 
BRANCH   4   5
HETATM    5  C   UNL     1      40.896 -15.542   5.528  1.00  0.00     0.248 C 
HETATM    6  N   UNL     1      42.148 -15.669   4.955  1.00  0.00    -0.326 N 
HETATM    7  H   UNL     1      42.380 -15.104   4.149  1.00  0.00     0.169 HD
HETATM    8  O   UNL     1      40.366 -16.312   6.323  1.00  0.00    -0.271 OA
BRANCH   6   9
HETATM    9  C   UNL     1      43.153 -16.596   5.314  1.00  0.00     0.035 A 
HETATM   10  C   UNL     1      43.327 -17.842   4.702  1.00  0.00     0.043 A 
HETATM   11  C   UNL     1      44.307 -18.747   5.154  1.00  0.00    -0.005 A 
HETATM   12  C   UNL     1      45.131 -18.362   6.221  1.00  0.00     0.014 A 
HETATM   13  C   UNL     1      44.971 -17.118   6.832  1.00  0.00     0.003 A 
HETATM   14  C   UNL     1      43.979 -16.246   6.387  1.00  0.00     0.029 A 
BRANCH  11  15
HETATM   15  C   UNL     1      44.420 -20.062   4.516  1.00  0.00     0.074 A 
HETATM   16  C   UNL     1      44.733 -21.238   5.170  1.00  0.00     0.084 A 
HETATM   17  S   UNL     1      44.758 -22.550   4.066  1.00  0.00    -0.085 SA
HETATM   18  C   UNL     1      44.343 -21.472   2.798  1.00  0.00     0.071 A 
HETATM   19  C   UNL     1      44.187 -21.973   1.405  1.00  0.00     0.078 C 
HETATM   20  N   UNL     1      44.196 -20.213   3.152  1.00  0.00    -0.245 NA
ENDBRANCH  11  15
ENDBRANCH   6   9
ENDBRANCH   4   5
ENDBRANCH   1   4
BRANCH   1  21
HETATM   21  C   UNL     1      40.191 -12.301   3.453  1.00  0.00     0.337 C 
BRANCH  21  22
HETATM   22  C   UNL     1      39.776 -13.029   2.169  1.00  0.00     0.248 C 
HETATM   23  N   UNL     1      40.698 -12.932   1.139  1.00  0.00    -0.326 N 
HETATM   24  H   UNL     1      41.464 -12.272   1.227  1.00  0.00     0.169 HD
HETATM   25  O   UNL     1      38.727 -13.660   2.144  1.00  0.00    -0.271 OA
BRANCH  23  26
HETATM   26  C   UNL     1      40.597 -13.543  -0.134  1.00  0.00     0.034 A 
HETATM   27  C   UNL     1      41.111 -14.800  -0.444  1.00  0.00     0.032 A 
HETATM   28  C   UNL     1      40.946 -15.339  -1.726  1.00  0.00     0.039 A 
HETATM   29  C   UNL     1      40.264 -14.636  -2.720  1.00  0.00     0.078 A 
HETATM   30  C   UNL     1      39.771 -13.368  -2.423  1.00  0.00     0.039 A 
HETATM   31  C   UNL     1      39.937 -12.826  -1.140  1.00  0.00     0.032 A 
BRANCH  29  32
HETATM   32  O   UNL     1      40.161 -15.295  -3.909  1.00  0.00    -0.255 OA
BRANCH  32  33
HETATM   33  C   UNL     1      39.136 -16.267  -4.041  1.00  0.00     0.530 C 
HETATM   34  F   UNL     1      39.477 -17.420  -3.426  1.00  0.00    -0.144 F 
HETATM   35  F   UNL     1      37.976 -15.810  -3.524  1.00  0.00    -0.144 F 
HETATM   36  F   UNL     1      38.945 -16.525  -5.352  1.00  0.00    -0.144 F 
ENDBRANCH  32  33
ENDBRANCH  29  32
ENDBRANCH  23  26
ENDBRANCH  21  22
ENDBRANCH   1  21
TORSDOF 9
ENDMDL
MODEL 10
REMARK VINA RESULT:      -8.5      6.098     10.636
REMARK  9 active torsions:
REMARK  status: ('A' for Active; 'I' for Inactive)
REMARK    1  A    between atoms: C_5  and  C_6 
REMARK    2  A    between atoms: C_8  and  N_9 
REMARK       I    between atoms: N_9  and  C_10 
REMARK    3  A    between atoms: C_10  and  C_11 
REMARK    4  A    between atoms: C_11  and  N_12 
REMARK    5  A    between atoms: N_12  and  C_14 
REMARK    6  A    between atoms: C_14  and  C_15 
REMARK       I    between atoms: C_15  and  N_16 
REMARK    7  A    between atoms: N_16  and  C_17 
REMARK    8  A    between atoms: C_20  and  O_21 
REMARK    9  A    between atoms: O_21  and  C_22 
ROOT
HETATM    1  N   UNL     1      39.354 -12.491   3.588  1.00  0.00    -0.058 N 
HETATM    2  H   UNL     1      38.864 -13.227   4.109  1.00  0.00     0.280 HD
HETATM    3  C   UNL     1      38.531 -12.319   2.329  1.00  0.00     0.270 C 
ENDROOT
BRANCH   1   4
HETATM    4  C   UNL     1      40.753 -13.055   3.317  1.00  0.00     0.337 C 
BRANCH   4   5
HETATM    5  C   UNL     1      41.149 -14.325   4.079  1.00  0.00     0.248 C 
HETATM    6  N   UNL     1      42.499 -14.618   4.022  1.00  0.00    -0.326 N 
HETATM    7  H   UNL     1      43.077 -14.145   3.341  1.00  0.00     0.169 HD
HETATM    8  O   UNL     1      40.276 -14.974   4.647  1.00  0.00    -0.271 OA
BRANCH   6   9
HETATM    9  C   UNL     1      43.183 -15.606   4.768  1.00  0.00     0.035 A 
HETATM   10  C   UNL     1      43.427 -16.905   4.311  1.00  0.00     0.043 A 
HETATM   11  C   UNL     1      44.057 -17.861   5.132  1.00  0.00    -0.005 A 
HETATM   12  C   UNL     1      44.461 -17.475   6.418  1.00  0.00     0.014 A 
HETATM   13  C   UNL     1      44.229 -16.179   6.879  1.00  0.00     0.003 A 
HETATM   14  C   UNL     1      43.583 -15.254   6.062  1.00  0.00     0.029 A 
BRANCH  11  15
HETATM   15  C   UNL     1      44.247 -19.225   4.631  1.00  0.00     0.074 A 
HETATM   16  C   UNL     1      44.664 -20.301   5.392  1.00  0.00     0.084 A 
HETATM   17  S   UNL     1      44.753 -21.718   4.430  1.00  0.00    -0.085 SA
HETATM   18  C   UNL     1      44.223 -20.813   3.073  1.00  0.00     0.071 A 
HETATM   19  C   UNL     1      44.064 -21.469   1.747  1.00  0.00     0.078 C 
HETATM   20  N   UNL     1      43.994 -19.536   3.299  1.00  0.00    -0.245 NA
ENDBRANCH  11  15
ENDBRANCH   6   9
ENDBRANCH   4   5
ENDBRANCH   1   4
BRANCH   1  21
HETATM   21  C   UNL     1      39.337 -11.266   4.503  1.00  0.00     0.337 C 
BRANCH  21  22
HETATM   22  C   UNL     1      39.651 -11.541   5.978  1.00  0.00     0.248 C 
HETATM   23  N   UNL     1      40.616 -10.705   6.517  1.00  0.00    -0.326 N 
HETATM   24  H   UNL     1      41.158 -10.115   5.894  1.00  0.00     0.169 HD
HETATM   25  O   UNL     1      39.030 -12.410   6.577  1.00  0.00    -0.271 OA
BRANCH  23  26
HETATM   26  C   UNL     1      41.065 -10.703   7.861  1.00  0.00     0.034 A 
HETATM   27  C   UNL     1      40.251 -10.428   8.958  1.00  0.00     0.032 A 
HETATM   28  C   UNL     1      40.774 -10.470  10.257  1.00  0.00     0.039 A 
HETATM   29  C   UNL     1      42.113 -10.788  10.484  1.00  0.00     0.078 A 
HETATM   30  C   UNL     1      42.937 -11.038   9.389  1.00  0.00     0.039 A 
HETATM   31  C   UNL     1      42.416 -10.995   8.088  1.00  0.00     0.032 A 
BRANCH  29  32
HETATM   32  O   UNL     1      42.474 -10.814  11.800  1.00  0.00    -0.255 OA
BRANCH  32  33
HETATM   33  C   UNL     1      43.532  -9.963  12.212  1.00  0.00     0.530 C 
HETATM   34  F   UNL     1      43.564  -9.844  13.557  1.00  0.00    -0.144 F 
HETATM   35  F   UNL     1      44.720 -10.432  11.774  1.00  0.00    -0.144 F 
HETATM   36  F   UNL     1      43.337  -8.737  11.682  1.00  0.00    -0.144 F 
ENDBRANCH  32  33
ENDBRANCH  29  32
ENDBRANCH  23  26
ENDBRANCH  21  22
ENDBRANCH   1  21
TORSDOF 9
ENDMDL
