MODEL 1
REMARK VINA RESULT:      -9.7      0.000      0.000
REMARK  8 active torsions:
REMARK  status: ('A' for Active; 'I' for Inactive)
REMARK    1  A    between atoms: O_2  and  C_3 
REMARK    2  A    between atoms: C_5  and  N_6 
REMARK       I    between atoms: N_6  and  C_7 
REMARK    3  A    between atoms: C_7  and  C_8 
REMARK    4  A    between atoms: C_8  and  N_9 
REMARK       I    between atoms: N_15  and  C_16 
REMARK    5  A    between atoms: C_16  and  C_17 
REMARK    6  A    between atoms: C_17  and  C_18 
REMARK    7  A    between atoms: C_18  and  C_19 
REMARK    8  A    between atoms: N_28  and  C_29 
ROOT
HETATM    1  N   UNL     1      40.402 -10.986   5.248  1.00  0.00    -0.325 N 
HETATM    2  C   UNL     1      40.446 -12.356   5.269  1.00  0.00     0.250 C 
HETATM    3  O   UNL     1      40.157 -13.043   6.237  1.00  0.00    -0.270 OA
HETATM    4  C   UNL     1      40.941 -12.836   3.889  1.00  0.00     0.118 C 
HETATM    5  C   UNL     1      39.988 -13.929   3.382  1.00  0.00     0.061 C 
HETATM    6  C   UNL     1      40.235 -15.278   4.052  1.00  0.00     0.129 C 
HETATM    7  N   UNL     1      41.655 -15.615   4.066  1.00  0.00    -0.352 N 
HETATM    8  C   UNL     1      42.076 -16.786   3.453  1.00  0.00     0.220 C 
HETATM    9  O   UNL     1      41.306 -17.495   2.800  1.00  0.00    -0.273 OA
HETATM   10  C   UNL     1      42.505 -14.649   4.755  1.00  0.00     0.129 C 
HETATM   11  C   UNL     1      42.405 -13.281   4.084  1.00  0.00     0.061 C 
HETATM   12  N   UNL     1      40.849 -11.579   3.088  1.00  0.00    -0.346 N 
HETATM   13  C   UNL     1      40.547 -10.432   3.938  1.00  0.00     0.254 C 
ENDROOT
BRANCH  12  14
HETATM   14  C   UNL     1      41.109 -11.399   1.741  1.00  0.00     0.032 A 
HETATM   15  C   UNL     1      40.501 -10.361   1.006  1.00  0.00     0.029 A 
HETATM   16  C   UNL     1      40.739 -10.160  -0.362  1.00  0.00     0.002 A 
HETATM   17  C   UNL     1      41.605 -10.998  -1.047  1.00  0.00     0.000 A 
HETATM   18  C   UNL     1      42.224 -12.032  -0.362  1.00  0.00     0.002 A 
HETATM   19  C   UNL     1      41.973 -12.224   1.005  1.00  0.00     0.029 A 
ENDBRANCH  12  14
BRANCH   1  20
HETATM   20  C   UNL     1      40.149 -10.143   6.405  1.00  0.00     0.230 C 
BRANCH  20  21
HETATM   21  C   UNL     1      41.370  -9.829   7.275  1.00  0.00     0.240 C 
HETATM   22  N   UNL     1      41.601 -10.765   8.265  1.00  0.00    -0.326 N 
HETATM   23  H   UNL     1      40.907 -11.499   8.355  1.00  0.00     0.169 HD
HETATM   24  O   UNL     1      42.096  -8.883   6.984  1.00  0.00    -0.271 OA
BRANCH  22  25
HETATM   25  C   UNL     1      42.722 -10.862   9.115  1.00  0.00     0.037 A 
HETATM   26  C   UNL     1      43.851 -11.635   8.837  1.00  0.00     0.066 A 
HETATM   27  C   UNL     1      44.902 -11.734   9.759  1.00  0.00     0.070 A 
HETATM   28  C   UNL     1      44.845 -11.012  10.950  1.00  0.00     0.037 A 
HETATM   29  C   UNL     1      43.729 -10.223  11.230  1.00  0.00     0.005 A 
HETATM   30  C   UNL     1      42.670 -10.156  10.323  1.00  0.00     0.029 A 
BRANCH  27  31
HETATM   31  O   UNL     1      45.929 -12.556   9.378  1.00  0.00    -0.356 OA
HETATM   32  C   UNL     1      46.343 -12.464   8.020  1.00  0.00     0.210 C 
ENDBRANCH  27  31
ENDBRANCH  22  25
ENDBRANCH  20  21
ENDBRANCH   1  20
BRANCH   8  33
HETATM   33  C   UNL     1      43.510 -17.237   3.641  1.00  0.00     0.107 C 
BRANCH  33  34
HETATM   34  C   UNL     1      43.976 -18.011   2.410  1.00  0.00     0.047 C 
BRANCH  34  35
HETATM   35  C   UNL     1      44.134 -19.484   2.692  1.00  0.00    -0.058 A 
HETATM   36  C   UNL     1      44.671 -19.927   3.907  1.00  0.00     0.007 A 
HETATM   37  C   UNL     1      44.812 -21.292   4.161  1.00  0.00     0.001 A 
HETATM   38  C   UNL     1      44.426 -22.225   3.201  1.00  0.00     0.000 A 
HETATM   39  C   UNL     1      43.899 -21.794   1.984  1.00  0.00     0.001 A 
HETATM   40  C   UNL     1      43.756 -20.430   1.730  1.00  0.00     0.007 A 
ENDBRANCH  34  35
ENDBRANCH  33  34
ENDBRANCH   8  33
TORSDOF 8
ENDMDL
MODEL 2
REMARK VINA RESULT:      -9.3      1.998      2.782
REMARK  8 active torsions:
REMARK  status: ('A' for Active; 'I' for Inactive)
REMARK    1  A    between atoms: O_2  and  C_3 
REMARK    2  A    between atoms: C_5  and  N_6 
REMARK       I    between atoms: N_6  and  C_7 
REMARK    3  A    between atoms: C_7  and  C_8 
REMARK    4  A    between atoms: C_8  and  N_9 
REMARK       I    between atoms: N_15  and  C_16 
REMARK    5  A    between atoms: C_16  and  C_17 
REMARK    6  A    between atoms: C_17  and  C_18 
REMARK    7  A    between atoms: C_18  and  C_19 
REMARK    8  A    between atoms: N_28  and  C_29 
ROOT
HETATM    1  N   UNL     1      40.988 -10.916   5.403  1.00  0.00    -0.325 N 
HETATM    2  C   UNL     1      41.388 -12.203   5.655  1.00  0.00     0.250 C 
HETATM    3  O   UNL     1      42.075 -12.540   6.607  1.00  0.00    -0.270 OA
HETATM    4  C   UNL     1      40.844 -13.100   4.524  1.00  0.00     0.118 C 
HETATM    5  C   UNL     1      40.150 -14.315   5.156  1.00  0.00     0.061 C 
HETATM    6  C   UNL     1      41.141 -15.366   5.648  1.00  0.00     0.129 C 
HETATM    7  N   UNL     1      42.157 -15.654   4.639  1.00  0.00    -0.352 N 
HETATM    8  C   UNL     1      42.295 -16.954   4.174  1.00  0.00     0.220 C 
HETATM    9  O   UNL     1      41.514 -17.851   4.501  1.00  0.00    -0.273 OA
HETATM   10  C   UNL     1      42.948 -14.500   4.223  1.00  0.00     0.129 C 
HETATM   11  C   UNL     1      42.045 -13.430   3.615  1.00  0.00     0.061 C 
HETATM   12  N   UNL     1      39.882 -12.176   3.851  1.00  0.00    -0.346 N 
HETATM   13  C   UNL     1      39.997 -10.820   4.376  1.00  0.00     0.254 C 
ENDROOT
BRANCH  12  14
HETATM   14  C   UNL     1      39.036 -12.442   2.789  1.00  0.00     0.032 A 
HETATM   15  C   UNL     1      39.035 -13.695   2.143  1.00  0.00     0.029 A 
HETATM   16  C   UNL     1      38.194 -13.988   1.059  1.00  0.00     0.002 A 
HETATM   17  C   UNL     1      37.315 -13.030   0.581  1.00  0.00     0.000 A 
HETATM   18  C   UNL     1      37.284 -11.784   1.188  1.00  0.00     0.002 A 
HETATM   19  C   UNL     1      38.134 -11.502   2.268  1.00  0.00     0.029 A 
ENDBRANCH  12  14
BRANCH   1  20
HETATM   20  C   UNL     1      41.434  -9.745   6.140  1.00  0.00     0.230 C 
BRANCH  20  21
HETATM   21  C   UNL     1      41.203  -9.788   7.653  1.00  0.00     0.240 C 
HETATM   22  N   UNL     1      42.246 -10.357   8.358  1.00  0.00    -0.326 N 
HETATM   23  H   UNL     1      42.999 -10.746   7.801  1.00  0.00     0.169 HD
HETATM   24  O   UNL     1      40.214  -9.240   8.132  1.00  0.00    -0.271 OA
BRANCH  22  25
HETATM   25  C   UNL     1      42.422 -10.395   9.757  1.00  0.00     0.037 A 
HETATM   26  C   UNL     1      41.374 -10.388  10.679  1.00  0.00     0.066 A 
HETATM   27  C   UNL     1      41.626 -10.362  12.057  1.00  0.00     0.070 A 
HETATM   28  C   UNL     1      42.941 -10.395  12.518  1.00  0.00     0.037 A 
HETATM   29  C   UNL     1      43.996 -10.419  11.606  1.00  0.00     0.005 A 
HETATM   30  C   UNL     1      43.738 -10.409  10.234  1.00  0.00     0.029 A 
BRANCH  27  31
HETATM   31  O   UNL     1      40.509 -10.318  12.847  1.00  0.00    -0.356 OA
HETATM   32  C   UNL     1      39.390  -9.613  12.324  1.00  0.00     0.210 C 
ENDBRANCH  27  31
ENDBRANCH  22  25
ENDBRANCH  20  21
ENDBRANCH   1  20
BRANCH   8  33
HETATM   33  C   UNL     1      43.473 -17.292   3.285  1.00  0.00     0.107 C 
BRANCH  33  34
HETATM   34  C   UNL     1      43.069 -18.358   2.270  1.00  0.00     0.047 C 
BRANCH  34  35
HETATM   35  C   UNL     1      43.637 -19.712   2.611  1.00  0.00    -0.058 A 
HETATM   36  C   UNL     1      44.328 -19.917   3.812  1.00  0.00     0.007 A 
HETATM   37  C   UNL     1      44.850 -21.174   4.121  1.00  0.00     0.001 A 
HETATM   38  C   UNL     1      44.692 -22.235   3.231  1.00  0.00     0.000 A 
HETATM   39  C   UNL     1      44.014 -22.039   2.029  1.00  0.00     0.001 A 
HETATM   40  C   UNL     1      43.491 -20.783   1.719  1.00  0.00     0.007 A 
ENDBRANCH  34  35
ENDBRANCH  33  34
ENDBRANCH   8  33
TORSDOF 8
ENDMDL
MODEL 3
REMARK VINA RESULT:      -9.2      3.370      8.129
REMARK  8 active torsions:
REMARK  status: ('A' for Active; 'I' for Inactive)
REMARK    1  A    between atoms: O_2  and  C_3 
REMARK    2  A    between atoms: C_5  and  N_6 
REMARK       I    between atoms: N_6  and  C_7 
REMARK    3  A    between atoms: C_7  and  C_8 
REMARK    4  A    between atoms: C_8  and  N_9 
REMARK       I    between atoms: N_15  and  C_16 
REMARK    5  A    between atoms: C_16  and  C_17 
REMARK    6  A    between atoms: C_17  and  C_18 
REMARK    7  A    between atoms: C_18  and  C_19 
REMARK    8  A    between atoms: N_28  and  C_29 
ROOT
HETATM    1  N   UNL     1      40.206 -11.933   2.183  1.00  0.00    -0.325 N 
HETATM    2  C   UNL     1      41.223 -12.801   2.487  1.00  0.00     0.250 C 
HETATM    3  O   UNL     1      41.975 -13.300   1.665  1.00  0.00    -0.270 OA
HETATM    4  C   UNL     1      41.208 -13.034   4.012  1.00  0.00     0.118 C 
HETATM    5  C   UNL     1      42.634 -12.840   4.549  1.00  0.00     0.061 C 
HETATM    6  C   UNL     1      43.532 -14.043   4.273  1.00  0.00     0.129 C 
HETATM    7  N   UNL     1      42.871 -15.295   4.630  1.00  0.00    -0.352 N 
HETATM    8  C   UNL     1      43.465 -16.126   5.569  1.00  0.00     0.220 C 
HETATM    9  O   UNL     1      44.473 -15.789   6.195  1.00  0.00    -0.273 OA
HETATM   10  C   UNL     1      41.616 -15.545   3.928  1.00  0.00     0.129 C 
HETATM   11  C   UNL     1      40.609 -14.437   4.231  1.00  0.00     0.061 C 
HETATM   12  N   UNL     1      40.274 -11.960   4.466  1.00  0.00    -0.346 N 
HETATM   13  C   UNL     1      39.633 -11.304   3.331  1.00  0.00     0.254 C 
ENDROOT
BRANCH  12  14
HETATM   14  C   UNL     1      39.910 -11.629   5.759  1.00  0.00     0.032 A 
HETATM   15  C   UNL     1      39.915 -10.293   6.208  1.00  0.00     0.029 A 
HETATM   16  C   UNL     1      39.559  -9.931   7.516  1.00  0.00     0.002 A 
HETATM   17  C   UNL     1      39.178 -10.902   8.427  1.00  0.00     0.000 A 
HETATM   18  C   UNL     1      39.158 -12.230   8.026  1.00  0.00     0.002 A 
HETATM   19  C   UNL     1      39.522 -12.578   6.717  1.00  0.00     0.029 A 
ENDBRANCH  12  14
BRANCH   1  20
HETATM   20  C   UNL     1      39.778 -11.590   0.836  1.00  0.00     0.230 C 
BRANCH  20  21
HETATM   21  C   UNL     1      39.147 -12.730   0.032  1.00  0.00     0.240 C 
HETATM   22  N   UNL     1      39.639 -12.840  -1.255  1.00  0.00    -0.326 N 
HETATM   23  H   UNL     1      40.292 -12.120  -1.545  1.00  0.00     0.169 HD
HETATM   24  O   UNL     1      38.373 -13.507   0.584  1.00  0.00    -0.271 OA
BRANCH  22  25
HETATM   25  C   UNL     1      39.397 -13.872  -2.185  1.00  0.00     0.037 A 
HETATM   26  C   UNL     1      38.201 -14.029  -2.888  1.00  0.00     0.066 A 
HETATM   27  C   UNL     1      38.008 -15.117  -3.749  1.00  0.00     0.070 A 
HETATM   28  C   UNL     1      39.043 -16.031  -3.948  1.00  0.00     0.037 A 
HETATM   29  C   UNL     1      40.248 -15.874  -3.264  1.00  0.00     0.005 A 
HETATM   30  C   UNL     1      40.420 -14.807  -2.380  1.00  0.00     0.029 A 
BRANCH  27  31
HETATM   31  O   UNL     1      36.776 -15.171  -4.344  1.00  0.00    -0.356 OA
HETATM   32  C   UNL     1      36.178 -13.925  -4.677  1.00  0.00     0.210 C 
ENDBRANCH  27  31
ENDBRANCH  22  25
ENDBRANCH  20  21
ENDBRANCH   1  20
BRANCH   8  33
HETATM   33  C   UNL     1      42.890 -17.509   5.790  1.00  0.00     0.107 C 
BRANCH  33  34
HETATM   34  C   UNL     1      43.986 -18.559   5.627  1.00  0.00     0.047 C 
BRANCH  34  35
HETATM   35  C   UNL     1      43.896 -19.273   4.301  1.00  0.00    -0.058 A 
HETATM   36  C   UNL     1      44.622 -20.449   4.072  1.00  0.00     0.007 A 
HETATM   37  C   UNL     1      44.532 -21.105   2.844  1.00  0.00     0.001 A 
HETATM   38  C   UNL     1      43.723 -20.589   1.832  1.00  0.00     0.000 A 
HETATM   39  C   UNL     1      43.004 -19.415   2.048  1.00  0.00     0.001 A 
HETATM   40  C   UNL     1      43.092 -18.758   3.276  1.00  0.00     0.007 A 
ENDBRANCH  34  35
ENDBRANCH  33  34
ENDBRANCH   8  33
TORSDOF 8
ENDMDL
MODEL 4
REMARK VINA RESULT:      -9.1      3.301     10.147
REMARK  8 active torsions:
REMARK  status: ('A' for Active; 'I' for Inactive)
REMARK    1  A    between atoms: O_2  and  C_3 
REMARK    2  A    between atoms: C_5  and  N_6 
REMARK       I    between atoms: N_6  and  C_7 
REMARK    3  A    between atoms: C_7  and  C_8 
REMARK    4  A    between atoms: C_8  and  N_9 
REMARK       I    between atoms: N_15  and  C_16 
REMARK    5  A    between atoms: C_16  and  C_17 
REMARK    6  A    between atoms: C_17  and  C_18 
REMARK    7  A    between atoms: C_18  and  C_19 
REMARK    8  A    between atoms: N_28  and  C_29 
ROOT
HETATM    1  N   UNL     1      41.678 -13.890   2.625  1.00  0.00    -0.325 N 
HETATM    2  C   UNL     1      40.869 -13.145   3.443  1.00  0.00     0.250 C 
HETATM    3  O   UNL     1      40.064 -12.314   3.049  1.00  0.00    -0.270 OA
HETATM    4  C   UNL     1      41.187 -13.528   4.903  1.00  0.00     0.118 C 
HETATM    5  C   UNL     1      39.866 -13.821   5.629  1.00  0.00     0.061 C 
HETATM    6  C   UNL     1      39.118 -12.549   6.021  1.00  0.00     0.129 C 
HETATM    7  N   UNL     1      40.007 -11.584   6.660  1.00  0.00    -0.352 N 
HETATM    8  C   UNL     1      39.717 -11.149   7.945  1.00  0.00     0.220 C 
HETATM    9  O   UNL     1      38.796 -11.635   8.607  1.00  0.00    -0.273 OA
HETATM   10  C   UNL     1      41.141 -11.163   5.843  1.00  0.00     0.129 C 
HETATM   11  C   UNL     1      42.013 -12.365   5.488  1.00  0.00     0.061 C 
HETATM   12  N   UNL     1      42.020 -14.753   4.712  1.00  0.00    -0.346 N 
HETATM   13  C   UNL     1      42.348 -14.955   3.305  1.00  0.00     0.254 C 
ENDROOT
BRANCH  12  14
HETATM   14  C   UNL     1      42.555 -15.586   5.678  1.00  0.00     0.032 A 
HETATM   15  C   UNL     1      43.918 -15.524   6.034  1.00  0.00     0.029 A 
HETATM   16  C   UNL     1      44.488 -16.363   7.003  1.00  0.00     0.002 A 
HETATM   17  C   UNL     1      43.706 -17.299   7.659  1.00  0.00     0.000 A 
HETATM   18  C   UNL     1      42.360 -17.394   7.340  1.00  0.00     0.002 A 
HETATM   19  C   UNL     1      41.804 -16.552   6.364  1.00  0.00     0.029 A 
ENDBRANCH  12  14
BRANCH   1  20
HETATM   20  C   UNL     1      41.807 -13.707   1.188  1.00  0.00     0.230 C 
BRANCH  20  21
HETATM   21  C   UNL     1      40.753 -14.416   0.334  1.00  0.00     0.240 C 
HETATM   22  N   UNL     1      40.730 -13.995  -0.982  1.00  0.00    -0.326 N 
HETATM   23  H   UNL     1      41.347 -13.224  -1.214  1.00  0.00     0.169 HD
HETATM   24  O   UNL     1      40.108 -15.346   0.812  1.00  0.00    -0.271 OA
BRANCH  22  25
HETATM   25  C   UNL     1      40.007 -14.558  -2.054  1.00  0.00     0.037 A 
HETATM   26  C   UNL     1      38.799 -14.050  -2.536  1.00  0.00     0.066 A 
HETATM   27  C   UNL     1      38.103 -14.699  -3.565  1.00  0.00     0.070 A 
HETATM   28  C   UNL     1      38.647 -15.841  -4.152  1.00  0.00     0.037 A 
HETATM   29  C   UNL     1      39.862 -16.347  -3.690  1.00  0.00     0.005 A 
HETATM   30  C   UNL     1      40.533 -15.715  -2.641  1.00  0.00     0.029 A 
BRANCH  27  31
HETATM   31  O   UNL     1      36.914 -14.117  -3.914  1.00  0.00    -0.356 OA
HETATM   32  C   UNL     1      36.864 -12.697  -3.859  1.00  0.00     0.210 C 
ENDBRANCH  27  31
ENDBRANCH  22  25
ENDBRANCH  20  21
ENDBRANCH   1  20
BRANCH   8  33
HETATM   33  C   UNL     1      40.517 -10.003   8.529  1.00  0.00     0.107 C 
BRANCH  33  34
HETATM   34  C   UNL     1      40.818 -10.277  10.000  1.00  0.00     0.047 C 
BRANCH  34  35
HETATM   35  C   UNL     1      42.286 -10.523  10.243  1.00  0.00    -0.058 A 
HETATM   36  C   UNL     1      43.112 -10.997   9.216  1.00  0.00     0.007 A 
HETATM   37  C   UNL     1      44.470 -11.221   9.448  1.00  0.00     0.001 A 
HETATM   38  C   UNL     1      45.013 -10.980  10.709  1.00  0.00     0.000 A 
HETATM   39  C   UNL     1      44.197 -10.516  11.741  1.00  0.00     0.001 A 
HETATM   40  C   UNL     1      42.840 -10.291  11.509  1.00  0.00     0.007 A 
ENDBRANCH  34  35
ENDBRANCH  33  34
ENDBRANCH   8  33
TORSDOF 8
ENDMDL
MODEL 5
REMARK VINA RESULT:      -9.1      2.709      9.401
REMARK  8 active torsions:
REMARK  status: ('A' for Active; 'I' for Inactive)
REMARK    1  A    between atoms: O_2  and  C_3 
REMARK    2  A    between atoms: C_5  and  N_6 
REMARK       I    between atoms: N_6  and  C_7 
REMARK    3  A    between atoms: C_7  and  C_8 
REMARK    4  A    between atoms: C_8  and  N_9 
REMARK       I    between atoms: N_15  and  C_16 
REMARK    5  A    between atoms: C_16  and  C_17 
REMARK    6  A    between atoms: C_17  and  C_18 
REMARK    7  A    between atoms: C_18  and  C_19 
REMARK    8  A    between atoms: N_28  and  C_29 
ROOT
HETATM    1  N   UNL     1      40.191 -15.874   2.546  1.00  0.00    -0.325 N 
HETATM    2  C   UNL     1      40.631 -15.338   3.730  1.00  0.00     0.250 C 
HETATM    3  O   UNL     1      40.076 -14.428   4.326  1.00  0.00    -0.270 OA
HETATM    4  C   UNL     1      41.932 -16.067   4.125  1.00  0.00     0.118 C 
HETATM    5  C   UNL     1      41.816 -16.510   5.591  1.00  0.00     0.061 C 
HETATM    6  C   UNL     1      42.043 -15.362   6.570  1.00  0.00     0.129 C 
HETATM    7  N   UNL     1      43.231 -14.590   6.221  1.00  0.00    -0.352 N 
HETATM    8  C   UNL     1      44.257 -14.474   7.149  1.00  0.00     0.220 C 
HETATM    9  O   UNL     1      44.246 -15.095   8.214  1.00  0.00    -0.273 OA
HETATM   10  C   UNL     1      43.204 -13.998   4.887  1.00  0.00     0.129 C 
HETATM   11  C   UNL     1      43.086 -15.089   3.825  1.00  0.00     0.061 C 
HETATM   12  N   UNL     1      41.927 -17.219   3.175  1.00  0.00    -0.346 N 
HETATM   13  C   UNL     1      40.867 -17.079   2.181  1.00  0.00     0.254 C 
ENDROOT
BRANCH  12  14
HETATM   14  C   UNL     1      42.826 -18.267   3.092  1.00  0.00     0.032 A 
HETATM   15  C   UNL     1      42.983 -19.011   1.905  1.00  0.00     0.029 A 
HETATM   16  C   UNL     1      43.881 -20.084   1.795  1.00  0.00     0.002 A 
HETATM   17  C   UNL     1      44.662 -20.450   2.879  1.00  0.00     0.000 A 
HETATM   18  C   UNL     1      44.539 -19.744   4.067  1.00  0.00     0.002 A 
HETATM   19  C   UNL     1      43.633 -18.677   4.164  1.00  0.00     0.029 A 
ENDBRANCH  12  14
BRANCH   1  20
HETATM   20  C   UNL     1      39.090 -15.351   1.753  1.00  0.00     0.230 C 
BRANCH  20  21
HETATM   21  C   UNL     1      39.442 -14.192   0.817  1.00  0.00     0.240 C 
HETATM   22  N   UNL     1      39.563 -14.565  -0.508  1.00  0.00    -0.326 N 
HETATM   23  H   UNL     1      39.484 -15.558  -0.699  1.00  0.00     0.169 HD
HETATM   24  O   UNL     1      39.477 -13.045   1.256  1.00  0.00    -0.271 OA
BRANCH  22  25
HETATM   25  C   UNL     1      39.708 -13.725  -1.631  1.00  0.00     0.037 A 
HETATM   26  C   UNL     1      40.929 -13.207  -2.069  1.00  0.00     0.066 A 
HETATM   27  C   UNL     1      40.989 -12.325  -3.156  1.00  0.00     0.070 A 
HETATM   28  C   UNL     1      39.822 -11.997  -3.844  1.00  0.00     0.037 A 
HETATM   29  C   UNL     1      38.599 -12.523  -3.426  1.00  0.00     0.005 A 
HETATM   30  C   UNL     1      38.541 -13.373  -2.320  1.00  0.00     0.029 A 
BRANCH  27  31
HETATM   31  O   UNL     1      42.243 -11.862  -3.455  1.00  0.00    -0.356 OA
HETATM   32  C   UNL     1      42.377 -11.136  -4.670  1.00  0.00     0.210 C 
ENDBRANCH  27  31
ENDBRANCH  22  25
ENDBRANCH  20  21
ENDBRANCH   1  20
BRANCH   8  33
HETATM   33  C   UNL     1      45.393 -13.513   6.868  1.00  0.00     0.107 C 
BRANCH  33  34
HETATM   34  C   UNL     1      45.985 -13.013   8.183  1.00  0.00     0.047 C 
BRANCH  34  35
HETATM   35  C   UNL     1      45.046 -12.087   8.915  1.00  0.00    -0.058 A 
HETATM   36  C   UNL     1      43.832 -11.696   8.336  1.00  0.00     0.007 A 
HETATM   37  C   UNL     1      42.967 -10.841   9.020  1.00  0.00     0.001 A 
HETATM   38  C   UNL     1      43.310 -10.363  10.284  1.00  0.00     0.000 A 
HETATM   39  C   UNL     1      44.521 -10.740  10.865  1.00  0.00     0.001 A 
HETATM   40  C   UNL     1      45.385 -11.595  10.182  1.00  0.00     0.007 A 
ENDBRANCH  34  35
ENDBRANCH  33  34
ENDBRANCH   8  33
TORSDOF 8
ENDMDL
MODEL 6
REMARK VINA RESULT:      -9.0      2.183      3.735
REMARK  8 active torsions:
REMARK  status: ('A' for Active; 'I' for Inactive)
REMARK    1  A    between atoms: O_2  and  C_3 
REMARK    2  A    between atoms: C_5  and  N_6 
REMARK       I    between atoms: N_6  and  C_7 
REMARK    3  A    between atoms: C_7  and  C_8 
REMARK    4  A    between atoms: C_8  and  N_9 
REMARK       I    between atoms: N_15  and  C_16 
REMARK    5  A    between atoms: C_16  and  C_17 
REMARK    6  A    between atoms: C_17  and  C_18 
REMARK    7  A    between atoms: C_18  and  C_19 
REMARK    8  A    between atoms: N_28  and  C_29 
ROOT
HETATM    1  N   UNL     1      43.774 -13.209   7.240  1.00  0.00    -0.325 N 
HETATM    2  C   UNL     1      43.563 -14.457   6.713  1.00  0.00     0.250 C 
HETATM    3  O   UNL     1      44.119 -15.474   7.100  1.00  0.00    -0.270 OA
HETATM    4  C   UNL     1      42.547 -14.321   5.561  1.00  0.00     0.118 C 
HETATM    5  C   UNL     1      41.446 -15.375   5.754  1.00  0.00     0.061 C 
HETATM    6  C   UNL     1      41.891 -16.772   5.330  1.00  0.00     0.129 C 
HETATM    7  N   UNL     1      42.543 -16.750   4.024  1.00  0.00    -0.352 N 
HETATM    8  C   UNL     1      42.015 -17.517   2.995  1.00  0.00     0.220 C 
HETATM    9  O   UNL     1      40.951 -18.128   3.116  1.00  0.00    -0.273 OA
HETATM   10  C   UNL     1      43.724 -15.897   3.945  1.00  0.00     0.129 C 
HETATM   11  C   UNL     1      43.353 -14.448   4.253  1.00  0.00     0.061 C 
HETATM   12  N   UNL     1      42.050 -12.928   5.768  1.00  0.00    -0.346 N 
HETATM   13  C   UNL     1      42.833 -12.234   6.785  1.00  0.00     0.254 C 
ENDROOT
BRANCH  12  14
HETATM   14  C   UNL     1      41.065 -12.255   5.067  1.00  0.00     0.032 A 
HETATM   15  C   UNL     1      39.720 -12.270   5.487  1.00  0.00     0.029 A 
HETATM   16  C   UNL     1      38.700 -11.603   4.791  1.00  0.00     0.002 A 
HETATM   17  C   UNL     1      38.996 -10.889   3.642  1.00  0.00     0.000 A 
HETATM   18  C   UNL     1      40.307 -10.848   3.193  1.00  0.00     0.002 A 
HETATM   19  C   UNL     1      41.316 -11.523   3.897  1.00  0.00     0.029 A 
ENDBRANCH  12  14
BRANCH   1  20
HETATM   20  C   UNL     1      44.787 -12.883   8.231  1.00  0.00     0.230 C 
BRANCH  20  21
HETATM   21  C   UNL     1      44.437 -11.735   9.181  1.00  0.00     0.240 C 
HETATM   22  N   UNL     1      43.379 -12.015  10.024  1.00  0.00    -0.326 N 
HETATM   23  H   UNL     1      42.910 -12.901   9.870  1.00  0.00     0.169 HD
HETATM   24  O   UNL     1      45.151 -10.736   9.217  1.00  0.00    -0.271 OA
BRANCH  22  25
HETATM   25  C   UNL     1      42.921 -11.250  11.117  1.00  0.00     0.037 A 
HETATM   26  C   UNL     1      41.574 -11.055  11.428  1.00  0.00     0.066 A 
HETATM   27  C   UNL     1      41.191 -10.229  12.493  1.00  0.00     0.070 A 
HETATM   28  C   UNL     1      42.169  -9.631  13.287  1.00  0.00     0.037 A 
HETATM   29  C   UNL     1      43.518  -9.833  12.996  1.00  0.00     0.005 A 
HETATM   30  C   UNL     1      43.892 -10.628  11.912  1.00  0.00     0.029 A 
BRANCH  27  31
HETATM   31  O   UNL     1      39.839 -10.094  12.662  1.00  0.00    -0.356 OA
HETATM   32  C   UNL     1      39.278  -8.837  12.306  1.00  0.00     0.210 C 
ENDBRANCH  27  31
ENDBRANCH  22  25
ENDBRANCH  20  21
ENDBRANCH   1  20
BRANCH   8  33
HETATM   33  C   UNL     1      42.801 -17.654   1.707  1.00  0.00     0.107 C 
BRANCH  33  34
HETATM   34  C   UNL     1      44.219 -18.130   2.013  1.00  0.00     0.047 C 
BRANCH  34  35
HETATM   35  C   UNL     1      44.252 -19.572   2.451  1.00  0.00    -0.058 A 
HETATM   36  C   UNL     1      43.827 -20.592   1.590  1.00  0.00     0.007 A 
HETATM   37  C   UNL     1      43.863 -21.925   2.001  1.00  0.00     0.001 A 
HETATM   38  C   UNL     1      44.317 -22.250   3.279  1.00  0.00     0.000 A 
HETATM   39  C   UNL     1      44.734 -21.242   4.146  1.00  0.00     0.001 A 
HETATM   40  C   UNL     1      44.699 -19.909   3.735  1.00  0.00     0.007 A 
ENDBRANCH  34  35
ENDBRANCH  33  34
ENDBRANCH   8  33
TORSDOF 8
ENDMDL
MODEL 7
REMARK VINA RESULT:      -8.9      1.352      2.032
REMARK  8 active torsions:
REMARK  status: ('A' for Active; 'I' for Inactive)
REMARK    1  A    between atoms: O_2  and  C_3 
REMARK    2  A    between atoms: C_5  and  N_6 
REMARK       I    between atoms: N_6  and  C_7 
REMARK    3  A    between atoms: C_7  and  C_8 
REMARK    4  A    between atoms: C_8  and  N_9 
REMARK       I    between atoms: N_15  and  C_16 
REMARK    5  A    between atoms: C_16  and  C_17 
REMARK    6  A    between atoms: C_17  and  C_18 
REMARK    7  A    between atoms: C_18  and  C_19 
REMARK    8  A    between atoms: N_28  and  C_29 
ROOT
HETATM    1  N   UNL     1      40.064 -11.162   3.369  1.00  0.00    -0.325 N 
HETATM    2  C   UNL     1      40.076 -12.530   3.465  1.00  0.00     0.250 C 
HETATM    3  O   UNL     1      39.518 -13.166   4.346  1.00  0.00    -0.270 OA
HETATM    4  C   UNL     1      40.924 -13.080   2.300  1.00  0.00     0.118 C 
HETATM    5  C   UNL     1      40.128 -14.192   1.600  1.00  0.00     0.061 C 
HETATM    6  C   UNL     1      40.155 -15.508   2.374  1.00  0.00     0.129 C 
HETATM    7  N   UNL     1      41.511 -15.850   2.795  1.00  0.00    -0.352 N 
HETATM    8  C   UNL     1      42.063 -17.052   2.378  1.00  0.00     0.220 C 
HETATM    9  O   UNL     1      41.490 -17.788   1.571  1.00  0.00    -0.273 OA
HETATM   10  C   UNL     1      42.154 -14.855   3.647  1.00  0.00     0.129 C 
HETATM   11  C   UNL     1      42.268 -13.521   2.911  1.00  0.00     0.061 C 
HETATM   12  N   UNL     1      41.079 -11.864   1.447  1.00  0.00    -0.346 N 
HETATM   13  C   UNL     1      40.575 -10.675   2.126  1.00  0.00     0.254 C 
ENDROOT
BRANCH  12  14
HETATM   14  C   UNL     1      41.704 -11.752   0.217  1.00  0.00     0.032 A 
HETATM   15  C   UNL     1      42.209 -10.519  -0.244  1.00  0.00     0.029 A 
HETATM   16  C   UNL     1      42.838 -10.375  -1.489  1.00  0.00     0.002 A 
HETATM   17  C   UNL     1      42.988 -11.471  -2.323  1.00  0.00     0.000 A 
HETATM   18  C   UNL     1      42.505 -12.703  -1.908  1.00  0.00     0.002 A 
HETATM   19  C   UNL     1      41.873 -12.832  -0.662  1.00  0.00     0.029 A 
ENDBRANCH  12  14
BRANCH   1  20
HETATM   20  C   UNL     1      39.517 -10.261   4.371  1.00  0.00     0.230 C 
BRANCH  20  21
HETATM   21  C   UNL     1      40.430  -9.966   5.564  1.00  0.00     0.240 C 
HETATM   22  N   UNL     1      40.027 -10.577   6.736  1.00  0.00    -0.326 N 
HETATM   23  H   UNL     1      39.147 -11.080   6.696  1.00  0.00     0.169 HD
HETATM   24  O   UNL     1      41.470  -9.335   5.392  1.00  0.00    -0.271 OA
BRANCH  22  25
HETATM   25  C   UNL     1      40.729 -10.647   7.957  1.00  0.00     0.037 A 
HETATM   26  C   UNL     1      42.120 -10.599   8.066  1.00  0.00     0.066 A 
HETATM   27  C   UNL     1      42.752 -10.739   9.309  1.00  0.00     0.070 A 
HETATM   28  C   UNL     1      41.981 -10.878  10.462  1.00  0.00     0.037 A 
HETATM   29  C   UNL     1      40.590 -10.910  10.367  1.00  0.00     0.005 A 
HETATM   30  C   UNL     1      39.968 -10.805   9.122  1.00  0.00     0.029 A 
BRANCH  27  31
HETATM   31  O   UNL     1      44.120 -10.712   9.267  1.00  0.00    -0.356 OA
HETATM   32  C   UNL     1      44.794 -10.767  10.518  1.00  0.00     0.210 C 
ENDBRANCH  27  31
ENDBRANCH  22  25
ENDBRANCH  20  21
ENDBRANCH   1  20
BRANCH   8  33
HETATM   33  C   UNL     1      43.380 -17.500   2.976  1.00  0.00     0.107 C 
BRANCH  33  34
HETATM   34  C   UNL     1      44.058 -18.502   2.046  1.00  0.00     0.047 C 
BRANCH  34  35
HETATM   35  C   UNL     1      44.293 -19.832   2.718  1.00  0.00    -0.058 A 
HETATM   36  C   UNL     1      44.128 -21.030   2.011  1.00  0.00     0.007 A 
HETATM   37  C   UNL     1      44.350 -22.256   2.639  1.00  0.00     0.001 A 
HETATM   38  C   UNL     1      44.730 -22.297   3.980  1.00  0.00     0.000 A 
HETATM   39  C   UNL     1      44.887 -21.110   4.694  1.00  0.00     0.001 A 
HETATM   40  C   UNL     1      44.667 -19.884   4.067  1.00  0.00     0.007 A 
ENDBRANCH  34  35
ENDBRANCH  33  34
ENDBRANCH   8  33
TORSDOF 8
ENDMDL
MODEL 8
REMARK VINA RESULT:      -8.9      1.326      2.120
REMARK  8 active torsions:
REMARK  status: ('A' for Active; 'I' for Inactive)
REMARK    1  A    between atoms: O_2  and  C_3 
REMARK    2  A    between atoms: C_5  and  N_6 
REMARK       I    between atoms: N_6  and  C_7 
REMARK    3  A    between atoms: C_7  and  C_8 
REMARK    4  A    between atoms: C_8  and  N_9 
REMARK       I    between atoms: N_15  and  C_16 
REMARK    5  A    between atoms: C_16  and  C_17 
REMARK    6  A    between atoms: C_17  and  C_18 
REMARK    7  A    between atoms: C_18  and  C_19 
REMARK    8  A    between atoms: N_28  and  C_29 
ROOT
HETATM    1  N   UNL     1      40.330 -10.933   4.984  1.00  0.00    -0.325 N 
HETATM    2  C   UNL     1      40.277 -12.295   4.833  1.00  0.00     0.250 C 
HETATM    3  O   UNL     1      39.899 -13.072   5.697  1.00  0.00    -0.270 OA
HETATM    4  C   UNL     1      40.799 -12.637   3.423  1.00  0.00     0.118 C 
HETATM    5  C   UNL     1      39.797 -13.586   2.749  1.00  0.00     0.061 C 
HETATM    6  C   UNL     1      39.919 -15.021   3.252  1.00  0.00     0.129 C 
HETATM    7  N   UNL     1      41.311 -15.461   3.274  1.00  0.00    -0.352 N 
HETATM    8  C   UNL     1      41.677 -16.577   2.534  1.00  0.00     0.220 C 
HETATM    9  O   UNL     1      40.889 -17.140   1.770  1.00  0.00    -0.273 OA
HETATM   10  C   UNL     1      42.194 -14.653   4.109  1.00  0.00     0.129 C 
HETATM   11  C   UNL     1      42.218 -13.209   3.612  1.00  0.00     0.061 C 
HETATM   12  N   UNL     1      40.830 -11.288   2.784  1.00  0.00    -0.346 N 
HETATM   13  C   UNL     1      40.571 -10.235   3.760  1.00  0.00     0.254 C 
ENDROOT
BRANCH  12  14
HETATM   14  C   UNL     1      41.161 -10.963   1.480  1.00  0.00     0.032 A 
HETATM   15  C   UNL     1      42.095 -11.721   0.745  1.00  0.00     0.029 A 
HETATM   16  C   UNL     1      42.455 -11.409  -0.575  1.00  0.00     0.002 A 
HETATM   17  C   UNL     1      41.884 -10.319  -1.211  1.00  0.00     0.000 A 
HETATM   18  C   UNL     1      40.961  -9.546  -0.524  1.00  0.00     0.002 A 
HETATM   19  C   UNL     1      40.614  -9.866   0.797  1.00  0.00     0.029 A 
ENDBRANCH  12  14
BRANCH   1  20
HETATM   20  C   UNL     1      40.084 -10.222   6.228  1.00  0.00     0.230 C 
BRANCH  20  21
HETATM   21  C   UNL     1      41.326  -9.906   7.066  1.00  0.00     0.240 C 
HETATM   22  N   UNL     1      41.582 -10.839   8.052  1.00  0.00    -0.326 N 
HETATM   23  H   UNL     1      40.890 -11.572   8.162  1.00  0.00     0.169 HD
HETATM   24  O   UNL     1      42.046  -8.961   6.754  1.00  0.00    -0.271 OA
BRANCH  22  25
HETATM   25  C   UNL     1      42.725 -10.934   8.874  1.00  0.00     0.037 A 
HETATM   26  C   UNL     1      43.837 -11.726   8.581  1.00  0.00     0.066 A 
HETATM   27  C   UNL     1      44.910 -11.821   9.477  1.00  0.00     0.070 A 
HETATM   28  C   UNL     1      44.893 -11.076  10.655  1.00  0.00     0.037 A 
HETATM   29  C   UNL     1      43.795 -10.268  10.949  1.00  0.00     0.005 A 
HETATM   30  C   UNL     1      42.713 -10.205  10.070  1.00  0.00     0.029 A 
BRANCH  27  31
HETATM   31  O   UNL     1      45.916 -12.662   9.084  1.00  0.00    -0.356 OA
HETATM   32  C   UNL     1      46.666 -12.264   7.942  1.00  0.00     0.210 C 
ENDBRANCH  27  31
ENDBRANCH  22  25
ENDBRANCH  20  21
ENDBRANCH   1  20
BRANCH   8  33
HETATM   33  C   UNL     1      43.066 -17.152   2.714  1.00  0.00     0.107 C 
BRANCH  33  34
HETATM   34  C   UNL     1      42.991 -18.445   3.522  1.00  0.00     0.047 C 
BRANCH  34  35
HETATM   35  C   UNL     1      43.360 -18.233   4.969  1.00  0.00    -0.058 A 
HETATM   36  C   UNL     1      44.677 -18.426   5.407  1.00  0.00     0.007 A 
HETATM   37  C   UNL     1      45.011 -18.226   6.747  1.00  0.00     0.001 A 
HETATM   38  C   UNL     1      44.033 -17.839   7.662  1.00  0.00     0.000 A 
HETATM   39  C   UNL     1      42.718 -17.654   7.238  1.00  0.00     0.001 A 
HETATM   40  C   UNL     1      42.383 -17.852   5.898  1.00  0.00     0.007 A 
ENDBRANCH  34  35
ENDBRANCH  33  34
ENDBRANCH   8  33
TORSDOF 8
ENDMDL
MODEL 9
REMARK VINA RESULT:      -8.8      3.968      7.809
REMARK  8 active torsions:
REMARK  status: ('A' for Active; 'I' for Inactive)
REMARK    1  A    between atoms: O_2  and  C_3 
REMARK    2  A    between atoms: C_5  and  N_6 
REMARK       I    between atoms: N_6  and  C_7 
REMARK    3  A    between atoms: C_7  and  C_8 
REMARK    4  A    between atoms: C_8  and  N_9 
REMARK       I    between atoms: N_15  and  C_16 
REMARK    5  A    between atoms: C_16  and  C_17 
REMARK    6  A    between atoms: C_17  and  C_18 
REMARK    7  A    between atoms: C_18  and  C_19 
REMARK    8  A    between atoms: N_28  and  C_29 
ROOT
HETATM    1  N   UNL     1      39.883 -13.923   3.734  1.00  0.00    -0.325 N 
HETATM    2  C   UNL     1      39.443 -14.276   2.484  1.00  0.00     0.250 C 
HETATM    3  O   UNL     1      39.150 -15.414   2.149  1.00  0.00    -0.270 OA
HETATM    4  C   UNL     1      39.420 -13.004   1.612  1.00  0.00     0.118 C 
HETATM    5  C   UNL     1      38.056 -12.917   0.911  1.00  0.00     0.061 C 
HETATM    6  C   UNL     1      37.950 -13.859  -0.284  1.00  0.00     0.129 C 
HETATM    7  N   UNL     1      39.126 -13.762  -1.144  1.00  0.00    -0.352 N 
HETATM    8  C   UNL     1      38.960 -13.407  -2.475  1.00  0.00     0.220 C 
HETATM    9  O   UNL     1      37.866 -13.060  -2.927  1.00  0.00    -0.273 OA
HETATM   10  C   UNL     1      40.391 -14.069  -0.486  1.00  0.00     0.129 C 
HETATM   11  C   UNL     1      40.636 -13.101   0.669  1.00  0.00     0.061 C 
HETATM   12  N   UNL     1      39.605 -11.937   2.641  1.00  0.00    -0.346 N 
HETATM   13  C   UNL     1      39.922 -12.510   3.945  1.00  0.00     0.254 C 
ENDROOT
BRANCH  12  14
HETATM   14  C   UNL     1      39.608 -10.565   2.464  1.00  0.00     0.032 A 
HETATM   15  C   UNL     1      40.748  -9.885   1.990  1.00  0.00     0.029 A 
HETATM   16  C   UNL     1      40.782  -8.494   1.810  1.00  0.00     0.002 A 
HETATM   17  C   UNL     1      39.663  -7.728   2.097  1.00  0.00     0.000 A 
HETATM   18  C   UNL     1      38.520  -8.358   2.565  1.00  0.00     0.002 A 
HETATM   19  C   UNL     1      38.502  -9.749   2.746  1.00  0.00     0.029 A 
ENDBRANCH  12  14
BRANCH   1  20
HETATM   20  C   UNL     1      40.205 -14.859   4.798  1.00  0.00     0.230 C 
BRANCH  20  21
HETATM   21  C   UNL     1      41.495 -15.662   4.606  1.00  0.00     0.240 C 
HETATM   22  N   UNL     1      41.295 -16.910   4.048  1.00  0.00    -0.326 N 
HETATM   23  H   UNL     1      40.329 -17.183   3.904  1.00  0.00     0.169 HD
HETATM   24  O   UNL     1      42.580 -15.133   4.836  1.00  0.00    -0.271 OA
BRANCH  22  25
HETATM   25  C   UNL     1      42.273 -17.817   3.590  1.00  0.00     0.037 A 
HETATM   26  C   UNL     1      43.079 -18.590   4.429  1.00  0.00     0.066 A 
HETATM   27  C   UNL     1      44.075 -19.423   3.903  1.00  0.00     0.070 A 
HETATM   28  C   UNL     1      44.234 -19.522   2.522  1.00  0.00     0.037 A 
HETATM   29  C   UNL     1      43.423 -18.768   1.674  1.00  0.00     0.005 A 
HETATM   30  C   UNL     1      42.455 -17.912   2.205  1.00  0.00     0.029 A 
BRANCH  27  31
HETATM   31  O   UNL     1      44.817 -20.095   4.838  1.00  0.00    -0.356 OA
HETATM   32  C   UNL     1      44.184 -20.351   6.085  1.00  0.00     0.210 C 
ENDBRANCH  27  31
ENDBRANCH  22  25
ENDBRANCH  20  21
ENDBRANCH   1  20
BRANCH   8  33
HETATM   33  C   UNL     1      40.145 -13.503  -3.413  1.00  0.00     0.107 C 
BRANCH  33  34
HETATM   34  C   UNL     1      40.514 -12.115  -3.928  1.00  0.00     0.047 C 
BRANCH  34  35
HETATM   35  C   UNL     1      41.354 -11.346  -2.939  1.00  0.00    -0.058 A 
HETATM   36  C   UNL     1      42.532 -11.897  -2.420  1.00  0.00     0.007 A 
HETATM   37  C   UNL     1      43.305 -11.178  -1.507  1.00  0.00     0.001 A 
HETATM   38  C   UNL     1      42.904  -9.907  -1.099  1.00  0.00     0.000 A 
HETATM   39  C   UNL     1      41.728  -9.354  -1.603  1.00  0.00     0.001 A 
HETATM   40  C   UNL     1      40.955 -10.070  -2.517  1.00  0.00     0.007 A 
ENDBRANCH  34  35
ENDBRANCH  33  34
ENDBRANCH   8  33
TORSDOF 8
ENDMDL
MODEL 10
REMARK VINA RESULT:      -8.7      2.690      5.007
REMARK  8 active torsions:
REMARK  status: ('A' for Active; 'I' for Inactive)
REMARK    1  A    between atoms: O_2  and  C_3 
REMARK    2  A    between atoms: C_5  and  N_6 
REMARK       I    between atoms: N_6  and  C_7 
REMARK    3  A    between atoms: C_7  and  C_8 
REMARK    4  A    between atoms: C_8  and  N_9 
REMARK       I    between atoms: N_15  and  C_16 
REMARK    5  A    between atoms: C_16  and  C_17 
REMARK    6  A    between atoms: C_17  and  C_18 
REMARK    7  A    between atoms: C_18  and  C_19 
REMARK    8  A    between atoms: N_28  and  C_29 
ROOT
HETATM    1  N   UNL     1      43.561 -13.279   6.963  1.00  0.00    -0.325 N 
HETATM    2  C   UNL     1      43.256 -14.428   6.279  1.00  0.00     0.250 C 
HETATM    3  O   UNL     1      43.754 -15.520   6.504  1.00  0.00    -0.270 OA
HETATM    4  C   UNL     1      42.221 -14.072   5.192  1.00  0.00     0.118 C 
HETATM    5  C   UNL     1      41.060 -15.074   5.277  1.00  0.00     0.061 C 
HETATM    6  C   UNL     1      41.403 -16.423   4.652  1.00  0.00     0.129 C 
HETATM    7  N   UNL     1      42.020 -16.260   3.339  1.00  0.00    -0.352 N 
HETATM    8  C   UNL     1      41.418 -16.845   2.234  1.00  0.00     0.220 C 
HETATM    9  O   UNL     1      40.319 -17.401   2.307  1.00  0.00    -0.273 OA
HETATM   10  C   UNL     1      43.251 -15.478   3.336  1.00  0.00     0.129 C 
HETATM   11  C   UNL     1      42.983 -14.065   3.851  1.00  0.00     0.061 C 
HETATM   12  N   UNL     1      41.820 -12.694   5.604  1.00  0.00    -0.346 N 
HETATM   13  C   UNL     1      42.672 -12.196   6.679  1.00  0.00     0.254 C 
ENDROOT
BRANCH  12  14
HETATM   14  C   UNL     1      40.863 -11.872   5.036  1.00  0.00     0.032 A 
HETATM   15  C   UNL     1      41.194 -10.603   4.518  1.00  0.00     0.029 A 
HETATM   16  C   UNL     1      40.243  -9.746   3.945  1.00  0.00     0.002 A 
HETATM   17  C   UNL     1      38.915 -10.134   3.866  1.00  0.00     0.000 A 
HETATM   18  C   UNL     1      38.547 -11.375   4.364  1.00  0.00     0.002 A 
HETATM   19  C   UNL     1      39.508 -12.220   4.939  1.00  0.00     0.029 A 
ENDBRANCH  12  14
BRANCH   1  20
HETATM   20  C   UNL     1      44.618 -13.155   7.953  1.00  0.00     0.230 C 
BRANCH  20  21
HETATM   21  C   UNL     1      44.569 -11.892   8.818  1.00  0.00     0.240 C 
HETATM   22  N   UNL     1      43.424 -11.789   9.586  1.00  0.00    -0.326 N 
HETATM   23  H   UNL     1      42.722 -12.506   9.437  1.00  0.00     0.169 HD
HETATM   24  O   UNL     1      45.545 -11.149   8.864  1.00  0.00    -0.271 OA
BRANCH  22  25
HETATM   25  C   UNL     1      43.149 -10.850  10.602  1.00  0.00     0.037 A 
HETATM   26  C   UNL     1      42.306  -9.748  10.444  1.00  0.00     0.066 A 
HETATM   27  C   UNL     1      42.130  -8.821  11.479  1.00  0.00     0.070 A 
HETATM   28  C   UNL     1      42.765  -9.024  12.703  1.00  0.00     0.037 A 
HETATM   29  C   UNL     1      43.596 -10.131  12.878  1.00  0.00     0.005 A 
HETATM   30  C   UNL     1      43.795 -11.032  11.831  1.00  0.00     0.029 A 
BRANCH  27  31
HETATM   31  O   UNL     1      41.308  -7.768  11.176  1.00  0.00    -0.356 OA
HETATM   32  C   UNL     1      39.910  -8.027  11.210  1.00  0.00     0.210 C 
ENDBRANCH  27  31
ENDBRANCH  22  25
ENDBRANCH  20  21
ENDBRANCH   1  20
BRANCH   8  33
HETATM   33  C   UNL     1      42.159 -16.850   0.913  1.00  0.00     0.107 C 
BRANCH  33  34
HETATM   34  C   UNL     1      41.346 -16.102  -0.140  1.00  0.00     0.047 C 
BRANCH  34  35
HETATM   35  C   UNL     1      41.024 -14.692   0.286  1.00  0.00    -0.058 A 
HETATM   36  C   UNL     1      39.731 -14.348   0.702  1.00  0.00     0.007 A 
HETATM   37  C   UNL     1      39.441 -13.041   1.097  1.00  0.00     0.001 A 
HETATM   38  C   UNL     1      40.437 -12.065   1.073  1.00  0.00     0.000 A 
HETATM   39  C   UNL     1      41.724 -12.396   0.652  1.00  0.00     0.001 A 
HETATM   40  C   UNL     1      42.016 -13.702   0.258  1.00  0.00     0.007 A 
ENDBRANCH  34  35
ENDBRANCH  33  34
ENDBRANCH   8  33
TORSDOF 8
ENDMDL
