MODEL 1
REMARK VINA RESULT:      -8.8      0.000      0.000
REMARK  5 active torsions:
REMARK  status: ('A' for Active; 'I' for Inactive)
REMARK    1  A    between atoms: C_6  and  N_7 
REMARK       I    between atoms: N_7  and  C_8 
REMARK    2  A    between atoms: C_8  and  C_9 
REMARK    3  A    between atoms: C_9  and  C_10 
REMARK    4  A    between atoms: C_13  and  O_14 
REMARK    5  A    between atoms: C_19  and  C_20 
ROOT
HETATM    1  C   UNL     1      44.208 -21.873   1.758  1.00  0.00     0.073 C 
HETATM    2  C   UNL     1      44.373 -21.254   3.097  1.00  0.00     0.065 A 
HETATM    3  N   UNL     1      44.898 -21.967   4.102  1.00  0.00    -0.177 NA
HETATM    4  N   UNL     1      44.915 -21.106   5.134  1.00  0.00    -0.262 N 
HETATM    5  H   UNL     1      45.278 -21.407   6.036  1.00  0.00     0.191 HD
HETATM    6  C   UNL     1      44.408 -19.868   4.834  1.00  0.00     0.137 A 
HETATM    7  C   UNL     1      44.045 -19.928   3.502  1.00  0.00     0.046 A 
ENDROOT
BRANCH   6   8
HETATM    8  N   UNL     1      44.311 -18.833   5.748  1.00  0.00    -0.311 N 
HETATM    9  C   UNL     1      43.882 -19.039   7.054  1.00  0.00     0.227 C 
HETATM   10  O   UNL     1      43.550 -20.137   7.497  1.00  0.00    -0.273 OA
HETATM   11  H   UNL     1      44.574 -17.906   5.435  1.00  0.00     0.170 HD
BRANCH   9  12
HETATM   12  C   UNL     1      43.947 -17.767   7.889  1.00  0.00     0.141 C 
BRANCH  12  13
HETATM   13  C   UNL     1      43.528 -16.504   7.173  1.00  0.00    -0.049 A 
HETATM   14  C   UNL     1      44.424 -15.440   7.020  1.00  0.00     0.010 A 
HETATM   15  C   UNL     1      44.046 -14.292   6.320  1.00  0.00     0.037 A 
HETATM   16  C   UNL     1      42.776 -14.189   5.751  1.00  0.00     0.068 A 
HETATM   17  C   UNL     1      41.872 -15.239   5.913  1.00  0.00     0.037 A 
HETATM   18  C   UNL     1      42.246 -16.388   6.621  1.00  0.00     0.010 A 
BRANCH  16  19
HETATM   19  O   UNL     1      42.541 -13.024   5.076  1.00  0.00    -0.356 OA
HETATM   20  C   UNL     1      42.481 -13.107   3.658  1.00  0.00     0.210 C 
ENDBRANCH  16  19
ENDBRANCH  12  13
ENDBRANCH   9  12
ENDBRANCH   6   8
BRANCH   7  21
HETATM   21  C   UNL     1      43.458 -18.837   2.750  1.00  0.00    -0.020 A 
HETATM   22  C   UNL     1      44.086 -18.350   1.596  1.00  0.00     0.014 A 
HETATM   23  C   UNL     1      43.516 -17.298   0.873  1.00  0.00     0.020 A 
HETATM   24  C   UNL     1      42.314 -16.739   1.301  1.00  0.00     0.011 A 
HETATM   25 BR   UNL     1      41.541 -15.318   0.323  1.00  0.00    -0.051 Br
HETATM   26  C   UNL     1      41.675 -17.221   2.441  1.00  0.00     0.020 A 
HETATM   27  C   UNL     1      42.247 -18.270   3.166  1.00  0.00     0.014 A 
ENDBRANCH   7  21
TORSDOF 5
ENDMDL
MODEL 2
REMARK VINA RESULT:      -8.3      3.818      7.074
REMARK  5 active torsions:
REMARK  status: ('A' for Active; 'I' for Inactive)
REMARK    1  A    between atoms: C_6  and  N_7 
REMARK       I    between atoms: N_7  and  C_8 
REMARK    2  A    between atoms: C_8  and  C_9 
REMARK    3  A    between atoms: C_9  and  C_10 
REMARK    4  A    between atoms: C_13  and  O_14 
REMARK    5  A    between atoms: C_19  and  C_20 
ROOT
HETATM    1  C   UNL     1      38.815 -11.624   2.825  1.00  0.00     0.073 C 
HETATM    2  C   UNL     1      38.889 -13.000   2.274  1.00  0.00     0.065 A 
HETATM    3  N   UNL     1      38.028 -13.386   1.324  1.00  0.00    -0.177 NA
HETATM    4  N   UNL     1      38.390 -14.653   1.056  1.00  0.00    -0.262 N 
HETATM    5  H   UNL     1      37.883 -15.184   0.351  1.00  0.00     0.191 HD
HETATM    6  C   UNL     1      39.445 -15.101   1.809  1.00  0.00     0.137 A 
HETATM    7  C   UNL     1      39.801 -14.039   2.618  1.00  0.00     0.046 A 
ENDROOT
BRANCH   6   8
HETATM    8  N   UNL     1      39.972 -16.377   1.713  1.00  0.00    -0.311 N 
HETATM    9  C   UNL     1      41.142 -16.641   1.012  1.00  0.00     0.227 C 
HETATM   10  O   UNL     1      41.793 -15.780   0.421  1.00  0.00    -0.273 OA
HETATM   11  H   UNL     1      39.476 -17.125   2.182  1.00  0.00     0.170 HD
BRANCH   9  12
HETATM   12  C   UNL     1      41.566 -18.100   1.126  1.00  0.00     0.141 C 
BRANCH  12  13
HETATM   13  C   UNL     1      42.558 -18.399   2.224  1.00  0.00    -0.049 A 
HETATM   14  C   UNL     1      42.656 -17.567   3.345  1.00  0.00     0.010 A 
HETATM   15  C   UNL     1      43.545 -17.872   4.378  1.00  0.00     0.037 A 
HETATM   16  C   UNL     1      44.342 -19.017   4.319  1.00  0.00     0.068 A 
HETATM   17  C   UNL     1      44.261 -19.842   3.197  1.00  0.00     0.037 A 
HETATM   18  C   UNL     1      43.376 -19.535   2.157  1.00  0.00     0.010 A 
BRANCH  16  19
HETATM   19  O   UNL     1      45.152 -19.209   5.403  1.00  0.00    -0.356 OA
HETATM   20  C   UNL     1      45.118 -18.207   6.411  1.00  0.00     0.210 C 
ENDBRANCH  16  19
ENDBRANCH  12  13
ENDBRANCH   9  12
ENDBRANCH   6   8
BRANCH   7  21
HETATM   21  C   UNL     1      40.879 -14.057   3.587  1.00  0.00    -0.020 A 
HETATM   22  C   UNL     1      40.679 -14.602   4.863  1.00  0.00     0.014 A 
HETATM   23  C   UNL     1      41.721 -14.618   5.794  1.00  0.00     0.020 A 
HETATM   24  C   UNL     1      42.965 -14.096   5.447  1.00  0.00     0.011 A 
HETATM   25 BR   UNL     1      44.376 -14.119   6.704  1.00  0.00    -0.051 Br
HETATM   26  C   UNL     1      43.179 -13.560   4.179  1.00  0.00     0.020 A 
HETATM   27  C   UNL     1      42.135 -13.541   3.249  1.00  0.00     0.014 A 
ENDBRANCH   7  21
TORSDOF 5
ENDMDL
MODEL 3
REMARK VINA RESULT:      -8.2      3.356      6.666
REMARK  5 active torsions:
REMARK  status: ('A' for Active; 'I' for Inactive)
REMARK    1  A    between atoms: C_6  and  N_7 
REMARK       I    between atoms: N_7  and  C_8 
REMARK    2  A    between atoms: C_8  and  C_9 
REMARK    3  A    between atoms: C_9  and  C_10 
REMARK    4  A    between atoms: C_13  and  O_14 
REMARK    5  A    between atoms: C_19  and  C_20 
ROOT
HETATM    1  C   UNL     1      39.546 -13.687   3.649  1.00  0.00     0.073 C 
HETATM    2  C   UNL     1      40.050 -14.773   2.772  1.00  0.00     0.065 A 
HETATM    3  N   UNL     1      39.673 -14.823   1.488  1.00  0.00    -0.177 NA
HETATM    4  N   UNL     1      40.319 -15.898   1.004  1.00  0.00    -0.262 N 
HETATM    5  H   UNL     1      40.202 -16.159   0.027  1.00  0.00     0.191 HD
HETATM    6  C   UNL     1      41.088 -16.549   1.933  1.00  0.00     0.137 A 
HETATM    7  C   UNL     1      40.938 -15.835   3.106  1.00  0.00     0.046 A 
ENDROOT
BRANCH   6   8
HETATM    8  N   UNL     1      41.825 -17.689   1.660  1.00  0.00    -0.311 N 
HETATM    9  C   UNL     1      43.188 -17.641   1.395  1.00  0.00     0.227 C 
HETATM   10  O   UNL     1      43.842 -16.600   1.374  1.00  0.00    -0.273 OA
HETATM   11  H   UNL     1      41.334 -18.576   1.665  1.00  0.00     0.170 HD
BRANCH   9  12
HETATM   12  C   UNL     1      43.789 -19.029   1.214  1.00  0.00     0.141 C 
BRANCH  12  13
HETATM   13  C   UNL     1      44.063 -19.785   2.492  1.00  0.00    -0.049 A 
HETATM   14  C   UNL     1      44.049 -19.127   3.728  1.00  0.00     0.010 A 
HETATM   15  C   UNL     1      44.260 -19.839   4.911  1.00  0.00     0.037 A 
HETATM   16  C   UNL     1      44.477 -21.218   4.885  1.00  0.00     0.068 A 
HETATM   17  C   UNL     1      44.508 -21.877   3.656  1.00  0.00     0.037 A 
HETATM   18  C   UNL     1      44.304 -21.165   2.468  1.00  0.00     0.010 A 
BRANCH  16  19
HETATM   19  O   UNL     1      44.649 -21.796   6.112  1.00  0.00    -0.356 OA
HETATM   20  C   UNL     1      43.812 -21.327   7.162  1.00  0.00     0.210 C 
ENDBRANCH  16  19
ENDBRANCH  12  13
ENDBRANCH   9  12
ENDBRANCH   6   8
BRANCH   7  21
HETATM   21  C   UNL     1      41.576 -16.162   4.366  1.00  0.00    -0.020 A 
HETATM   22  C   UNL     1      42.857 -15.678   4.662  1.00  0.00     0.014 A 
HETATM   23  C   UNL     1      43.468 -15.995   5.878  1.00  0.00     0.020 A 
HETATM   24  C   UNL     1      42.793 -16.790   6.802  1.00  0.00     0.011 A 
HETATM   25 BR   UNL     1      43.616 -17.217   8.449  1.00  0.00    -0.051 Br
HETATM   26  C   UNL     1      41.515 -17.269   6.524  1.00  0.00     0.020 A 
HETATM   27  C   UNL     1      40.906 -16.954   5.306  1.00  0.00     0.014 A 
ENDBRANCH   7  21
TORSDOF 5
ENDMDL
MODEL 4
REMARK VINA RESULT:      -7.9      3.443      7.195
REMARK  5 active torsions:
REMARK  status: ('A' for Active; 'I' for Inactive)
REMARK    1  A    between atoms: C_6  and  N_7 
REMARK       I    between atoms: N_7  and  C_8 
REMARK    2  A    between atoms: C_8  and  C_9 
REMARK    3  A    between atoms: C_9  and  C_10 
REMARK    4  A    between atoms: C_13  and  O_14 
REMARK    5  A    between atoms: C_19  and  C_20 
ROOT
HETATM    1  C   UNL     1      39.691 -12.722   6.170  1.00  0.00     0.073 C 
HETATM    2  C   UNL     1      39.968 -13.400   4.879  1.00  0.00     0.065 A 
HETATM    3  N   UNL     1      39.431 -12.926   3.748  1.00  0.00    -0.177 NA
HETATM    4  N   UNL     1      39.897 -13.755   2.797  1.00  0.00    -0.262 N 
HETATM    5  H   UNL     1      39.634 -13.607   1.826  1.00  0.00     0.191 HD
HETATM    6  C   UNL     1      40.703 -14.754   3.278  1.00  0.00     0.137 A 
HETATM    7  C   UNL     1      40.775 -14.550   4.643  1.00  0.00     0.046 A 
ENDROOT
BRANCH   6   8
HETATM    8  N   UNL     1      41.278 -15.730   2.482  1.00  0.00    -0.311 N 
HETATM    9  C   UNL     1      42.618 -15.689   2.116  1.00  0.00     0.227 C 
HETATM   10  O   UNL     1      43.391 -14.795   2.456  1.00  0.00    -0.273 OA
HETATM   11  H   UNL     1      40.685 -16.491   2.173  1.00  0.00     0.170 HD
BRANCH   9  12
HETATM   12  C   UNL     1      43.034 -16.916   1.315  1.00  0.00     0.141 C 
BRANCH  12  13
HETATM   13  C   UNL     1      43.480 -18.102   2.136  1.00  0.00    -0.049 A 
HETATM   14  C   UNL     1      43.590 -19.371   1.557  1.00  0.00     0.010 A 
HETATM   15  C   UNL     1      44.044 -20.456   2.311  1.00  0.00     0.037 A 
HETATM   16  C   UNL     1      44.408 -20.293   3.648  1.00  0.00     0.068 A 
HETATM   17  C   UNL     1      44.286 -19.035   4.237  1.00  0.00     0.037 A 
HETATM   18  C   UNL     1      43.824 -17.947   3.486  1.00  0.00     0.010 A 
BRANCH  16  19
HETATM   19  O   UNL     1      44.854 -21.429   4.264  1.00  0.00    -0.356 OA
HETATM   20  C   UNL     1      44.594 -22.660   3.602  1.00  0.00     0.210 C 
ENDBRANCH  16  19
ENDBRANCH  12  13
ENDBRANCH   9  12
ENDBRANCH   6   8
BRANCH   7  21
HETATM   21  C   UNL     1      41.526 -15.374   5.569  1.00  0.00    -0.020 A 
HETATM   22  C   UNL     1      40.983 -16.569   6.059  1.00  0.00     0.014 A 
HETATM   23  C   UNL     1      41.711 -17.361   6.951  1.00  0.00     0.020 A 
HETATM   24  C   UNL     1      42.986 -16.961   7.347  1.00  0.00     0.011 A 
HETATM   25 BR   UNL     1      43.973 -18.032   8.552  1.00  0.00    -0.051 Br
HETATM   26  C   UNL     1      43.541 -15.779   6.860  1.00  0.00     0.020 A 
HETATM   27  C   UNL     1      42.810 -14.986   5.970  1.00  0.00     0.014 A 
ENDBRANCH   7  21
TORSDOF 5
ENDMDL
MODEL 5
REMARK VINA RESULT:      -7.9      3.381      6.526
REMARK  5 active torsions:
REMARK  status: ('A' for Active; 'I' for Inactive)
REMARK    1  A    between atoms: C_6  and  N_7 
REMARK       I    between atoms: N_7  and  C_8 
REMARK    2  A    between atoms: C_8  and  C_9 
REMARK    3  A    between atoms: C_9  and  C_10 
REMARK    4  A    between atoms: C_13  and  O_14 
REMARK    5  A    between atoms: C_19  and  C_20 
ROOT
HETATM    1  C   UNL     1      39.038 -11.035   4.204  1.00  0.00     0.073 C 
HETATM    2  C   UNL     1      39.317 -12.229   5.041  1.00  0.00     0.065 A 
HETATM    3  N   UNL     1      39.120 -12.177   6.365  1.00  0.00    -0.177 NA
HETATM    4  N   UNL     1      39.449 -13.410   6.789  1.00  0.00    -0.262 N 
HETATM    5  H   UNL     1      39.383 -13.638   7.778  1.00  0.00     0.191 HD
HETATM    6  C   UNL     1      39.863 -14.250   5.787  1.00  0.00     0.137 A 
HETATM    7  C   UNL     1      39.785 -13.508   4.624  1.00  0.00     0.046 A 
ENDROOT
BRANCH   6   8
HETATM    8  N   UNL     1      40.266 -15.558   5.996  1.00  0.00    -0.311 N 
HETATM    9  C   UNL     1      41.600 -15.898   6.182  1.00  0.00     0.227 C 
HETATM   10  O   UNL     1      42.521 -15.083   6.167  1.00  0.00    -0.273 OA
HETATM   11  H   UNL     1      39.547 -16.271   6.018  1.00  0.00     0.170 HD
BRANCH   9  12
HETATM   12  C   UNL     1      41.780 -17.381   6.481  1.00  0.00     0.141 C 
BRANCH  12  13
HETATM   13  C   UNL     1      42.534 -18.163   5.432  1.00  0.00    -0.049 A 
HETATM   14  C   UNL     1      42.207 -18.039   4.077  1.00  0.00     0.010 A 
HETATM   15  C   UNL     1      42.936 -18.732   3.107  1.00  0.00     0.037 A 
HETATM   16  C   UNL     1      44.008 -19.550   3.469  1.00  0.00     0.068 A 
HETATM   17  C   UNL     1      44.328 -19.691   4.818  1.00  0.00     0.037 A 
HETATM   18  C   UNL     1      43.596 -19.003   5.794  1.00  0.00     0.010 A 
BRANCH  16  19
HETATM   19  O   UNL     1      44.648 -20.154   2.423  1.00  0.00    -0.356 OA
HETATM   20  C   UNL     1      44.188 -21.448   2.053  1.00  0.00     0.210 C 
ENDBRANCH  16  19
ENDBRANCH  12  13
ENDBRANCH   9  12
ENDBRANCH   6   8
BRANCH   7  21
HETATM   21  C   UNL     1      40.129 -13.995   3.303  1.00  0.00    -0.020 A 
HETATM   22  C   UNL     1      41.470 -14.120   2.917  1.00  0.00     0.014 A 
HETATM   23  C   UNL     1      41.797 -14.590   1.642  1.00  0.00     0.020 A 
HETATM   24  C   UNL     1      40.782 -14.943   0.756  1.00  0.00     0.011 A 
HETATM   25 BR   UNL     1      41.222 -15.582  -0.968  1.00  0.00    -0.051 Br
HETATM   26  C   UNL     1      39.444 -14.833   1.131  1.00  0.00     0.020 A 
HETATM   27  C   UNL     1      39.118 -14.359   2.405  1.00  0.00     0.014 A 
ENDBRANCH   7  21
TORSDOF 5
ENDMDL
MODEL 6
REMARK VINA RESULT:      -7.6      4.167      7.167
REMARK  5 active torsions:
REMARK  status: ('A' for Active; 'I' for Inactive)
REMARK    1  A    between atoms: C_6  and  N_7 
REMARK       I    between atoms: N_7  and  C_8 
REMARK    2  A    between atoms: C_8  and  C_9 
REMARK    3  A    between atoms: C_9  and  C_10 
REMARK    4  A    between atoms: C_13  and  O_14 
REMARK    5  A    between atoms: C_19  and  C_20 
ROOT
HETATM    1  C   UNL     1      37.959 -13.067  -0.286  1.00  0.00     0.073 C 
HETATM    2  C   UNL     1      39.137 -13.949  -0.482  1.00  0.00     0.065 A 
HETATM    3  N   UNL     1      39.314 -14.575  -1.652  1.00  0.00    -0.177 NA
HETATM    4  N   UNL     1      40.461 -15.256  -1.483  1.00  0.00    -0.262 N 
HETATM    5  H   UNL     1      40.827 -15.824  -2.243  1.00  0.00     0.191 HD
HETATM    6  C   UNL     1      41.022 -15.100  -0.242  1.00  0.00     0.137 A 
HETATM    7  C   UNL     1      40.181 -14.244   0.442  1.00  0.00     0.046 A 
ENDROOT
BRANCH   6   8
HETATM    8  N   UNL     1      42.194 -15.721   0.157  1.00  0.00    -0.311 N 
HETATM    9  C   UNL     1      42.203 -16.998   0.704  1.00  0.00     0.227 C 
HETATM   10  O   UNL     1      41.188 -17.670   0.884  1.00  0.00    -0.273 OA
HETATM   11  H   UNL     1      43.060 -15.211   0.031  1.00  0.00     0.170 HD
BRANCH   9  12
HETATM   12  C   UNL     1      43.615 -17.497   0.979  1.00  0.00     0.141 C 
BRANCH  12  13
HETATM   13  C   UNL     1      43.785 -18.276   2.262  1.00  0.00    -0.049 A 
HETATM   14  C   UNL     1      44.248 -19.597   2.239  1.00  0.00     0.010 A 
HETATM   15  C   UNL     1      44.445 -20.298   3.431  1.00  0.00     0.037 A 
HETATM   16  C   UNL     1      44.196 -19.693   4.665  1.00  0.00     0.068 A 
HETATM   17  C   UNL     1      43.720 -18.383   4.694  1.00  0.00     0.037 A 
HETATM   18  C   UNL     1      43.515 -17.680   3.500  1.00  0.00     0.010 A 
BRANCH  16  19
HETATM   19  O   UNL     1      44.448 -20.482   5.752  1.00  0.00    -0.356 OA
HETATM   20  C   UNL     1      44.776 -21.841   5.493  1.00  0.00     0.210 C 
ENDBRANCH  16  19
ENDBRANCH  12  13
ENDBRANCH   9  12
ENDBRANCH   6   8
BRANCH   7  21
HETATM   21  C   UNL     1      40.380 -13.794   1.805  1.00  0.00    -0.020 A 
HETATM   22  C   UNL     1      40.940 -12.536   2.064  1.00  0.00     0.014 A 
HETATM   23  C   UNL     1      41.131 -12.106   3.380  1.00  0.00     0.020 A 
HETATM   24  C   UNL     1      40.753 -12.931   4.437  1.00  0.00     0.011 A 
HETATM   25 BR   UNL     1      41.008 -12.349   6.217  1.00  0.00    -0.051 Br
HETATM   26  C   UNL     1      40.186 -14.180   4.193  1.00  0.00     0.020 A 
HETATM   27  C   UNL     1      40.000 -14.611   2.876  1.00  0.00     0.014 A 
ENDBRANCH   7  21
TORSDOF 5
ENDMDL
MODEL 7
REMARK VINA RESULT:      -7.5      2.914      5.451
REMARK  5 active torsions:
REMARK  status: ('A' for Active; 'I' for Inactive)
REMARK    1  A    between atoms: C_6  and  N_7 
REMARK       I    between atoms: N_7  and  C_8 
REMARK    2  A    between atoms: C_8  and  C_9 
REMARK    3  A    between atoms: C_9  and  C_10 
REMARK    4  A    between atoms: C_13  and  O_14 
REMARK    5  A    between atoms: C_19  and  C_20 
ROOT
HETATM    1  C   UNL     1      43.830 -19.215   8.434  1.00  0.00     0.073 C 
HETATM    2  C   UNL     1      43.768 -17.906   7.736  1.00  0.00     0.065 A 
HETATM    3  N   UNL     1      43.658 -16.776   8.447  1.00  0.00    -0.177 NA
HETATM    4  N   UNL     1      43.648 -15.808   7.513  1.00  0.00    -0.262 N 
HETATM    5  H   UNL     1      43.573 -14.834   7.798  1.00  0.00     0.191 HD
HETATM    6  C   UNL     1      43.735 -16.275   6.227  1.00  0.00     0.137 A 
HETATM    7  C   UNL     1      43.819 -17.650   6.336  1.00  0.00     0.046 A 
ENDROOT
BRANCH   6   8
HETATM    8  N   UNL     1      43.724 -15.459   5.109  1.00  0.00    -0.311 N 
HETATM    9  C   UNL     1      42.588 -14.765   4.713  1.00  0.00     0.227 C 
HETATM   10  O   UNL     1      41.512 -14.822   5.306  1.00  0.00    -0.273 OA
HETATM   11  H   UNL     1      44.586 -15.375   4.583  1.00  0.00     0.170 HD
BRANCH   9  12
HETATM   12  C   UNL     1      42.851 -13.868   3.510  1.00  0.00     0.141 C 
BRANCH  12  13
HETATM   13  C   UNL     1      42.322 -14.384   2.193  1.00  0.00    -0.049 A 
HETATM   14  C   UNL     1      41.894 -13.497   1.198  1.00  0.00     0.010 A 
HETATM   15  C   UNL     1      41.446 -13.979  -0.034  1.00  0.00     0.037 A 
HETATM   16  C   UNL     1      41.429 -15.349  -0.302  1.00  0.00     0.068 A 
HETATM   17  C   UNL     1      41.840 -16.239   0.690  1.00  0.00     0.037 A 
HETATM   18  C   UNL     1      42.283 -15.760   1.929  1.00  0.00     0.010 A 
BRANCH  16  19
HETATM   19  O   UNL     1      40.989 -15.684  -1.551  1.00  0.00    -0.356 OA
HETATM   20  C   UNL     1      40.239 -14.699  -2.251  1.00  0.00     0.210 C 
ENDBRANCH  16  19
ENDBRANCH  12  13
ENDBRANCH   9  12
ENDBRANCH   6   8
BRANCH   7  21
HETATM   21  C   UNL     1      43.928 -18.568   5.219  1.00  0.00    -0.020 A 
HETATM   22  C   UNL     1      43.057 -18.465   4.127  1.00  0.00     0.014 A 
HETATM   23  C   UNL     1      43.165 -19.351   3.052  1.00  0.00     0.020 A 
HETATM   24  C   UNL     1      44.152 -20.336   3.066  1.00  0.00     0.011 A 
HETATM   25 BR   UNL     1      44.302 -21.533   1.612  1.00  0.00    -0.051 Br
HETATM   26  C   UNL     1      45.031 -20.442   4.142  1.00  0.00     0.020 A 
HETATM   27  C   UNL     1      44.919 -19.557   5.218  1.00  0.00     0.014 A 
ENDBRANCH   7  21
TORSDOF 5
ENDMDL
MODEL 8
REMARK VINA RESULT:      -7.4      3.924      6.456
REMARK  5 active torsions:
REMARK  status: ('A' for Active; 'I' for Inactive)
REMARK    1  A    between atoms: C_6  and  N_7 
REMARK       I    between atoms: N_7  and  C_8 
REMARK    2  A    between atoms: C_8  and  C_9 
REMARK    3  A    between atoms: C_9  and  C_10 
REMARK    4  A    between atoms: C_13  and  O_14 
REMARK    5  A    between atoms: C_19  and  C_20 
ROOT
HETATM    1  C   UNL     1      39.306 -12.872  -0.981  1.00  0.00     0.073 C 
HETATM    2  C   UNL     1      40.196 -14.058  -0.915  1.00  0.00     0.065 A 
HETATM    3  N   UNL     1      40.399 -14.801  -2.010  1.00  0.00    -0.177 NA
HETATM    4  N   UNL     1      41.251 -15.756  -1.599  1.00  0.00    -0.262 N 
HETATM    5  H   UNL     1      41.572 -16.464  -2.256  1.00  0.00     0.191 HD
HETATM    6  C   UNL     1      41.593 -15.662  -0.274  1.00  0.00     0.137 A 
HETATM    7  C   UNL     1      40.922 -14.555   0.206  1.00  0.00     0.046 A 
ENDROOT
BRANCH   6   8
HETATM    8  N   UNL     1      42.442 -16.549   0.366  1.00  0.00    -0.311 N 
HETATM    9  C   UNL     1      41.967 -17.558   1.194  1.00  0.00     0.227 C 
HETATM   10  O   UNL     1      40.774 -17.741   1.432  1.00  0.00    -0.273 OA
HETATM   11  H   UNL     1      43.437 -16.443   0.205  1.00  0.00     0.170 HD
BRANCH   9  12
HETATM   12  C   UNL     1      43.085 -18.455   1.709  1.00  0.00     0.141 C 
BRANCH  12  13
HETATM   13  C   UNL     1      43.387 -18.327   3.183  1.00  0.00    -0.049 A 
HETATM   14  C   UNL     1      44.042 -19.356   3.870  1.00  0.00     0.010 A 
HETATM   15  C   UNL     1      44.358 -19.215   5.224  1.00  0.00     0.037 A 
HETATM   16  C   UNL     1      44.037 -18.044   5.913  1.00  0.00     0.068 A 
HETATM   17  C   UNL     1      43.370 -17.021   5.239  1.00  0.00     0.037 A 
HETATM   18  C   UNL     1      43.046 -17.163   3.884  1.00  0.00     0.010 A 
BRANCH  16  19
HETATM   19  O   UNL     1      44.419 -18.027   7.225  1.00  0.00    -0.356 OA
HETATM   20  C   UNL     1      43.559 -17.349   8.132  1.00  0.00     0.210 C 
ENDBRANCH  16  19
ENDBRANCH  12  13
ENDBRANCH   9  12
ENDBRANCH   6   8
BRANCH   7  21
HETATM   21  C   UNL     1      40.987 -14.069   1.570  1.00  0.00    -0.020 A 
HETATM   22  C   UNL     1      39.921 -14.285   2.453  1.00  0.00     0.014 A 
HETATM   23  C   UNL     1      39.988 -13.815   3.768  1.00  0.00     0.020 A 
HETATM   24  C   UNL     1      41.126 -13.136   4.201  1.00  0.00     0.011 A 
HETATM   25 BR   UNL     1      41.219 -12.503   5.979  1.00  0.00    -0.051 Br
HETATM   26  C   UNL     1      42.196 -12.924   3.334  1.00  0.00     0.020 A 
HETATM   27  C   UNL     1      42.126 -13.390   2.019  1.00  0.00     0.014 A 
ENDBRANCH   7  21
TORSDOF 5
ENDMDL
MODEL 9
REMARK VINA RESULT:      -7.3      2.469      3.716
REMARK  5 active torsions:
REMARK  status: ('A' for Active; 'I' for Inactive)
REMARK    1  A    between atoms: C_6  and  N_7 
REMARK       I    between atoms: N_7  and  C_8 
REMARK    2  A    between atoms: C_8  and  C_9 
REMARK    3  A    between atoms: C_9  and  C_10 
REMARK    4  A    between atoms: C_13  and  O_14 
REMARK    5  A    between atoms: C_19  and  C_20 
ROOT
HETATM    1  C   UNL     1      43.776 -20.779   6.475  1.00  0.00     0.073 C 
HETATM    2  C   UNL     1      43.689 -19.430   7.087  1.00  0.00     0.065 A 
HETATM    3  N   UNL     1      43.988 -19.264   8.382  1.00  0.00    -0.177 NA
HETATM    4  N   UNL     1      43.822 -17.945   8.585  1.00  0.00    -0.262 N 
HETATM    5  H   UNL     1      43.992 -17.551   9.507  1.00  0.00     0.191 HD
HETATM    6  C   UNL     1      43.414 -17.259   7.470  1.00  0.00     0.137 A 
HETATM    7  C   UNL     1      43.321 -18.202   6.465  1.00  0.00     0.046 A 
ENDROOT
BRANCH   6   8
HETATM    8  N   UNL     1      43.165 -15.897   7.454  1.00  0.00    -0.311 N 
HETATM    9  C   UNL     1      44.101 -14.981   6.989  1.00  0.00     0.227 C 
HETATM   10  O   UNL     1      45.214 -15.296   6.569  1.00  0.00    -0.273 OA
HETATM   11  H   UNL     1      42.262 -15.582   7.789  1.00  0.00     0.170 HD
BRANCH   9  12
HETATM   12  C   UNL     1      43.562 -13.556   6.988  1.00  0.00     0.141 C 
BRANCH  12  13
HETATM   13  C   UNL     1      42.631 -13.220   5.848  1.00  0.00    -0.049 A 
HETATM   14  C   UNL     1      42.752 -13.868   4.613  1.00  0.00     0.010 A 
HETATM   15  C   UNL     1      41.861 -13.584   3.575  1.00  0.00     0.037 A 
HETATM   16  C   UNL     1      40.829 -12.661   3.753  1.00  0.00     0.068 A 
HETATM   17  C   UNL     1      40.712 -12.000   4.976  1.00  0.00     0.037 A 
HETATM   18  C   UNL     1      41.608 -12.278   6.016  1.00  0.00     0.010 A 
BRANCH  16  19
HETATM   19  O   UNL     1      40.016 -12.492   2.667  1.00  0.00    -0.356 OA
HETATM   20  C   UNL     1      39.367 -13.654   2.167  1.00  0.00     0.210 C 
ENDBRANCH  16  19
ENDBRANCH  12  13
ENDBRANCH   9  12
ENDBRANCH   6   8
BRANCH   7  21
HETATM   21  C   UNL     1      42.921 -17.926   5.100  1.00  0.00    -0.020 A 
HETATM   22  C   UNL     1      41.589 -17.614   4.798  1.00  0.00     0.014 A 
HETATM   23  C   UNL     1      41.208 -17.349   3.480  1.00  0.00     0.020 A 
HETATM   24  C   UNL     1      42.161 -17.387   2.465  1.00  0.00     0.011 A 
HETATM   25 BR   UNL     1      41.648 -17.024   0.682  1.00  0.00    -0.051 Br
HETATM   26  C   UNL     1      43.491 -17.686   2.754  1.00  0.00     0.020 A 
HETATM   27  C   UNL     1      43.871 -17.955   4.072  1.00  0.00     0.014 A 
ENDBRANCH   7  21
TORSDOF 5
ENDMDL
MODEL 10
REMARK VINA RESULT:      -7.2      2.810      5.559
REMARK  5 active torsions:
REMARK  status: ('A' for Active; 'I' for Inactive)
REMARK    1  A    between atoms: C_6  and  N_7 
REMARK       I    between atoms: N_7  and  C_8 
REMARK    2  A    between atoms: C_8  and  C_9 
REMARK    3  A    between atoms: C_9  and  C_10 
REMARK    4  A    between atoms: C_13  and  O_14 
REMARK    5  A    between atoms: C_19  and  C_20 
ROOT
HETATM    1  C   UNL     1      43.624 -17.399   8.275  1.00  0.00     0.073 C 
HETATM    2  C   UNL     1      43.814 -17.612   6.818  1.00  0.00     0.065 A 
HETATM    3  N   UNL     1      44.612 -18.597   6.386  1.00  0.00    -0.177 NA
HETATM    4  N   UNL     1      44.537 -18.509   5.047  1.00  0.00    -0.262 N 
HETATM    5  H   UNL     1      45.061 -19.162   4.468  1.00  0.00     0.191 HD
HETATM    6  C   UNL     1      43.729 -17.495   4.601  1.00  0.00     0.137 A 
HETATM    7  C   UNL     1      43.234 -16.886   5.738  1.00  0.00     0.046 A 
ENDROOT
BRANCH   6   8
HETATM    8  N   UNL     1      43.519 -17.210   3.262  1.00  0.00    -0.311 N 
HETATM    9  C   UNL     1      43.097 -18.178   2.359  1.00  0.00     0.227 C 
HETATM   10  O   UNL     1      42.886 -19.351   2.665  1.00  0.00    -0.273 OA
HETATM   11  H   UNL     1      43.679 -16.258   2.956  1.00  0.00     0.170 HD
BRANCH   9  12
HETATM   12  C   UNL     1      42.852 -17.603   0.970  1.00  0.00     0.141 C 
BRANCH  12  13
HETATM   13  C   UNL     1      41.756 -16.569   0.885  1.00  0.00    -0.049 A 
HETATM   14  C   UNL     1      40.799 -16.457   1.901  1.00  0.00     0.010 A 
HETATM   15  C   UNL     1      39.812 -15.470   1.838  1.00  0.00     0.037 A 
HETATM   16  C   UNL     1      39.769 -14.570   0.771  1.00  0.00     0.068 A 
HETATM   17  C   UNL     1      40.710 -14.686  -0.252  1.00  0.00     0.037 A 
HETATM   18  C   UNL     1      41.696 -15.679  -0.195  1.00  0.00     0.010 A 
BRANCH  16  19
HETATM   19  O   UNL     1      38.768 -13.643   0.842  1.00  0.00    -0.356 OA
HETATM   20  C   UNL     1      37.437 -14.128   0.716  1.00  0.00     0.210 C 
ENDBRANCH  16  19
ENDBRANCH  12  13
ENDBRANCH   9  12
ENDBRANCH   6   8
BRANCH   7  21
HETATM   21  C   UNL     1      42.329 -15.754   5.748  1.00  0.00    -0.020 A 
HETATM   22  C   UNL     1      40.942 -15.953   5.765  1.00  0.00     0.014 A 
HETATM   23  C   UNL     1      40.073 -14.859   5.776  1.00  0.00     0.020 A 
HETATM   24  C   UNL     1      40.591 -13.566   5.778  1.00  0.00     0.011 A 
HETATM   25 BR   UNL     1      39.417 -12.085   5.795  1.00  0.00    -0.051 Br
HETATM   26  C   UNL     1      41.968 -13.355   5.771  1.00  0.00     0.020 A 
HETATM   27  C   UNL     1      42.837 -14.450   5.757  1.00  0.00     0.014 A 
ENDBRANCH   7  21
TORSDOF 5
ENDMDL
