MODEL 1
REMARK VINA RESULT:      -9.6      0.000      0.000
REMARK  8 active torsions:
REMARK  status: ('A' for Active; 'I' for Inactive)
REMARK    1  A    between atoms: C_4  and  S_5 
REMARK    2  A    between atoms: S_5  and  C_6 
REMARK    3  A    between atoms: C_6  and  C_7 
REMARK       I    between atoms: C_7  and  N_8 
REMARK    4  A    between atoms: N_8  and  C_9 
REMARK    5  A    between atoms: C_9  and  C_10 
REMARK    6  A    between atoms: C_20  and  C_21 
REMARK    7  A    between atoms: C_26  and  C_27 
REMARK       I    between atoms: C_27  and  N_28 
REMARK    8  A    between atoms: N_28  and  C_29 
ROOT
HETATM    1  C   UNL     1      42.619 -15.301   6.590  1.00  0.00     0.069 C 
HETATM    2  C   UNL     1      42.140 -14.315   5.548  1.00  0.00     0.019 C 
HETATM    3  N   UNL     1      41.538 -13.176   6.066  1.00  0.00    -0.353 N 
HETATM    4  C   UNL     1      41.202 -12.045   5.343  1.00  0.00     0.088 C 
HETATM    5  C   UNL     1      41.260 -12.107   3.991  1.00  0.00     0.071 C 
HETATM    6  C   UNL     1      40.973 -10.992   3.143  1.00  0.00     0.099 C 
HETATM    7  N   UNL     1      40.752 -10.101   2.433  1.00  0.00    -0.192 NA
HETATM    8  C   UNL     1      41.664 -13.409   3.283  1.00  0.00     0.130 C 
HETATM    9  C   UNL     1      42.271 -14.468   4.205  1.00  0.00     0.048 C 
HETATM   10  H   UNL     1      41.672 -13.040   7.061  1.00  0.00     0.166 HD
ENDROOT
BRANCH   4  11
HETATM   11  S   UNL     1      40.741 -10.528   6.129  1.00  0.00    -0.102 SA
BRANCH  11  12
HETATM   12  C   UNL     1      40.640 -10.991   7.878  1.00  0.00     0.183 C 
BRANCH  12  13
HETATM   13  C   UNL     1      41.823 -10.512   8.701  1.00  0.00     0.227 C 
HETATM   14  N   UNL     1      42.217 -11.324   9.738  1.00  0.00    -0.356 N 
HETATM   15  H   UNL     1      41.511 -11.933  10.139  1.00  0.00     0.162 HD
HETATM   16  O   UNL     1      42.446  -9.503   8.375  1.00  0.00    -0.273 OA
BRANCH  14  17
HETATM   17  C   UNL     1      43.337 -10.945  10.571  1.00  0.00     0.161 C 
BRANCH  17  18
HETATM   18  C   UNL     1      42.950 -10.566  11.979  1.00  0.00    -0.041 A 
HETATM   19  C   UNL     1      43.696  -9.664  12.752  1.00  0.00     0.009 A 
HETATM   20  C   UNL     1      43.274  -9.306  14.035  1.00  0.00     0.001 A 
HETATM   21  C   UNL     1      42.091  -9.827  14.553  1.00  0.00     0.000 A 
HETATM   22  C   UNL     1      41.325 -10.704  13.789  1.00  0.00     0.001 A 
HETATM   23  C   UNL     1      41.751 -11.069  12.511  1.00  0.00     0.009 A 
ENDBRANCH  17  18
ENDBRANCH  14  17
ENDBRANCH  12  13
ENDBRANCH  11  12
ENDBRANCH   4  11
BRANCH   8  24
HETATM   24  C   UNL     1      40.524 -13.974   2.473  1.00  0.00     0.066 A 
HETATM   25  O   UNL     1      40.557 -13.720   1.133  1.00  0.00    -0.326 OA
HETATM   26  C   UNL     1      39.468 -14.318   0.588  1.00  0.00     0.142 A 
HETATM   27  C   UNL     1      38.735 -14.959   1.558  1.00  0.00     0.027 A 
HETATM   28  C   UNL     1      39.418 -14.740   2.780  1.00  0.00     0.035 A 
ENDBRANCH   8  24
BRANCH   9  29
HETATM   29  C   UNL     1      43.044 -15.636   3.624  1.00  0.00     0.255 C 
HETATM   30  N   UNL     1      42.634 -16.902   3.992  1.00  0.00    -0.322 N 
HETATM   31  H   UNL     1      41.882 -17.016   4.663  1.00  0.00     0.169 HD
HETATM   32  O   UNL     1      43.955 -15.431   2.826  1.00  0.00    -0.268 OA
BRANCH  30  33
HETATM   33  C   UNL     1      43.139 -18.145   3.513  1.00  0.00     0.057 A 
HETATM   34  C   UNL     1      42.629 -18.659   2.302  1.00  0.00     0.062 A 
HETATM   35 CL   UNL     1      41.437 -17.794   1.395  1.00  0.00    -0.082 Cl
HETATM   36  C   UNL     1      43.091 -19.869   1.773  1.00  0.00     0.050 A 
HETATM   37  C   UNL     1      44.068 -20.585   2.454  1.00  0.00     0.035 A 
HETATM   38 CL   UNL     1      44.648 -22.070   1.809  1.00  0.00    -0.084 Cl
HETATM   39  C   UNL     1      44.582 -20.102   3.652  1.00  0.00     0.026 A 
HETATM   40  C   UNL     1      44.120 -18.890   4.178  1.00  0.00     0.033 A 
ENDBRANCH  30  33
ENDBRANCH   9  29
TORSDOF 8
ENDMDL
MODEL 2
REMARK VINA RESULT:      -9.4      1.031      1.489
REMARK  8 active torsions:
REMARK  status: ('A' for Active; 'I' for Inactive)
REMARK    1  A    between atoms: C_4  and  S_5 
REMARK    2  A    between atoms: S_5  and  C_6 
REMARK    3  A    between atoms: C_6  and  C_7 
REMARK       I    between atoms: C_7  and  N_8 
REMARK    4  A    between atoms: N_8  and  C_9 
REMARK    5  A    between atoms: C_9  and  C_10 
REMARK    6  A    between atoms: C_20  and  C_21 
REMARK    7  A    between atoms: C_26  and  C_27 
REMARK       I    between atoms: C_27  and  N_28 
REMARK    8  A    between atoms: N_28  and  C_29 
ROOT
HETATM    1  C   UNL     1      42.952 -15.377   6.563  1.00  0.00     0.069 C 
HETATM    2  C   UNL     1      42.427 -14.385   5.549  1.00  0.00     0.019 C 
HETATM    3  N   UNL     1      41.878 -13.235   6.100  1.00  0.00    -0.353 N 
HETATM    4  C   UNL     1      41.518 -12.099   5.396  1.00  0.00     0.088 C 
HETATM    5  C   UNL     1      41.491 -12.165   4.043  1.00  0.00     0.071 C 
HETATM    6  C   UNL     1      41.172 -11.047   3.210  1.00  0.00     0.099 C 
HETATM    7  N   UNL     1      40.923 -10.154   2.513  1.00  0.00    -0.192 NA
HETATM    8  C   UNL     1      41.828 -13.476   3.315  1.00  0.00     0.130 C 
HETATM    9  C   UNL     1      42.472 -14.543   4.201  1.00  0.00     0.048 C 
HETATM   10  H   UNL     1      42.076 -13.099   7.084  1.00  0.00     0.166 HD
ENDROOT
BRANCH   4  11
HETATM   11  S   UNL     1      41.132 -10.573   6.203  1.00  0.00    -0.102 SA
BRANCH  11  12
HETATM   12  C   UNL     1      39.434 -10.837   6.781  1.00  0.00     0.183 C 
BRANCH  12  13
HETATM   13  C   UNL     1      39.277 -10.695   8.284  1.00  0.00     0.227 C 
HETATM   14  N   UNL     1      40.218 -11.328   9.061  1.00  0.00    -0.356 N 
HETATM   15  H   UNL     1      40.682 -12.134   8.656  1.00  0.00     0.162 HD
HETATM   16  O   UNL     1      38.410  -9.962   8.758  1.00  0.00    -0.273 OA
BRANCH  14  17
HETATM   17  C   UNL     1      40.144 -11.243  10.503  1.00  0.00     0.161 C 
BRANCH  17  18
HETATM   18  C   UNL     1      41.442 -10.845  11.160  1.00  0.00    -0.041 A 
HETATM   19  C   UNL     1      41.617 -10.845  12.552  1.00  0.00     0.009 A 
HETATM   20  C   UNL     1      42.852 -10.514  13.114  1.00  0.00     0.001 A 
HETATM   21  C   UNL     1      43.934 -10.203  12.294  1.00  0.00     0.000 A 
HETATM   22  C   UNL     1      43.785 -10.224  10.910  1.00  0.00     0.001 A 
HETATM   23  C   UNL     1      42.548 -10.545  10.347  1.00  0.00     0.009 A 
ENDBRANCH  17  18
ENDBRANCH  14  17
ENDBRANCH  12  13
ENDBRANCH  11  12
ENDBRANCH   4  11
BRANCH   8  24
HETATM   24  C   UNL     1      40.630 -14.022   2.578  1.00  0.00     0.066 A 
HETATM   25  O   UNL     1      40.606 -13.808   1.232  1.00  0.00    -0.326 OA
HETATM   26  C   UNL     1      39.471 -14.381   0.758  1.00  0.00     0.142 A 
HETATM   27  C   UNL     1      38.765 -14.968   1.782  1.00  0.00     0.027 A 
HETATM   28  C   UNL     1      39.515 -14.739   2.962  1.00  0.00     0.035 A 
ENDBRANCH   8  24
BRANCH   9  29
HETATM   29  C   UNL     1      43.188 -15.726   3.578  1.00  0.00     0.255 C 
HETATM   30  N   UNL     1      42.803 -16.983   3.999  1.00  0.00    -0.322 N 
HETATM   31  H   UNL     1      42.109 -17.080   4.734  1.00  0.00     0.169 HD
HETATM   32  O   UNL     1      44.029 -15.540   2.702  1.00  0.00    -0.268 OA
BRANCH  30  33
HETATM   33  C   UNL     1      43.259 -18.237   3.502  1.00  0.00     0.057 A 
HETATM   34  C   UNL     1      42.711 -18.724   2.296  1.00  0.00     0.062 A 
HETATM   35 CL   UNL     1      41.530 -17.814   1.419  1.00  0.00    -0.082 Cl
HETATM   36  C   UNL     1      43.124 -19.943   1.748  1.00  0.00     0.050 A 
HETATM   37  C   UNL     1      44.091 -20.695   2.405  1.00  0.00     0.035 A 
HETATM   38 CL   UNL     1      44.611 -22.192   1.737  1.00  0.00    -0.084 Cl
HETATM   39  C   UNL     1      44.642 -20.239   3.597  1.00  0.00     0.026 A 
HETATM   40  C   UNL     1      44.229 -19.018   4.141  1.00  0.00     0.033 A 
ENDBRANCH  30  33
ENDBRANCH   9  29
TORSDOF 8
ENDMDL
MODEL 3
REMARK VINA RESULT:      -9.4      2.186      3.780
REMARK  8 active torsions:
REMARK  status: ('A' for Active; 'I' for Inactive)
REMARK    1  A    between atoms: C_4  and  S_5 
REMARK    2  A    between atoms: S_5  and  C_6 
REMARK    3  A    between atoms: C_6  and  C_7 
REMARK       I    between atoms: C_7  and  N_8 
REMARK    4  A    between atoms: N_8  and  C_9 
REMARK    5  A    between atoms: C_9  and  C_10 
REMARK    6  A    between atoms: C_20  and  C_21 
REMARK    7  A    between atoms: C_26  and  C_27 
REMARK       I    between atoms: C_27  and  N_28 
REMARK    8  A    between atoms: N_28  and  C_29 
ROOT
HETATM    1  C   UNL     1      41.921 -14.260   1.077  1.00  0.00     0.069 C 
HETATM    2  C   UNL     1      41.525 -14.029   2.518  1.00  0.00     0.019 C 
HETATM    3  N   UNL     1      41.214 -12.711   2.825  1.00  0.00    -0.353 N 
HETATM    4  C   UNL     1      40.635 -12.275   4.004  1.00  0.00     0.088 C 
HETATM    5  C   UNL     1      40.549 -13.148   5.037  1.00  0.00     0.071 C 
HETATM    6  C   UNL     1      39.938 -12.822   6.288  1.00  0.00     0.099 C 
HETATM    7  N   UNL     1      39.442 -12.584   7.309  1.00  0.00    -0.192 NA
HETATM    8  C   UNL     1      41.103 -14.574   4.906  1.00  0.00     0.130 C 
HETATM    9  C   UNL     1      41.448 -14.989   3.475  1.00  0.00     0.048 C 
HETATM   10  H   UNL     1      41.087 -12.106   2.022  1.00  0.00     0.166 HD
ENDROOT
BRANCH   4  11
HETATM   11  S   UNL     1      39.981 -10.641   4.183  1.00  0.00    -0.102 SA
BRANCH  11  12
HETATM   12  C   UNL     1      41.387  -9.711   4.850  1.00  0.00     0.183 C 
BRANCH  12  13
HETATM   13  C   UNL     1      41.261  -9.400   6.330  1.00  0.00     0.227 C 
HETATM   14  N   UNL     1      41.857 -10.286   7.195  1.00  0.00    -0.356 N 
HETATM   15  H   UNL     1      41.976 -11.239   6.868  1.00  0.00     0.162 HD
HETATM   16  O   UNL     1      40.740  -8.351   6.709  1.00  0.00    -0.273 OA
BRANCH  14  17
HETATM   17  C   UNL     1      41.786 -10.065   8.623  1.00  0.00     0.161 C 
BRANCH  17  18
HETATM   18  C   UNL     1      42.952 -10.636   9.389  1.00  0.00    -0.041 A 
HETATM   19  C   UNL     1      43.844 -11.564   8.830  1.00  0.00     0.009 A 
HETATM   20  C   UNL     1      44.939 -12.031   9.561  1.00  0.00     0.001 A 
HETATM   21  C   UNL     1      45.170 -11.560  10.852  1.00  0.00     0.000 A 
HETATM   22  C   UNL     1      44.310 -10.620  11.412  1.00  0.00     0.001 A 
HETATM   23  C   UNL     1      43.210 -10.160  10.686  1.00  0.00     0.009 A 
ENDBRANCH  17  18
ENDBRANCH  14  17
ENDBRANCH  12  13
ENDBRANCH  11  12
ENDBRANCH   4  11
BRANCH   8  24
HETATM   24  C   UNL     1      42.265 -14.804   5.840  1.00  0.00     0.066 A 
HETATM   25  O   UNL     1      42.194 -15.919   6.622  1.00  0.00    -0.326 OA
HETATM   26  C   UNL     1      43.326 -15.953   7.370  1.00  0.00     0.142 A 
HETATM   27  C   UNL     1      44.128 -14.875   7.077  1.00  0.00     0.027 A 
HETATM   28  C   UNL     1      43.445 -14.131   6.085  1.00  0.00     0.035 A 
ENDBRANCH   8  24
BRANCH   9  29
HETATM   29  C   UNL     1      41.651 -16.452   3.130  1.00  0.00     0.255 C 
HETATM   30  N   UNL     1      42.942 -16.938   3.197  1.00  0.00    -0.322 N 
HETATM   31  H   UNL     1      43.708 -16.309   3.417  1.00  0.00     0.169 HD
HETATM   32  O   UNL     1      40.682 -17.157   2.859  1.00  0.00    -0.268 OA
BRANCH  30  33
HETATM   33  C   UNL     1      43.368 -18.283   3.008  1.00  0.00     0.057 A 
HETATM   34  C   UNL     1      44.163 -18.886   4.007  1.00  0.00     0.062 A 
HETATM   35 CL   UNL     1      44.593 -18.027   5.446  1.00  0.00    -0.082 Cl
HETATM   36  C   UNL     1      44.605 -20.207   3.887  1.00  0.00     0.050 A 
HETATM   37  C   UNL     1      44.260 -20.944   2.760  1.00  0.00     0.035 A 
HETATM   38 CL   UNL     1      44.793 -22.572   2.605  1.00  0.00    -0.084 Cl
HETATM   39  C   UNL     1      43.483 -20.371   1.760  1.00  0.00     0.026 A 
HETATM   40  C   UNL     1      43.040 -19.049   1.884  1.00  0.00     0.033 A 
ENDBRANCH  30  33
ENDBRANCH   9  29
TORSDOF 8
ENDMDL
MODEL 4
REMARK VINA RESULT:      -9.3      3.973      8.701
REMARK  8 active torsions:
REMARK  status: ('A' for Active; 'I' for Inactive)
REMARK    1  A    between atoms: C_4  and  S_5 
REMARK    2  A    between atoms: S_5  and  C_6 
REMARK    3  A    between atoms: C_6  and  C_7 
REMARK       I    between atoms: C_7  and  N_8 
REMARK    4  A    between atoms: N_8  and  C_9 
REMARK    5  A    between atoms: C_9  and  C_10 
REMARK    6  A    between atoms: C_20  and  C_21 
REMARK    7  A    between atoms: C_26  and  C_27 
REMARK       I    between atoms: C_27  and  N_28 
REMARK    8  A    between atoms: N_28  and  C_29 
ROOT
HETATM    1  C   UNL     1      41.080 -16.889   3.215  1.00  0.00     0.069 C 
HETATM    2  C   UNL     1      41.728 -15.903   4.161  1.00  0.00     0.019 C 
HETATM    3  N   UNL     1      42.323 -16.479   5.274  1.00  0.00    -0.353 N 
HETATM    4  C   UNL     1      43.147 -15.825   6.175  1.00  0.00     0.088 C 
HETATM    5  C   UNL     1      43.224 -14.474   6.108  1.00  0.00     0.071 C 
HETATM    6  C   UNL     1      44.069 -13.696   6.960  1.00  0.00     0.099 C 
HETATM    7  N   UNL     1      44.750 -13.042   7.634  1.00  0.00    -0.192 NA
HETATM    8  C   UNL     1      42.398 -13.692   5.076  1.00  0.00     0.130 C 
HETATM    9  C   UNL     1      41.768 -14.557   3.984  1.00  0.00     0.048 C 
HETATM   10  H   UNL     1      42.437 -17.485   5.223  1.00  0.00     0.166 HD
ENDROOT
BRANCH   4  11
HETATM   11  S   UNL     1      44.115 -16.698   7.370  1.00  0.00    -0.102 SA
BRANCH  11  12
HETATM   12  C   UNL     1      43.201 -18.249   7.581  1.00  0.00     0.183 C 
BRANCH  12  13
HETATM   13  C   UNL     1      43.821 -19.423   6.844  1.00  0.00     0.227 C 
HETATM   14  N   UNL     1      44.695 -19.116   5.828  1.00  0.00    -0.356 N 
HETATM   15  H   UNL     1      44.576 -18.216   5.375  1.00  0.00     0.162 HD
HETATM   16  O   UNL     1      43.621 -20.577   7.221  1.00  0.00    -0.273 OA
BRANCH  14  17
HETATM   17  C   UNL     1      45.332 -20.174   5.075  1.00  0.00     0.161 C 
BRANCH  17  18
HETATM   18  C   UNL     1      44.648 -20.494   3.770  1.00  0.00    -0.041 A 
HETATM   19  C   UNL     1      44.651 -21.779   3.209  1.00  0.00     0.009 A 
HETATM   20  C   UNL     1      43.963 -22.040   2.022  1.00  0.00     0.001 A 
HETATM   21  C   UNL     1      43.245 -21.027   1.392  1.00  0.00     0.000 A 
HETATM   22  C   UNL     1      43.210 -19.752   1.949  1.00  0.00     0.001 A 
HETATM   23  C   UNL     1      43.905 -19.487   3.131  1.00  0.00     0.009 A 
ENDBRANCH  17  18
ENDBRANCH  14  17
ENDBRANCH  12  13
ENDBRANCH  11  12
ENDBRANCH   4  11
BRANCH   8  24
HETATM   24  C   UNL     1      41.371 -12.812   5.743  1.00  0.00     0.066 A 
HETATM   25  O   UNL     1      40.248 -13.438   6.197  1.00  0.00    -0.326 OA
HETATM   26  C   UNL     1      39.466 -12.489   6.771  1.00  0.00     0.142 A 
HETATM   27  C   UNL     1      40.073 -11.258   6.696  1.00  0.00     0.027 A 
HETATM   28  C   UNL     1      41.308 -11.464   6.034  1.00  0.00     0.035 A 
ENDBRANCH   8  24
BRANCH   9  29
HETATM   29  C   UNL     1      41.243 -13.921   2.711  1.00  0.00     0.255 C 
HETATM   30  N   UNL     1      42.088 -13.919   1.619  1.00  0.00    -0.322 N 
HETATM   31  H   UNL     1      43.031 -14.284   1.707  1.00  0.00     0.169 HD
HETATM   32  O   UNL     1      40.096 -13.485   2.673  1.00  0.00    -0.268 OA
BRANCH  30  33
HETATM   33  C   UNL     1      41.793 -13.465   0.301  1.00  0.00     0.057 A 
HETATM   34  C   UNL     1      41.463 -14.421  -0.683  1.00  0.00     0.062 A 
HETATM   35 CL   UNL     1      41.388 -16.107  -0.302  1.00  0.00    -0.082 Cl
HETATM   36  C   UNL     1      41.152 -14.040  -1.992  1.00  0.00     0.050 A 
HETATM   37  C   UNL     1      41.173 -12.694  -2.337  1.00  0.00     0.035 A 
HETATM   38 CL   UNL     1      40.787 -12.214  -3.942  1.00  0.00    -0.084 Cl
HETATM   39  C   UNL     1      41.500 -11.734  -1.386  1.00  0.00     0.026 A 
HETATM   40  C   UNL     1      41.808 -12.118  -0.076  1.00  0.00     0.033 A 
ENDBRANCH  30  33
ENDBRANCH   9  29
TORSDOF 8
ENDMDL
MODEL 5
REMARK VINA RESULT:      -9.2      3.525      9.413
REMARK  8 active torsions:
REMARK  status: ('A' for Active; 'I' for Inactive)
REMARK    1  A    between atoms: C_4  and  S_5 
REMARK    2  A    between atoms: S_5  and  C_6 
REMARK    3  A    between atoms: C_6  and  C_7 
REMARK       I    between atoms: C_7  and  N_8 
REMARK    4  A    between atoms: N_8  and  C_9 
REMARK    5  A    between atoms: C_9  and  C_10 
REMARK    6  A    between atoms: C_20  and  C_21 
REMARK    7  A    between atoms: C_26  and  C_27 
REMARK       I    between atoms: C_27  and  N_28 
REMARK    8  A    between atoms: N_28  and  C_29 
ROOT
HETATM    1  C   UNL     1      39.286 -10.007   5.453  1.00  0.00     0.069 C 
HETATM    2  C   UNL     1      40.256 -11.084   5.020  1.00  0.00     0.019 C 
HETATM    3  N   UNL     1      40.319 -11.285   3.649  1.00  0.00    -0.353 N 
HETATM    4  C   UNL     1      41.260 -12.058   2.991  1.00  0.00     0.088 C 
HETATM    5  C   UNL     1      42.063 -12.858   3.733  1.00  0.00     0.071 C 
HETATM    6  C   UNL     1      43.095 -13.671   3.168  1.00  0.00     0.099 C 
HETATM    7  N   UNL     1      43.944 -14.334   2.736  1.00  0.00    -0.192 NA
HETATM    8  C   UNL     1      41.912 -12.921   5.260  1.00  0.00     0.130 C 
HETATM    9  C   UNL     1      41.038 -11.817   5.855  1.00  0.00     0.048 C 
HETATM   10  H   UNL     1      39.875 -10.564   3.092  1.00  0.00     0.166 HD
ENDROOT
BRANCH   4  11
HETATM   11  S   UNL     1      41.464 -12.002   1.235  1.00  0.00    -0.102 SA
BRANCH  11  12
HETATM   12  C   UNL     1      40.392 -13.345   0.658  1.00  0.00     0.183 C 
BRANCH  12  13
HETATM   13  C   UNL     1      41.155 -14.528   0.089  1.00  0.00     0.227 C 
HETATM   14  N   UNL     1      41.372 -15.585   0.941  1.00  0.00    -0.356 N 
HETATM   15  H   UNL     1      41.388 -15.379   1.934  1.00  0.00     0.162 HD
HETATM   16  O   UNL     1      41.462 -14.562  -1.102  1.00  0.00    -0.273 OA
BRANCH  14  17
HETATM   17  C   UNL     1      42.090 -16.753   0.480  1.00  0.00     0.161 C 
BRANCH  17  18
HETATM   18  C   UNL     1      42.618 -17.624   1.591  1.00  0.00    -0.041 A 
HETATM   19  C   UNL     1      43.712 -18.486   1.423  1.00  0.00     0.009 A 
HETATM   20  C   UNL     1      44.196 -19.240   2.494  1.00  0.00     0.001 A 
HETATM   21  C   UNL     1      43.610 -19.126   3.752  1.00  0.00     0.000 A 
HETATM   22  C   UNL     1      42.540 -18.256   3.943  1.00  0.00     0.001 A 
HETATM   23  C   UNL     1      42.049 -17.509   2.871  1.00  0.00     0.009 A 
ENDBRANCH  17  18
ENDBRANCH  14  17
ENDBRANCH  12  13
ENDBRANCH  11  12
ENDBRANCH   4  11
BRANCH   8  24
HETATM   24  C   UNL     1      41.459 -14.287   5.715  1.00  0.00     0.066 A 
HETATM   25  O   UNL     1      42.416 -15.081   6.273  1.00  0.00    -0.326 OA
HETATM   26  C   UNL     1      41.812 -16.244   6.625  1.00  0.00     0.142 A 
HETATM   27  C   UNL     1      40.475 -16.208   6.305  1.00  0.00     0.027 A 
HETATM   28  C   UNL     1      40.243 -14.940   5.718  1.00  0.00     0.035 A 
ENDBRANCH   8  24
BRANCH   9  29
HETATM   29  C   UNL     1      41.085 -11.520   7.342  1.00  0.00     0.255 C 
HETATM   30  N   UNL     1      42.292 -11.091   7.857  1.00  0.00    -0.322 N 
HETATM   31  H   UNL     1      43.108 -11.038   7.255  1.00  0.00     0.169 HD
HETATM   32  O   UNL     1      40.063 -11.617   8.017  1.00  0.00    -0.268 OA
BRANCH  30  33
HETATM   33  C   UNL     1      42.560 -10.670   9.190  1.00  0.00     0.057 A 
HETATM   34  C   UNL     1      43.594 -11.309   9.905  1.00  0.00     0.062 A 
HETATM   35 CL   UNL     1      44.542 -12.561   9.178  1.00  0.00    -0.082 Cl
HETATM   36  C   UNL     1      43.915 -10.935  11.214  1.00  0.00     0.050 A 
HETATM   37  C   UNL     1      43.198  -9.915  11.829  1.00  0.00     0.035 A 
HETATM   38 CL   UNL     1      43.587  -9.443  13.435  1.00  0.00    -0.084 Cl
HETATM   39  C   UNL     1      42.170  -9.273  11.147  1.00  0.00     0.026 A 
HETATM   40  C   UNL     1      41.853  -9.649   9.836  1.00  0.00     0.033 A 
ENDBRANCH  30  33
ENDBRANCH   9  29
TORSDOF 8
ENDMDL
MODEL 6
REMARK VINA RESULT:      -9.1      4.236      7.981
REMARK  8 active torsions:
REMARK  status: ('A' for Active; 'I' for Inactive)
REMARK    1  A    between atoms: C_4  and  S_5 
REMARK    2  A    between atoms: S_5  and  C_6 
REMARK    3  A    between atoms: C_6  and  C_7 
REMARK       I    between atoms: C_7  and  N_8 
REMARK    4  A    between atoms: N_8  and  C_9 
REMARK    5  A    between atoms: C_9  and  C_10 
REMARK    6  A    between atoms: C_20  and  C_21 
REMARK    7  A    between atoms: C_26  and  C_27 
REMARK       I    between atoms: C_27  and  N_28 
REMARK    8  A    between atoms: N_28  and  C_29 
ROOT
HETATM    1  C   UNL     1      41.473 -14.858  -0.342  1.00  0.00     0.069 C 
HETATM    2  C   UNL     1      41.025 -14.279   0.982  1.00  0.00     0.019 C 
HETATM    3  N   UNL     1      40.627 -12.951   0.923  1.00  0.00    -0.353 N 
HETATM    4  C   UNL     1      39.991 -12.256   1.937  1.00  0.00     0.088 C 
HETATM    5  C   UNL     1      39.931 -12.827   3.165  1.00  0.00     0.071 C 
HETATM    6  C   UNL     1      39.267 -12.221   4.277  1.00  0.00     0.099 C 
HETATM    7  N   UNL     1      38.731 -11.754   5.194  1.00  0.00    -0.192 NA
HETATM    8  C   UNL     1      40.573 -14.197   3.424  1.00  0.00     0.130 C 
HETATM    9  C   UNL     1      40.981 -14.954   2.159  1.00  0.00     0.048 C 
HETATM   10  H   UNL     1      40.485 -12.590  -0.014  1.00  0.00     0.166 HD
ENDROOT
BRANCH   4  11
HETATM   11  S   UNL     1      39.234 -10.680   1.668  1.00  0.00    -0.102 SA
BRANCH  11  12
HETATM   12  C   UNL     1      40.568  -9.516   2.061  1.00  0.00     0.183 C 
BRANCH  12  13
HETATM   13  C   UNL     1      41.383  -9.098   0.850  1.00  0.00     0.227 C 
HETATM   14  N   UNL     1      42.496  -9.855   0.571  1.00  0.00    -0.356 N 
HETATM   15  H   UNL     1      42.925 -10.347   1.347  1.00  0.00     0.162 HD
HETATM   16  O   UNL     1      40.993  -8.194   0.113  1.00  0.00    -0.273 OA
BRANCH  14  17
HETATM   17  C   UNL     1      43.329  -9.528  -0.566  1.00  0.00     0.161 C 
BRANCH  17  18
HETATM   18  C   UNL     1      43.021 -10.334  -1.802  1.00  0.00    -0.041 A 
HETATM   19  C   UNL     1      42.948 -11.735  -1.795  1.00  0.00     0.009 A 
HETATM   20  C   UNL     1      42.613 -12.437  -2.954  1.00  0.00     0.001 A 
HETATM   21  C   UNL     1      42.322 -11.750  -4.130  1.00  0.00     0.000 A 
HETATM   22  C   UNL     1      42.364 -10.359  -4.149  1.00  0.00     0.001 A 
HETATM   23  C   UNL     1      42.708  -9.655  -2.993  1.00  0.00     0.009 A 
ENDBRANCH  17  18
ENDBRANCH  14  17
ENDBRANCH  12  13
ENDBRANCH  11  12
ENDBRANCH   4  11
BRANCH   8  24
HETATM   24  C   UNL     1      41.721 -14.093   4.397  1.00  0.00     0.066 A 
HETATM   25  O   UNL     1      42.958 -13.923   3.850  1.00  0.00    -0.326 OA
HETATM   26  C   UNL     1      43.841 -13.838   4.877  1.00  0.00     0.142 A 
HETATM   27  C   UNL     1      43.187 -13.946   6.082  1.00  0.00     0.027 A 
HETATM   28  C   UNL     1      41.814 -14.109   5.774  1.00  0.00     0.035 A 
ENDBRANCH   8  24
BRANCH   9  29
HETATM   29  C   UNL     1      41.282 -16.439   2.219  1.00  0.00     0.255 C 
HETATM   30  N   UNL     1      42.596 -16.803   2.432  1.00  0.00    -0.322 N 
HETATM   31  H   UNL     1      43.316 -16.090   2.489  1.00  0.00     0.169 HD
HETATM   32  O   UNL     1      40.366 -17.253   2.130  1.00  0.00    -0.268 OA
BRANCH  30  33
HETATM   33  C   UNL     1      43.108 -18.120   2.615  1.00  0.00     0.057 A 
HETATM   34  C   UNL     1      43.640 -18.468   3.874  1.00  0.00     0.062 A 
HETATM   35 CL   UNL     1      43.651 -17.338   5.184  1.00  0.00    -0.082 Cl
HETATM   36  C   UNL     1      44.148 -19.748   4.122  1.00  0.00     0.050 A 
HETATM   37  C   UNL     1      44.135 -20.697   3.107  1.00  0.00     0.035 A 
HETATM   38 CL   UNL     1      44.751 -22.275   3.401  1.00  0.00    -0.084 Cl
HETATM   39  C   UNL     1      43.621 -20.377   1.855  1.00  0.00     0.026 A 
HETATM   40  C   UNL     1      43.111 -19.096   1.612  1.00  0.00     0.033 A 
ENDBRANCH  30  33
ENDBRANCH   9  29
TORSDOF 8
ENDMDL
MODEL 7
REMARK VINA RESULT:      -9.1      4.039      8.609
REMARK  8 active torsions:
REMARK  status: ('A' for Active; 'I' for Inactive)
REMARK    1  A    between atoms: C_4  and  S_5 
REMARK    2  A    between atoms: S_5  and  C_6 
REMARK    3  A    between atoms: C_6  and  C_7 
REMARK       I    between atoms: C_7  and  N_8 
REMARK    4  A    between atoms: N_8  and  C_9 
REMARK    5  A    between atoms: C_9  and  C_10 
REMARK    6  A    between atoms: C_20  and  C_21 
REMARK    7  A    between atoms: C_26  and  C_27 
REMARK       I    between atoms: C_27  and  N_28 
REMARK    8  A    between atoms: N_28  and  C_29 
ROOT
HETATM    1  C   UNL     1      40.866 -16.119   1.561  1.00  0.00     0.069 C 
HETATM    2  C   UNL     1      40.711 -15.331   2.842  1.00  0.00     0.019 C 
HETATM    3  N   UNL     1      40.200 -14.052   2.673  1.00  0.00    -0.353 N 
HETATM    4  C   UNL     1      39.779 -13.213   3.690  1.00  0.00     0.088 C 
HETATM    5  C   UNL     1      40.071 -13.557   4.967  1.00  0.00     0.071 C 
HETATM    6  C   UNL     1      39.655 -12.790   6.099  1.00  0.00     0.099 C 
HETATM    7  N   UNL     1      39.324 -12.188   7.035  1.00  0.00    -0.192 NA
HETATM    8  C   UNL     1      40.872 -14.832   5.271  1.00  0.00     0.130 C 
HETATM    9  C   UNL     1      41.017 -15.786   4.085  1.00  0.00     0.048 C 
HETATM   10  H   UNL     1      39.802 -13.870   1.759  1.00  0.00     0.166 HD
ENDROOT
BRANCH   4  11
HETATM   11  S   UNL     1      38.849 -11.742   3.373  1.00  0.00    -0.102 SA
BRANCH  11  12
HETATM   12  C   UNL     1      39.240 -11.378   1.641  1.00  0.00     0.183 C 
BRANCH  12  13
HETATM   13  C   UNL     1      38.277 -12.015   0.655  1.00  0.00     0.227 C 
HETATM   14  N   UNL     1      38.787 -12.333  -0.581  1.00  0.00    -0.356 N 
HETATM   15  H   UNL     1      39.587 -11.797  -0.901  1.00  0.00     0.162 HD
HETATM   16  O   UNL     1      37.135 -12.317   0.999  1.00  0.00    -0.273 OA
BRANCH  14  17
HETATM   17  C   UNL     1      37.939 -12.944  -1.581  1.00  0.00     0.161 C 
BRANCH  17  18
HETATM   18  C   UNL     1      38.600 -14.065  -2.342  1.00  0.00    -0.041 A 
HETATM   19  C   UNL     1      39.911 -14.490  -2.077  1.00  0.00     0.009 A 
HETATM   20  C   UNL     1      40.466 -15.564  -2.776  1.00  0.00     0.001 A 
HETATM   21  C   UNL     1      39.713 -16.243  -3.731  1.00  0.00     0.000 A 
HETATM   22  C   UNL     1      38.403 -15.851  -3.988  1.00  0.00     0.001 A 
HETATM   23  C   UNL     1      37.849 -14.771  -3.297  1.00  0.00     0.009 A 
ENDBRANCH  17  18
ENDBRANCH  14  17
ENDBRANCH  12  13
ENDBRANCH  11  12
ENDBRANCH   4  11
BRANCH   8  24
HETATM   24  C   UNL     1      42.212 -14.510   5.885  1.00  0.00     0.066 A 
HETATM   25  O   UNL     1      42.808 -15.516   6.586  1.00  0.00    -0.326 OA
HETATM   26  C   UNL     1      43.994 -15.037   7.039  1.00  0.00     0.142 A 
HETATM   27  C   UNL     1      44.173 -13.735   6.635  1.00  0.00     0.027 A 
HETATM   28  C   UNL     1      43.021 -13.392   5.885  1.00  0.00     0.035 A 
ENDBRANCH   8  24
BRANCH   9  29
HETATM   29  C   UNL     1      41.448 -17.223   4.306  1.00  0.00     0.255 C 
HETATM   30  N   UNL     1      42.799 -17.491   4.223  1.00  0.00    -0.322 N 
HETATM   31  H   UNL     1      43.448 -16.751   3.972  1.00  0.00     0.169 HD
HETATM   32  O   UNL     1      40.611 -18.074   4.595  1.00  0.00    -0.268 OA
BRANCH  30  33
HETATM   33  C   UNL     1      43.450 -18.732   4.478  1.00  0.00     0.057 A 
HETATM   34  C   UNL     1      43.925 -19.482   3.381  1.00  0.00     0.062 A 
HETATM   35 CL   UNL     1      43.751 -18.904   1.760  1.00  0.00    -0.082 Cl
HETATM   36  C   UNL     1      44.581 -20.703   3.564  1.00  0.00     0.050 A 
HETATM   37  C   UNL     1      44.768 -21.194   4.851  1.00  0.00     0.035 A 
HETATM   38 CL   UNL     1      45.579 -22.691   5.088  1.00  0.00    -0.084 Cl
HETATM   39  C   UNL     1      44.304 -20.476   5.947  1.00  0.00     0.026 A 
HETATM   40  C   UNL     1      43.649 -19.253   5.761  1.00  0.00     0.033 A 
ENDBRANCH  30  33
ENDBRANCH   9  29
TORSDOF 8
ENDMDL
MODEL 8
REMARK VINA RESULT:      -9.1      3.726      9.670
REMARK  8 active torsions:
REMARK  status: ('A' for Active; 'I' for Inactive)
REMARK    1  A    between atoms: C_4  and  S_5 
REMARK    2  A    between atoms: S_5  and  C_6 
REMARK    3  A    between atoms: C_6  and  C_7 
REMARK       I    between atoms: C_7  and  N_8 
REMARK    4  A    between atoms: N_8  and  C_9 
REMARK    5  A    between atoms: C_9  and  C_10 
REMARK    6  A    between atoms: C_20  and  C_21 
REMARK    7  A    between atoms: C_26  and  C_27 
REMARK       I    between atoms: C_27  and  N_28 
REMARK    8  A    between atoms: N_28  and  C_29 
ROOT
HETATM    1  C   UNL     1      38.814 -11.223   7.169  1.00  0.00     0.069 C 
HETATM    2  C   UNL     1      39.885 -11.762   6.247  1.00  0.00     0.019 C 
HETATM    3  N   UNL     1      39.401 -12.401   5.114  1.00  0.00    -0.353 N 
HETATM    4  C   UNL     1      40.162 -12.798   4.028  1.00  0.00     0.088 C 
HETATM    5  C   UNL     1      41.511 -12.762   4.144  1.00  0.00     0.071 C 
HETATM    6  C   UNL     1      42.398 -13.111   3.077  1.00  0.00     0.099 C 
HETATM    7  N   UNL     1      43.138 -13.383   2.226  1.00  0.00    -0.192 NA
HETATM    8  C   UNL     1      42.174 -12.317   5.456  1.00  0.00     0.130 C 
HETATM    9  C   UNL     1      41.223 -11.649   6.450  1.00  0.00     0.048 C 
HETATM   10  H   UNL     1      38.415 -12.254   4.931  1.00  0.00     0.166 HD
ENDROOT
BRANCH   4  11
HETATM   11  S   UNL     1      39.429 -13.308   2.501  1.00  0.00    -0.102 SA
BRANCH  11  12
HETATM   12  C   UNL     1      39.370 -15.113   2.661  1.00  0.00     0.183 C 
BRANCH  12  13
HETATM   13  C   UNL     1      40.383 -15.832   1.789  1.00  0.00     0.227 C 
HETATM   14  N   UNL     1      40.970 -16.952   2.329  1.00  0.00    -0.356 N 
HETATM   15  H   UNL     1      41.018 -17.004   3.341  1.00  0.00     0.162 HD
HETATM   16  O   UNL     1      40.576 -15.476   0.628  1.00  0.00    -0.273 OA
BRANCH  14  17
HETATM   17  C   UNL     1      41.946 -17.699   1.565  1.00  0.00     0.161 C 
BRANCH  17  18
HETATM   18  C   UNL     1      42.848 -18.565   2.407  1.00  0.00    -0.041 A 
HETATM   19  C   UNL     1      43.510 -19.691   1.895  1.00  0.00     0.009 A 
HETATM   20  C   UNL     1      44.374 -20.438   2.700  1.00  0.00     0.001 A 
HETATM   21  C   UNL     1      44.606 -20.056   4.019  1.00  0.00     0.000 A 
HETATM   22  C   UNL     1      43.977 -18.926   4.536  1.00  0.00     0.001 A 
HETATM   23  C   UNL     1      43.106 -18.185   3.735  1.00  0.00     0.009 A 
ENDBRANCH  17  18
ENDBRANCH  14  17
ENDBRANCH  12  13
ENDBRANCH  11  12
ENDBRANCH   4  11
BRANCH   8  24
HETATM   24  C   UNL     1      42.938 -13.447   6.100  1.00  0.00     0.066 A 
HETATM   25  O   UNL     1      42.362 -14.681   6.023  1.00  0.00    -0.326 OA
HETATM   26  C   UNL     1      43.202 -15.551   6.640  1.00  0.00     0.142 A 
HETATM   27  C   UNL     1      44.314 -14.895   7.109  1.00  0.00     0.027 A 
HETATM   28  C   UNL     1      44.148 -13.532   6.759  1.00  0.00     0.035 A 
ENDBRANCH   8  24
BRANCH   9  29
HETATM   29  C   UNL     1      41.772 -10.838   7.608  1.00  0.00     0.255 C 
HETATM   30  N   UNL     1      41.637 -11.381   8.871  1.00  0.00    -0.322 N 
HETATM   31  H   UNL     1      41.142 -12.258   8.994  1.00  0.00     0.169 HD
HETATM   32  O   UNL     1      42.350  -9.777   7.392  1.00  0.00    -0.268 OA
BRANCH  30  33
HETATM   33  C   UNL     1      42.147 -10.857  10.093  1.00  0.00     0.057 A 
HETATM   34  C   UNL     1      41.292 -10.078  10.901  1.00  0.00     0.062 A 
HETATM   35 CL   UNL     1      39.651  -9.781  10.440  1.00  0.00    -0.082 Cl
HETATM   36  C   UNL     1      41.727  -9.543  12.118  1.00  0.00     0.050 A 
HETATM   37  C   UNL     1      43.030  -9.779  12.542  1.00  0.00     0.035 A 
HETATM   38 CL   UNL     1      43.574  -9.132  14.039  1.00  0.00    -0.084 Cl
HETATM   39  C   UNL     1      43.893 -10.539  11.761  1.00  0.00     0.026 A 
HETATM   40  C   UNL     1      43.454 -11.074  10.544  1.00  0.00     0.033 A 
ENDBRANCH  30  33
ENDBRANCH   9  29
TORSDOF 8
ENDMDL
MODEL 9
REMARK VINA RESULT:      -8.9      4.066      7.939
REMARK  8 active torsions:
REMARK  status: ('A' for Active; 'I' for Inactive)
REMARK    1  A    between atoms: C_4  and  S_5 
REMARK    2  A    between atoms: S_5  and  C_6 
REMARK    3  A    between atoms: C_6  and  C_7 
REMARK       I    between atoms: C_7  and  N_8 
REMARK    4  A    between atoms: N_8  and  C_9 
REMARK    5  A    between atoms: C_9  and  C_10 
REMARK    6  A    between atoms: C_20  and  C_21 
REMARK    7  A    between atoms: C_26  and  C_27 
REMARK       I    between atoms: C_27  and  N_28 
REMARK    8  A    between atoms: N_28  and  C_29 
ROOT
HETATM    1  C   UNL     1      41.874 -15.172   0.851  1.00  0.00     0.069 C 
HETATM    2  C   UNL     1      41.629 -14.598   2.228  1.00  0.00     0.019 C 
HETATM    3  N   UNL     1      41.339 -13.241   2.243  1.00  0.00    -0.353 N 
HETATM    4  C   UNL     1      40.883 -12.527   3.338  1.00  0.00     0.088 C 
HETATM    5  C   UNL     1      40.915 -13.128   4.553  1.00  0.00     0.071 C 
HETATM    6  C   UNL     1      40.436 -12.504   5.747  1.00  0.00     0.099 C 
HETATM    7  N   UNL     1      40.048 -12.023   6.729  1.00  0.00    -0.192 NA
HETATM    8  C   UNL     1      41.467 -14.553   4.708  1.00  0.00     0.130 C 
HETATM    9  C   UNL     1      41.663 -15.302   3.389  1.00  0.00     0.048 C 
HETATM   10  H   UNL     1      41.122 -12.842   1.337  1.00  0.00     0.166 HD
ENDROOT
BRANCH   4  11
HETATM   11  S   UNL     1      40.235 -10.888   3.191  1.00  0.00    -0.102 SA
BRANCH  11  12
HETATM   12  C   UNL     1      38.506 -11.174   2.729  1.00  0.00     0.183 C 
BRANCH  12  13
HETATM   13  C   UNL     1      38.344 -11.873   1.390  1.00  0.00     0.227 C 
HETATM   14  N   UNL     1      38.980 -11.294   0.317  1.00  0.00    -0.356 N 
HETATM   15  H   UNL     1      39.157 -10.297   0.371  1.00  0.00     0.162 HD
HETATM   16  O   UNL     1      37.760 -12.953   1.313  1.00  0.00    -0.273 OA
BRANCH  14  17
HETATM   17  C   UNL     1      38.880 -11.895  -0.995  1.00  0.00     0.161 C 
BRANCH  17  18
HETATM   18  C   UNL     1      40.203 -12.334  -1.569  1.00  0.00    -0.041 A 
HETATM   19  C   UNL     1      40.302 -13.221  -2.651  1.00  0.00     0.009 A 
HETATM   20  C   UNL     1      41.548 -13.563  -3.181  1.00  0.00     0.001 A 
HETATM   21  C   UNL     1      42.710 -13.005  -2.653  1.00  0.00     0.000 A 
HETATM   22  C   UNL     1      42.628 -12.102  -1.597  1.00  0.00     0.001 A 
HETATM   23  C   UNL     1      41.384 -11.767  -1.060  1.00  0.00     0.009 A 
ENDBRANCH  17  18
ENDBRANCH  14  17
ENDBRANCH  12  13
ENDBRANCH  11  12
ENDBRANCH   4  11
BRANCH   8  24
HETATM   24  C   UNL     1      42.723 -14.571   5.544  1.00  0.00     0.066 A 
HETATM   25  O   UNL     1      42.727 -15.432   6.600  1.00  0.00    -0.326 OA
HETATM   26  C   UNL     1      43.935 -15.311   7.208  1.00  0.00     0.142 A 
HETATM   27  C   UNL     1      44.712 -14.385   6.552  1.00  0.00     0.027 A 
HETATM   28  C   UNL     1      43.930 -13.906   5.472  1.00  0.00     0.035 A 
ENDBRANCH   8  24
BRANCH   9  29
HETATM   29  C   UNL     1      41.844 -16.808   3.384  1.00  0.00     0.255 C 
HETATM   30  N   UNL     1      43.064 -17.290   2.954  1.00  0.00    -0.322 N 
HETATM   31  H   UNL     1      43.771 -16.647   2.612  1.00  0.00     0.169 HD
HETATM   32  O   UNL     1      40.944 -17.533   3.799  1.00  0.00    -0.268 OA
BRANCH  30  33
HETATM   33  C   UNL     1      43.500 -18.646   2.943  1.00  0.00     0.057 A 
HETATM   34  C   UNL     1      44.221 -19.132   4.055  1.00  0.00     0.062 A 
HETATM   35 CL   UNL     1      44.549 -18.119   5.419  1.00  0.00    -0.082 Cl
HETATM   36  C   UNL     1      44.668 -20.456   4.111  1.00  0.00     0.050 A 
HETATM   37  C   UNL     1      44.403 -21.313   3.049  1.00  0.00     0.035 A 
HETATM   38 CL   UNL     1      44.942 -22.944   3.110  1.00  0.00    -0.084 Cl
HETATM   39  C   UNL     1      43.699 -20.856   1.940  1.00  0.00     0.026 A 
HETATM   40  C   UNL     1      43.251 -19.531   1.888  1.00  0.00     0.033 A 
ENDBRANCH  30  33
ENDBRANCH   9  29
TORSDOF 8
ENDMDL
MODEL 10
REMARK VINA RESULT:      -8.8      4.074     10.313
REMARK  8 active torsions:
REMARK  status: ('A' for Active; 'I' for Inactive)
REMARK    1  A    between atoms: C_4  and  S_5 
REMARK    2  A    between atoms: S_5  and  C_6 
REMARK    3  A    between atoms: C_6  and  C_7 
REMARK       I    between atoms: C_7  and  N_8 
REMARK    4  A    between atoms: N_8  and  C_9 
REMARK    5  A    between atoms: C_9  and  C_10 
REMARK    6  A    between atoms: C_20  and  C_21 
REMARK    7  A    between atoms: C_26  and  C_27 
REMARK       I    between atoms: C_27  and  N_28 
REMARK    8  A    between atoms: N_28  and  C_29 
ROOT
HETATM    1  C   UNL     1      44.572 -13.128   7.691  1.00  0.00     0.069 C 
HETATM    2  C   UNL     1      43.279 -12.583   7.129  1.00  0.00     0.019 C 
HETATM    3  N   UNL     1      42.858 -13.194   5.956  1.00  0.00    -0.353 N 
HETATM    4  C   UNL     1      41.621 -13.022   5.358  1.00  0.00     0.088 C 
HETATM    5  C   UNL     1      40.822 -12.027   5.814  1.00  0.00     0.071 C 
HETATM    6  C   UNL     1      39.511 -11.780   5.301  1.00  0.00     0.099 C 
HETATM    7  N   UNL     1      38.441 -11.562   4.906  1.00  0.00    -0.192 NA
HETATM    8  C   UNL     1      41.290 -11.103   6.947  1.00  0.00     0.130 C 
HETATM    9  C   UNL     1      42.539 -11.589   7.685  1.00  0.00     0.048 C 
HETATM   10  H   UNL     1      43.340 -14.056   5.729  1.00  0.00     0.166 HD
ENDROOT
BRANCH   4  11
HETATM   11  S   UNL     1      41.049 -14.075   4.057  1.00  0.00    -0.102 SA
BRANCH  11  12
HETATM   12  C   UNL     1      41.677 -15.704   4.546  1.00  0.00     0.183 C 
BRANCH  12  13
HETATM   13  C   UNL     1      42.544 -16.362   3.488  1.00  0.00     0.227 C 
HETATM   14  N   UNL     1      42.122 -17.585   3.025  1.00  0.00    -0.356 N 
HETATM   15  H   UNL     1      41.544 -18.139   3.648  1.00  0.00     0.162 HD
HETATM   16  O   UNL     1      43.509 -15.768   3.010  1.00  0.00    -0.273 OA
BRANCH  14  17
HETATM   17  C   UNL     1      42.888 -18.282   2.015  1.00  0.00     0.161 C 
BRANCH  17  18
HETATM   18  C   UNL     1      43.561 -19.536   2.514  1.00  0.00    -0.041 A 
HETATM   19  C   UNL     1      44.188 -19.611   3.766  1.00  0.00     0.009 A 
HETATM   20  C   UNL     1      44.757 -20.808   4.207  1.00  0.00     0.001 A 
HETATM   21  C   UNL     1      44.688 -21.951   3.414  1.00  0.00     0.000 A 
HETATM   22  C   UNL     1      44.046 -21.900   2.180  1.00  0.00     0.001 A 
HETATM   23  C   UNL     1      43.485 -20.702   1.734  1.00  0.00     0.009 A 
ENDBRANCH  17  18
ENDBRANCH  14  17
ENDBRANCH  12  13
ENDBRANCH  11  12
ENDBRANCH   4  11
BRANCH   8  24
HETATM   24  C   UNL     1      41.453  -9.681   6.469  1.00  0.00     0.066 A 
HETATM   25  O   UNL     1      41.870  -9.527   5.180  1.00  0.00    -0.326 OA
HETATM   26  C   UNL     1      41.939  -8.192   4.941  1.00  0.00     0.142 A 
HETATM   27  C   UNL     1      41.566  -7.484   6.059  1.00  0.00     0.027 A 
HETATM   28  C   UNL     1      41.249  -8.446   7.049  1.00  0.00     0.035 A 
ENDBRANCH   8  24
BRANCH   9  29
HETATM   29  C   UNL     1      42.909 -11.002   9.034  1.00  0.00     0.255 C 
HETATM   30  N   UNL     1      41.935 -11.021  10.013  1.00  0.00    -0.322 N 
HETATM   31  H   UNL     1      41.006 -11.369   9.797  1.00  0.00     0.169 HD
HETATM   32  O   UNL     1      44.047 -10.585   9.227  1.00  0.00    -0.268 OA
BRANCH  30  33
HETATM   33  C   UNL     1      42.070 -10.614  11.371  1.00  0.00     0.057 A 
HETATM   34  C   UNL     1      41.571  -9.349  11.749  1.00  0.00     0.062 A 
HETATM   35 CL   UNL     1      40.786  -8.318  10.602  1.00  0.00    -0.082 Cl
HETATM   36  C   UNL     1      41.662  -8.895  13.068  1.00  0.00     0.050 A 
HETATM   37  C   UNL     1      42.261  -9.701  14.029  1.00  0.00     0.035 A 
HETATM   38 CL   UNL     1      42.373  -9.155  15.656  1.00  0.00    -0.084 Cl
HETATM   39  C   UNL     1      42.765 -10.949  13.681  1.00  0.00     0.026 A 
HETATM   40  C   UNL     1      42.670 -11.401  12.360  1.00  0.00     0.033 A 
ENDBRANCH  30  33
ENDBRANCH   9  29
TORSDOF 8
ENDMDL
