MODEL 1
REMARK VINA RESULT:      -8.3      0.000      0.000
REMARK  7 active torsions:
REMARK  status: ('A' for Active; 'I' for Inactive)
REMARK    1  A    between atoms: C_2  and  C_3 
REMARK    2  A    between atoms: C_3  and  C_4 
REMARK    3  A    between atoms: C_4  and  O_5 
REMARK    4  A    between atoms: O_5  and  C_6 
REMARK    5  A    between atoms: C_9  and  C_10 
REMARK       I    between atoms: C_10  and  N_11 
REMARK    6  A    between atoms: N_11  and  C_12 
REMARK    7  A    between atoms: C_19  and  C_20 
REMARK       I    between atoms: C_20  and  N_21 
ROOT
HETATM    1  C   UNL     1      44.963 -13.630   7.348  1.00  0.00     0.256 C 
HETATM    2  N   UNL     1      44.055 -14.675   7.393  1.00  0.00    -0.323 N 
HETATM    3  O   UNL     1      45.877 -13.501   6.543  1.00  0.00    -0.267 OA
HETATM    4  H   UNL     1      43.358 -14.658   8.121  1.00  0.00     0.169 HD
ENDROOT
BRANCH   2   5
HETATM    5  C   UNL     1      43.945 -15.755   6.487  1.00  0.00     0.036 A 
HETATM    6  C   UNL     1      43.160 -15.727   5.328  1.00  0.00     0.046 A 
HETATM    7  C   UNL     1      43.079 -16.876   4.510  1.00  0.00     0.030 A 
HETATM    8  C   UNL     1      43.806 -18.005   4.868  1.00  0.00     0.063 A 
HETATM    9  C   UNL     1      42.384 -17.248   3.319  1.00  0.00     0.156 A 
HETATM   10  N   UNL     1      43.538 -18.932   3.900  1.00  0.00    -0.277 N 
HETATM   11  C   UNL     1      44.609 -18.066   6.008  1.00  0.00     0.034 A 
HETATM   12  H   UNL     1      43.903 -19.875   3.835  1.00  0.00     0.189 HD
HETATM   13  N   UNL     1      42.680 -18.516   2.954  1.00  0.00    -0.168 NA
HETATM   14  C   UNL     1      44.653 -16.921   6.814  1.00  0.00     0.032 A 
BRANCH   9  15
HETATM   15  C   UNL     1      41.441 -16.435   2.539  1.00  0.00     0.270 C 
HETATM   16  N   UNL     1      40.142 -16.862   2.613  1.00  0.00    -0.365 N 
HETATM   17  H   UNL     1      39.928 -17.666   3.192  1.00  0.00     0.159 HD
HETATM   18  H   UNL     1      39.421 -16.348   2.133  1.00  0.00     0.159 HD
HETATM   19  O   UNL     1      41.745 -15.448   1.877  1.00  0.00    -0.266 OA
ENDBRANCH   9  15
ENDBRANCH   2   5
BRANCH   1  20
HETATM   20  C   UNL     1      44.773 -12.555   8.374  1.00  0.00     0.032 A 
HETATM   21  C   UNL     1      45.777 -12.155   9.266  1.00  0.00     0.020 A 
HETATM   22  C   UNL     1      45.518 -11.173  10.233  1.00  0.00     0.038 A 
HETATM   23  C   UNL     1      44.261 -10.573  10.308  1.00  0.00     0.068 A 
HETATM   24  C   UNL     1      43.276 -10.934   9.389  1.00  0.00     0.038 A 
HETATM   25  C   UNL     1      43.526 -11.920   8.430  1.00  0.00     0.020 A 
BRANCH  23  26
HETATM   26  O   UNL     1      43.886  -9.614  11.206  1.00  0.00    -0.351 OA
BRANCH  26  27
HETATM   27  C   UNL     1      42.648  -9.824  11.889  1.00  0.00     0.176 C 
BRANCH  27  28
HETATM   28  C   UNL     1      42.973 -10.359  13.283  1.00  0.00     0.030 C 
BRANCH  28  29
HETATM   29  C   UNL     1      42.892  -9.296  14.391  1.00  0.00    -0.021 C 
HETATM   30  C   UNL     1      41.959  -9.712  15.529  1.00  0.00     0.009 C 
HETATM   31  C   UNL     1      42.422  -7.964  13.800  1.00  0.00     0.009 C 
ENDBRANCH  28  29
ENDBRANCH  27  28
ENDBRANCH  26  27
ENDBRANCH  23  26
ENDBRANCH   1  20
TORSDOF 7
ENDMDL
MODEL 2
REMARK VINA RESULT:      -8.1      1.633      2.497
REMARK  7 active torsions:
REMARK  status: ('A' for Active; 'I' for Inactive)
REMARK    1  A    between atoms: C_2  and  C_3 
REMARK    2  A    between atoms: C_3  and  C_4 
REMARK    3  A    between atoms: C_4  and  O_5 
REMARK    4  A    between atoms: O_5  and  C_6 
REMARK    5  A    between atoms: C_9  and  C_10 
REMARK       I    between atoms: C_10  and  N_11 
REMARK    6  A    between atoms: N_11  and  C_12 
REMARK    7  A    between atoms: C_19  and  C_20 
REMARK       I    between atoms: C_20  and  N_21 
ROOT
HETATM    1  C   UNL     1      44.831 -13.474   7.424  1.00  0.00     0.256 C 
HETATM    2  N   UNL     1      43.706 -14.219   7.113  1.00  0.00    -0.323 N 
HETATM    3  O   UNL     1      45.931 -13.570   6.893  1.00  0.00    -0.267 OA
HETATM    4  H   UNL     1      42.867 -14.041   7.643  1.00  0.00     0.169 HD
ENDROOT
BRANCH   2   5
HETATM    5  C   UNL     1      43.570 -15.177   6.083  1.00  0.00     0.036 A 
HETATM    6  C   UNL     1      43.709 -16.558   6.275  1.00  0.00     0.046 A 
HETATM    7  C   UNL     1      43.601 -17.432   5.170  1.00  0.00     0.030 A 
HETATM    8  C   UNL     1      43.332 -16.896   3.917  1.00  0.00     0.063 A 
HETATM    9  C   UNL     1      43.716 -18.838   4.953  1.00  0.00     0.156 A 
HETATM   10  N   UNL     1      43.279 -17.966   3.068  1.00  0.00    -0.277 N 
HETATM   11  C   UNL     1      43.176 -15.528   3.689  1.00  0.00     0.034 A 
HETATM   12  H   UNL     1      43.096 -17.951   2.071  1.00  0.00     0.189 HD
HETATM   13  N   UNL     1      43.512 -19.153   3.653  1.00  0.00    -0.168 NA
HETATM   14  C   UNL     1      43.311 -14.681   4.796  1.00  0.00     0.032 A 
BRANCH   9  15
HETATM   15  C   UNL     1      44.031 -19.877   5.943  1.00  0.00     0.270 C 
HETATM   16  N   UNL     1      44.659 -20.975   5.419  1.00  0.00    -0.365 N 
HETATM   17  H   UNL     1      44.870 -20.986   4.428  1.00  0.00     0.159 HD
HETATM   18  H   UNL     1      44.938 -21.727   6.029  1.00  0.00     0.159 HD
HETATM   19  O   UNL     1      43.781 -19.803   7.142  1.00  0.00    -0.266 OA
ENDBRANCH   9  15
ENDBRANCH   2   5
BRANCH   1  20
HETATM   20  C   UNL     1      44.657 -12.441   8.495  1.00  0.00     0.032 A 
HETATM   21  C   UNL     1      45.634 -12.158   9.459  1.00  0.00     0.020 A 
HETATM   22  C   UNL     1      45.387 -11.210  10.463  1.00  0.00     0.038 A 
HETATM   23  C   UNL     1      44.170 -10.529  10.504  1.00  0.00     0.068 A 
HETATM   24  C   UNL     1      43.216 -10.774   9.516  1.00  0.00     0.038 A 
HETATM   25  C   UNL     1      43.453 -11.724   8.520  1.00  0.00     0.020 A 
BRANCH  23  26
HETATM   26  O   UNL     1      43.811  -9.593  11.432  1.00  0.00    -0.351 OA
BRANCH  26  27
HETATM   27  C   UNL     1      42.528  -9.756  12.043  1.00  0.00     0.176 C 
BRANCH  27  28
HETATM   28  C   UNL     1      42.755 -10.286  13.459  1.00  0.00     0.030 C 
BRANCH  28  29
HETATM   29  C   UNL     1      42.790  -9.188  14.535  1.00  0.00    -0.021 C 
HETATM   30  C   UNL     1      41.971  -9.560  15.772  1.00  0.00     0.009 C 
HETATM   31  C   UNL     1      42.273  -7.871  13.951  1.00  0.00     0.009 C 
ENDBRANCH  28  29
ENDBRANCH  27  28
ENDBRANCH  26  27
ENDBRANCH  23  26
ENDBRANCH   1  20
TORSDOF 7
ENDMDL
MODEL 3
REMARK VINA RESULT:      -7.7      6.331     10.742
REMARK  7 active torsions:
REMARK  status: ('A' for Active; 'I' for Inactive)
REMARK    1  A    between atoms: C_2  and  C_3 
REMARK    2  A    between atoms: C_3  and  C_4 
REMARK    3  A    between atoms: C_4  and  O_5 
REMARK    4  A    between atoms: O_5  and  C_6 
REMARK    5  A    between atoms: C_9  and  C_10 
REMARK       I    between atoms: C_10  and  N_11 
REMARK    6  A    between atoms: N_11  and  C_12 
REMARK    7  A    between atoms: C_19  and  C_20 
REMARK       I    between atoms: C_20  and  N_21 
ROOT
HETATM    1  C   UNL     1      40.964 -16.531   1.573  1.00  0.00     0.256 C 
HETATM    2  N   UNL     1      42.306 -16.828   1.734  1.00  0.00    -0.323 N 
HETATM    3  O   UNL     1      40.027 -17.089   2.131  1.00  0.00    -0.267 OA
HETATM    4  H   UNL     1      42.972 -16.292   1.198  1.00  0.00     0.169 HD
ENDROOT
BRANCH   2   5
HETATM    5  C   UNL     1      42.875 -17.771   2.621  1.00  0.00     0.036 A 
HETATM    6  C   UNL     1      42.782 -17.688   4.016  1.00  0.00     0.046 A 
HETATM    7  C   UNL     1      43.427 -18.656   4.819  1.00  0.00     0.030 A 
HETATM    8  C   UNL     1      44.120 -19.687   4.197  1.00  0.00     0.063 A 
HETATM    9  C   UNL     1      43.598 -18.888   6.217  1.00  0.00     0.156 A 
HETATM   10  N   UNL     1      44.618 -20.454   5.212  1.00  0.00    -0.277 N 
HETATM   11  C   UNL     1      44.224 -19.810   2.810  1.00  0.00     0.034 A 
HETATM   12  H   UNL     1      45.173 -21.298   5.129  1.00  0.00     0.189 HD
HETATM   13  N   UNL     1      44.332 -20.001   6.444  1.00  0.00    -0.168 NA
HETATM   14  C   UNL     1      43.597 -18.824   2.038  1.00  0.00     0.032 A 
BRANCH   9  15
HETATM   15  C   UNL     1      43.097 -18.070   7.331  1.00  0.00     0.270 C 
HETATM   16  N   UNL     1      43.763 -18.267   8.510  1.00  0.00    -0.365 N 
HETATM   17  H   UNL     1      44.535 -18.924   8.528  1.00  0.00     0.159 HD
HETATM   18  H   UNL     1      43.507 -17.729   9.322  1.00  0.00     0.159 HD
HETATM   19  O   UNL     1      42.177 -17.264   7.251  1.00  0.00    -0.266 OA
ENDBRANCH   9  15
ENDBRANCH   2   5
BRANCH   1  20
HETATM   20  C   UNL     1      40.652 -15.398   0.642  1.00  0.00     0.032 A 
HETATM   21  C   UNL     1      39.728 -14.388   0.941  1.00  0.00     0.020 A 
HETATM   22  C   UNL     1      39.450 -13.382   0.004  1.00  0.00     0.038 A 
HETATM   23  C   UNL     1      40.101 -13.367  -1.229  1.00  0.00     0.068 A 
HETATM   24  C   UNL     1      41.059 -14.344  -1.507  1.00  0.00     0.038 A 
HETATM   25  C   UNL     1      41.331 -15.354  -0.582  1.00  0.00     0.020 A 
BRANCH  23  26
HETATM   26  O   UNL     1      39.912 -12.447  -2.221  1.00  0.00    -0.351 OA
BRANCH  26  27
HETATM   27  C   UNL     1      39.488 -12.952  -3.490  1.00  0.00     0.176 C 
BRANCH  27  28
HETATM   28  C   UNL     1      37.961 -13.021  -3.474  1.00  0.00     0.030 C 
BRANCH  28  29
HETATM   29  C   UNL     1      37.403 -14.450  -3.586  1.00  0.00    -0.021 C 
HETATM   30  C   UNL     1      38.467 -15.457  -4.025  1.00  0.00     0.009 C 
HETATM   31  C   UNL     1      36.232 -14.475  -4.572  1.00  0.00     0.009 C 
ENDBRANCH  28  29
ENDBRANCH  27  28
ENDBRANCH  26  27
ENDBRANCH  23  26
ENDBRANCH   1  20
TORSDOF 7
ENDMDL
MODEL 4
REMARK VINA RESULT:      -7.6      6.261     10.142
REMARK  7 active torsions:
REMARK  status: ('A' for Active; 'I' for Inactive)
REMARK    1  A    between atoms: C_2  and  C_3 
REMARK    2  A    between atoms: C_3  and  C_4 
REMARK    3  A    between atoms: C_4  and  O_5 
REMARK    4  A    between atoms: O_5  and  C_6 
REMARK    5  A    between atoms: C_9  and  C_10 
REMARK       I    between atoms: C_10  and  N_11 
REMARK    6  A    between atoms: N_11  and  C_12 
REMARK    7  A    between atoms: C_19  and  C_20 
REMARK       I    between atoms: C_20  and  N_21 
ROOT
HETATM    1  C   UNL     1      41.347 -16.467   1.318  1.00  0.00     0.256 C 
HETATM    2  N   UNL     1      42.661 -16.779   1.625  1.00  0.00    -0.323 N 
HETATM    3  O   UNL     1      40.349 -17.007   1.779  1.00  0.00    -0.267 OA
HETATM    4  H   UNL     1      43.387 -16.257   1.159  1.00  0.00     0.169 HD
ENDROOT
BRANCH   2   5
HETATM    5  C   UNL     1      43.119 -17.719   2.577  1.00  0.00     0.036 A 
HETATM    6  C   UNL     1      42.916 -17.596   3.957  1.00  0.00     0.046 A 
HETATM    7  C   UNL     1      43.455 -18.566   4.832  1.00  0.00     0.030 A 
HETATM    8  C   UNL     1      44.156 -19.637   4.293  1.00  0.00     0.063 A 
HETATM    9  C   UNL     1      43.504 -18.767   6.245  1.00  0.00     0.156 A 
HETATM   10  N   UNL     1      44.541 -20.396   5.364  1.00  0.00    -0.277 N 
HETATM   11  C   UNL     1      44.367 -19.800   2.923  1.00  0.00     0.034 A 
HETATM   12  H   UNL     1      45.067 -21.261   5.345  1.00  0.00     0.189 HD
HETATM   13  N   UNL     1      44.173 -19.901   6.557  1.00  0.00    -0.168 NA
HETATM   14  C   UNL     1      43.843 -18.812   2.080  1.00  0.00     0.032 A 
BRANCH   9  15
HETATM   15  C   UNL     1      42.947 -17.903   7.295  1.00  0.00     0.270 C 
HETATM   16  N   UNL     1      43.630 -17.955   8.480  1.00  0.00    -0.365 N 
HETATM   17  H   UNL     1      44.449 -18.548   8.543  1.00  0.00     0.159 HD
HETATM   18  H   UNL     1      43.337 -17.374   9.249  1.00  0.00     0.159 HD
HETATM   19  O   UNL     1      41.968 -17.177   7.160  1.00  0.00    -0.266 OA
ENDBRANCH   9  15
ENDBRANCH   2   5
BRANCH   1  20
HETATM   20  C   UNL     1      41.152 -15.341   0.349  1.00  0.00     0.032 A 
HETATM   21  C   UNL     1      41.045 -13.999   0.738  1.00  0.00     0.020 A 
HETATM   22  C   UNL     1      40.817 -12.999  -0.218  1.00  0.00     0.038 A 
HETATM   23  C   UNL     1      40.709 -13.328  -1.569  1.00  0.00     0.068 A 
HETATM   24  C   UNL     1      40.865 -14.657  -1.963  1.00  0.00     0.038 A 
HETATM   25  C   UNL     1      41.082 -15.658  -1.014  1.00  0.00     0.020 A 
BRANCH  23  26
HETATM   26  O   UNL     1      40.482 -12.448  -2.590  1.00  0.00    -0.351 OA
BRANCH  26  27
HETATM   27  C   UNL     1      41.290 -12.601  -3.760  1.00  0.00     0.176 C 
BRANCH  27  28
HETATM   28  C   UNL     1      42.559 -11.773  -3.556  1.00  0.00     0.030 C 
BRANCH  28  29
HETATM   29  C   UNL     1      42.322 -10.444  -2.821  1.00  0.00    -0.021 C 
HETATM   30  C   UNL     1      42.423  -9.237  -3.756  1.00  0.00     0.009 C 
HETATM   31  C   UNL     1      43.329 -10.295  -1.678  1.00  0.00     0.009 C 
ENDBRANCH  28  29
ENDBRANCH  27  28
ENDBRANCH  26  27
ENDBRANCH  23  26
ENDBRANCH   1  20
TORSDOF 7
ENDMDL
MODEL 5
REMARK VINA RESULT:      -7.6      2.915      4.461
REMARK  7 active torsions:
REMARK  status: ('A' for Active; 'I' for Inactive)
REMARK    1  A    between atoms: C_2  and  C_3 
REMARK    2  A    between atoms: C_3  and  C_4 
REMARK    3  A    between atoms: C_4  and  O_5 
REMARK    4  A    between atoms: O_5  and  C_6 
REMARK    5  A    between atoms: C_9  and  C_10 
REMARK       I    between atoms: C_10  and  N_11 
REMARK    6  A    between atoms: N_11  and  C_12 
REMARK    7  A    between atoms: C_19  and  C_20 
REMARK       I    between atoms: C_20  and  N_21 
ROOT
HETATM    1  C   UNL     1      42.965 -15.951   5.398  1.00  0.00     0.256 C 
HETATM    2  N   UNL     1      43.997 -16.548   4.694  1.00  0.00    -0.323 N 
HETATM    3  O   UNL     1      41.799 -16.325   5.427  1.00  0.00    -0.267 OA
HETATM    4  H   UNL     1      44.909 -16.123   4.751  1.00  0.00     0.169 HD
ENDROOT
BRANCH   2   5
HETATM    5  C   UNL     1      43.941 -17.740   3.936  1.00  0.00     0.036 A 
HETATM    6  C   UNL     1      44.208 -19.012   4.458  1.00  0.00     0.046 A 
HETATM    7  C   UNL     1      44.172 -20.139   3.607  1.00  0.00     0.030 A 
HETATM    8  C   UNL     1      43.846 -19.957   2.269  1.00  0.00     0.063 A 
HETATM    9  C   UNL     1      44.416 -21.540   3.739  1.00  0.00     0.156 A 
HETATM   10  N   UNL     1      43.884 -21.205   1.712  1.00  0.00    -0.277 N 
HETATM   11  C   UNL     1      43.561 -18.708   1.716  1.00  0.00     0.034 A 
HETATM   12  H   UNL     1      43.692 -21.453   0.749  1.00  0.00     0.189 HD
HETATM   13  N   UNL     1      44.230 -22.184   2.564  1.00  0.00    -0.168 NA
HETATM   14  C   UNL     1      43.627 -17.604   2.575  1.00  0.00     0.032 A 
BRANCH   9  15
HETATM   15  C   UNL     1      44.833 -22.269   4.945  1.00  0.00     0.270 C 
HETATM   16  N   UNL     1      45.918 -23.082   4.758  1.00  0.00    -0.365 N 
HETATM   17  H   UNL     1      46.351 -23.110   3.842  1.00  0.00     0.159 HD
HETATM   18  H   UNL     1      46.293 -23.600   5.536  1.00  0.00     0.159 HD
HETATM   19  O   UNL     1      44.294 -22.177   6.043  1.00  0.00    -0.266 OA
ENDBRANCH   9  15
ENDBRANCH   2   5
BRANCH   1  20
HETATM   20  C   UNL     1      43.338 -14.751   6.213  1.00  0.00     0.032 A 
HETATM   21  C   UNL     1      44.436 -14.722   7.083  1.00  0.00     0.020 A 
HETATM   22  C   UNL     1      44.702 -13.579   7.852  1.00  0.00     0.038 A 
HETATM   23  C   UNL     1      43.884 -12.455   7.749  1.00  0.00     0.068 A 
HETATM   24  C   UNL     1      42.820 -12.464   6.846  1.00  0.00     0.038 A 
HETATM   25  C   UNL     1      42.545 -13.603   6.085  1.00  0.00     0.020 A 
BRANCH  23  26
HETATM   26  O   UNL     1      44.036 -11.290   8.447  1.00  0.00    -0.351 OA
BRANCH  26  27
HETATM   27  C   UNL     1      45.205 -11.180   9.264  1.00  0.00     0.176 C 
BRANCH  27  28
HETATM   28  C   UNL     1      44.794 -10.503  10.571  1.00  0.00     0.030 C 
BRANCH  28  29
HETATM   29  C   UNL     1      43.670 -11.234  11.323  1.00  0.00    -0.021 C 
HETATM   30  C   UNL     1      43.261 -10.509  12.606  1.00  0.00     0.009 C 
HETATM   31  C   UNL     1      44.110 -12.662  11.655  1.00  0.00     0.009 C 
ENDBRANCH  28  29
ENDBRANCH  27  28
ENDBRANCH  26  27
ENDBRANCH  23  26
ENDBRANCH   1  20
TORSDOF 7
ENDMDL
MODEL 6
REMARK VINA RESULT:      -7.4      7.183     10.454
REMARK  7 active torsions:
REMARK  status: ('A' for Active; 'I' for Inactive)
REMARK    1  A    between atoms: C_2  and  C_3 
REMARK    2  A    between atoms: C_3  and  C_4 
REMARK    3  A    between atoms: C_4  and  O_5 
REMARK    4  A    between atoms: O_5  and  C_6 
REMARK    5  A    between atoms: C_9  and  C_10 
REMARK       I    between atoms: C_10  and  N_11 
REMARK    6  A    between atoms: N_11  and  C_12 
REMARK    7  A    between atoms: C_19  and  C_20 
REMARK       I    between atoms: C_20  and  N_21 
ROOT
HETATM    1  C   UNL     1      41.028 -16.490   1.555  1.00  0.00     0.256 C 
HETATM    2  N   UNL     1      42.379 -16.534   1.853  1.00  0.00    -0.323 N 
HETATM    3  O   UNL     1      40.165 -17.237   1.999  1.00  0.00    -0.267 OA
HETATM    4  H   UNL     1      42.980 -15.861   1.403  1.00  0.00     0.169 HD
ENDROOT
BRANCH   2   5
HETATM    5  C   UNL     1      43.026 -17.386   2.778  1.00  0.00     0.036 A 
HETATM    6  C   UNL     1      43.365 -18.718   2.508  1.00  0.00     0.046 A 
HETATM    7  C   UNL     1      43.968 -19.504   3.516  1.00  0.00     0.030 A 
HETATM    8  C   UNL     1      44.233 -18.922   4.750  1.00  0.00     0.063 A 
HETATM    9  C   UNL     1      44.408 -20.856   3.645  1.00  0.00     0.156 A 
HETATM   10  N   UNL     1      44.813 -19.907   5.499  1.00  0.00    -0.277 N 
HETATM   11  C   UNL     1      43.920 -17.595   5.051  1.00  0.00     0.034 A 
HETATM   12  H   UNL     1      45.144 -19.836   6.454  1.00  0.00     0.189 HD
HETATM   13  N   UNL     1      44.929 -21.088   4.871  1.00  0.00    -0.168 NA
HETATM   14  C   UNL     1      43.302 -16.845   4.043  1.00  0.00     0.032 A 
BRANCH   9  15
HETATM   15  C   UNL     1      44.328 -21.926   2.641  1.00  0.00     0.270 C 
HETATM   16  N   UNL     1      43.547 -21.618   1.559  1.00  0.00    -0.365 N 
HETATM   17  H   UNL     1      43.111 -20.704   1.521  1.00  0.00     0.159 HD
HETATM   18  H   UNL     1      43.456 -22.280   0.806  1.00  0.00     0.159 HD
HETATM   19  O   UNL     1      44.901 -23.007   2.719  1.00  0.00    -0.266 OA
ENDBRANCH   9  15
ENDBRANCH   2   5
BRANCH   1  20
HETATM   20  C   UNL     1      40.600 -15.401   0.619  1.00  0.00     0.032 A 
HETATM   21  C   UNL     1      39.547 -14.518   0.894  1.00  0.00     0.020 A 
HETATM   22  C   UNL     1      39.169 -13.550  -0.048  1.00  0.00     0.038 A 
HETATM   23  C   UNL     1      39.847 -13.446  -1.262  1.00  0.00     0.068 A 
HETATM   24  C   UNL     1      40.927 -14.291  -1.516  1.00  0.00     0.038 A 
HETATM   25  C   UNL     1      41.301 -15.264  -0.586  1.00  0.00     0.020 A 
BRANCH  23  26
HETATM   26  O   UNL     1      39.569 -12.552  -2.258  1.00  0.00    -0.351 OA
BRANCH  26  27
HETATM   27  C   UNL     1      40.122 -12.835  -3.546  1.00  0.00     0.176 C 
BRANCH  27  28
HETATM   28  C   UNL     1      40.605 -11.513  -4.143  1.00  0.00     0.030 C 
BRANCH  28  29
HETATM   29  C   UNL     1      42.130 -11.327  -4.086  1.00  0.00    -0.021 C 
HETATM   30  C   UNL     1      42.637 -11.123  -2.657  1.00  0.00     0.009 C 
HETATM   31  C   UNL     1      42.541 -10.135  -4.953  1.00  0.00     0.009 C 
ENDBRANCH  28  29
ENDBRANCH  27  28
ENDBRANCH  26  27
ENDBRANCH  23  26
ENDBRANCH   1  20
TORSDOF 7
ENDMDL
MODEL 7
REMARK VINA RESULT:      -7.4      6.368      9.891
REMARK  7 active torsions:
REMARK  status: ('A' for Active; 'I' for Inactive)
REMARK    1  A    between atoms: C_2  and  C_3 
REMARK    2  A    between atoms: C_3  and  C_4 
REMARK    3  A    between atoms: C_4  and  O_5 
REMARK    4  A    between atoms: O_5  and  C_6 
REMARK    5  A    between atoms: C_9  and  C_10 
REMARK       I    between atoms: C_10  and  N_11 
REMARK    6  A    between atoms: N_11  and  C_12 
REMARK    7  A    between atoms: C_19  and  C_20 
REMARK       I    between atoms: C_20  and  N_21 
ROOT
HETATM    1  C   UNL     1      41.703 -15.499   0.863  1.00  0.00     0.256 C 
HETATM    2  N   UNL     1      41.970 -15.523  -0.495  1.00  0.00    -0.323 N 
HETATM    3  O   UNL     1      41.031 -14.661   1.454  1.00  0.00    -0.267 OA
HETATM    4  H   UNL     1      42.551 -16.269  -0.845  1.00  0.00     0.169 HD
ENDROOT
BRANCH   2   5
HETATM    5  C   UNL     1      41.466 -14.646  -1.484  1.00  0.00     0.036 A 
HETATM    6  C   UNL     1      41.979 -13.366  -1.728  1.00  0.00     0.046 A 
HETATM    7  C   UNL     1      41.376 -12.546  -2.707  1.00  0.00     0.030 A 
HETATM    8  C   UNL     1      40.296 -13.045  -3.425  1.00  0.00     0.063 A 
HETATM    9  C   UNL     1      41.566 -11.220  -3.203  1.00  0.00     0.156 A 
HETATM   10  N   UNL     1      39.939 -12.046  -4.287  1.00  0.00    -0.277 N 
HETATM   11  C   UNL     1      39.766 -14.319  -3.219  1.00  0.00     0.034 A 
HETATM   12  H   UNL     1      39.191 -12.063  -4.970  1.00  0.00     0.189 HD
HETATM   13  N   UNL     1      40.676 -10.928  -4.179  1.00  0.00    -0.168 NA
HETATM   14  C   UNL     1      40.367 -15.103  -2.226  1.00  0.00     0.032 A 
BRANCH   9  15
HETATM   15  C   UNL     1      42.558 -10.230  -2.760  1.00  0.00     0.270 C 
HETATM   16  N   UNL     1      42.517  -9.051  -3.455  1.00  0.00    -0.365 N 
HETATM   17  H   UNL     1      41.822  -8.942  -4.185  1.00  0.00     0.159 HD
HETATM   18  H   UNL     1      43.141  -8.303  -3.202  1.00  0.00     0.159 HD
HETATM   19  O   UNL     1      43.360 -10.399  -1.848  1.00  0.00    -0.266 OA
ENDBRANCH   9  15
ENDBRANCH   2   5
BRANCH   1  20
HETATM   20  C   UNL     1      42.281 -16.627   1.663  1.00  0.00     0.032 A 
HETATM   21  C   UNL     1      41.684 -17.131   2.827  1.00  0.00     0.020 A 
HETATM   22  C   UNL     1      42.302 -18.159   3.553  1.00  0.00     0.038 A 
HETATM   23  C   UNL     1      43.511 -18.700   3.117  1.00  0.00     0.068 A 
HETATM   24  C   UNL     1      44.081 -18.234   1.932  1.00  0.00     0.038 A 
HETATM   25  C   UNL     1      43.474 -17.203   1.211  1.00  0.00     0.020 A 
BRANCH  23  26
HETATM   26  O   UNL     1      44.210 -19.696   3.740  1.00  0.00    -0.351 OA
BRANCH  26  27
HETATM   27  C   UNL     1      44.187 -19.698   5.169  1.00  0.00     0.176 C 
BRANCH  27  28
HETATM   28  C   UNL     1      45.151 -18.612   5.649  1.00  0.00     0.030 C 
BRANCH  28  29
HETATM   29  C   UNL     1      44.614 -17.781   6.827  1.00  0.00    -0.021 C 
HETATM   30  C   UNL     1      43.515 -18.512   7.600  1.00  0.00     0.009 C 
HETATM   31  C   UNL     1      44.081 -16.441   6.316  1.00  0.00     0.009 C 
ENDBRANCH  28  29
ENDBRANCH  27  28
ENDBRANCH  26  27
ENDBRANCH  23  26
ENDBRANCH   1  20
TORSDOF 7
ENDMDL
MODEL 8
REMARK VINA RESULT:      -7.1      3.420      5.393
REMARK  7 active torsions:
REMARK  status: ('A' for Active; 'I' for Inactive)
REMARK    1  A    between atoms: C_2  and  C_3 
REMARK    2  A    between atoms: C_3  and  C_4 
REMARK    3  A    between atoms: C_4  and  O_5 
REMARK    4  A    between atoms: O_5  and  C_6 
REMARK    5  A    between atoms: C_9  and  C_10 
REMARK       I    between atoms: C_10  and  N_11 
REMARK    6  A    between atoms: N_11  and  C_12 
REMARK    7  A    between atoms: C_19  and  C_20 
REMARK       I    between atoms: C_20  and  N_21 
ROOT
HETATM    1  C   UNL     1      41.674 -16.560   4.766  1.00  0.00     0.256 C 
HETATM    2  N   UNL     1      42.664 -16.808   3.831  1.00  0.00    -0.323 N 
HETATM    3  O   UNL     1      40.911 -17.388   5.248  1.00  0.00    -0.267 OA
HETATM    4  H   UNL     1      43.213 -16.025   3.511  1.00  0.00     0.169 HD
ENDROOT
BRANCH   2   5
HETATM    5  C   UNL     1      43.048 -18.061   3.301  1.00  0.00     0.036 A 
HETATM    6  C   UNL     1      43.507 -19.132   4.079  1.00  0.00     0.046 A 
HETATM    7  C   UNL     1      43.913 -20.330   3.450  1.00  0.00     0.030 A 
HETATM    8  C   UNL     1      43.822 -20.424   2.066  1.00  0.00     0.063 A 
HETATM    9  C   UNL     1      44.457 -21.582   3.868  1.00  0.00     0.156 A 
HETATM   10  N   UNL     1      44.270 -21.678   1.757  1.00  0.00    -0.277 N 
HETATM   11  C   UNL     1      43.359 -19.383   1.260  1.00  0.00     0.034 A 
HETATM   12  H   UNL     1      44.337 -22.095   0.836  1.00  0.00     0.189 HD
HETATM   13  N   UNL     1      44.668 -22.403   2.814  1.00  0.00    -0.168 NA
HETATM   14  C   UNL     1      42.985 -18.198   1.906  1.00  0.00     0.032 A 
BRANCH   9  15
HETATM   15  C   UNL     1      44.792 -22.003   5.236  1.00  0.00     0.270 C 
HETATM   16  N   UNL     1      45.764 -22.964   5.301  1.00  0.00    -0.365 N 
HETATM   17  H   UNL     1      46.181 -23.292   4.437  1.00  0.00     0.159 HD
HETATM   18  H   UNL     1      46.079 -23.294   6.199  1.00  0.00     0.159 HD
HETATM   19  O   UNL     1      44.279 -21.552   6.255  1.00  0.00    -0.266 OA
ENDBRANCH   9  15
ENDBRANCH   2   5
BRANCH   1  20
HETATM   20  C   UNL     1      41.561 -15.142   5.238  1.00  0.00     0.032 A 
HETATM   21  C   UNL     1      42.671 -14.331   5.514  1.00  0.00     0.020 A 
HETATM   22  C   UNL     1      42.493 -13.027   5.997  1.00  0.00     0.038 A 
HETATM   23  C   UNL     1      41.210 -12.517   6.195  1.00  0.00     0.068 A 
HETATM   24  C   UNL     1      40.105 -13.306   5.874  1.00  0.00     0.038 A 
HETATM   25  C   UNL     1      40.276 -14.610   5.402  1.00  0.00     0.020 A 
BRANCH  23  26
HETATM   26  O   UNL     1      40.910 -11.270   6.665  1.00  0.00    -0.351 OA
BRANCH  26  27
HETATM   27  C   UNL     1      39.794 -11.171   7.554  1.00  0.00     0.176 C 
BRANCH  27  28
HETATM   28  C   UNL     1      40.344 -10.971   8.966  1.00  0.00     0.030 C 
BRANCH  28  29
HETATM   29  C   UNL     1      41.568 -10.041   9.030  1.00  0.00    -0.021 C 
HETATM   30  C   UNL     1      42.826 -10.769   9.508  1.00  0.00     0.009 C 
HETATM   31  C   UNL     1      41.274  -8.859   9.955  1.00  0.00     0.009 C 
ENDBRANCH  28  29
ENDBRANCH  27  28
ENDBRANCH  26  27
ENDBRANCH  23  26
ENDBRANCH   1  20
TORSDOF 7
ENDMDL
MODEL 9
REMARK VINA RESULT:      -7.1      5.964     10.085
REMARK  7 active torsions:
REMARK  status: ('A' for Active; 'I' for Inactive)
REMARK    1  A    between atoms: C_2  and  C_3 
REMARK    2  A    between atoms: C_3  and  C_4 
REMARK    3  A    between atoms: C_4  and  O_5 
REMARK    4  A    between atoms: O_5  and  C_6 
REMARK    5  A    between atoms: C_9  and  C_10 
REMARK       I    between atoms: C_10  and  N_11 
REMARK    6  A    between atoms: N_11  and  C_12 
REMARK    7  A    between atoms: C_19  and  C_20 
REMARK       I    between atoms: C_20  and  N_21 
ROOT
HETATM    1  C   UNL     1      42.058 -14.837   2.810  1.00  0.00     0.256 C 
HETATM    2  N   UNL     1      41.406 -15.768   3.602  1.00  0.00    -0.323 N 
HETATM    3  O   UNL     1      43.225 -14.482   2.923  1.00  0.00    -0.267 OA
HETATM    4  H   UNL     1      40.436 -15.954   3.402  1.00  0.00     0.169 HD
ENDROOT
BRANCH   2   5
HETATM    5  C   UNL     1      41.963 -16.549   4.641  1.00  0.00     0.036 A 
HETATM    6  C   UNL     1      42.768 -17.675   4.427  1.00  0.00     0.046 A 
HETATM    7  C   UNL     1      43.238 -18.419   5.533  1.00  0.00     0.030 A 
HETATM    8  C   UNL     1      42.905 -17.995   6.814  1.00  0.00     0.063 A 
HETATM    9  C   UNL     1      44.014 -19.601   5.726  1.00  0.00     0.156 A 
HETATM   10  N   UNL     1      43.498 -18.892   7.658  1.00  0.00    -0.277 N 
HETATM   11  C   UNL     1      42.116 -16.873   7.066  1.00  0.00     0.034 A 
HETATM   12  H   UNL     1      43.473 -18.890   8.671  1.00  0.00     0.189 HD
HETATM   13  N   UNL     1      44.169 -19.878   7.041  1.00  0.00    -0.168 NA
HETATM   14  C   UNL     1      41.643 -16.167   5.952  1.00  0.00     0.032 A 
BRANCH   9  15
HETATM   15  C   UNL     1      44.593 -20.474   4.694  1.00  0.00     0.270 C 
HETATM   16  N   UNL     1      44.825 -21.755   5.115  1.00  0.00    -0.365 N 
HETATM   17  H   UNL     1      44.575 -22.007   6.064  1.00  0.00     0.159 HD
HETATM   18  H   UNL     1      45.194 -22.433   4.467  1.00  0.00     0.159 HD
HETATM   19  O   UNL     1      44.849 -20.128   3.546  1.00  0.00    -0.266 OA
ENDBRANCH   9  15
ENDBRANCH   2   5
BRANCH   1  20
HETATM   20  C   UNL     1      41.247 -14.240   1.701  1.00  0.00     0.032 A 
HETATM   21  C   UNL     1      39.983 -14.717   1.328  1.00  0.00     0.020 A 
HETATM   22  C   UNL     1      39.297 -14.140   0.249  1.00  0.00     0.038 A 
HETATM   23  C   UNL     1      39.860 -13.076  -0.455  1.00  0.00     0.068 A 
HETATM   24  C   UNL     1      41.096 -12.568  -0.054  1.00  0.00     0.038 A 
HETATM   25  C   UNL     1      41.788 -13.146   1.014  1.00  0.00     0.020 A 
BRANCH  23  26
HETATM   26  O   UNL     1      39.295 -12.438  -1.523  1.00  0.00    -0.351 OA
BRANCH  26  27
HETATM   27  C   UNL     1      38.820 -13.267  -2.587  1.00  0.00     0.176 C 
BRANCH  27  28
HETATM   28  C   UNL     1      40.022 -13.641  -3.454  1.00  0.00     0.030 C 
BRANCH  28  29
HETATM   29  C   UNL     1      40.124 -15.144  -3.760  1.00  0.00    -0.021 C 
HETATM   30  C   UNL     1      38.750 -15.803  -3.898  1.00  0.00     0.009 C 
HETATM   31  C   UNL     1      40.923 -15.845  -2.659  1.00  0.00     0.009 C 
ENDBRANCH  28  29
ENDBRANCH  27  28
ENDBRANCH  26  27
ENDBRANCH  23  26
ENDBRANCH   1  20
TORSDOF 7
ENDMDL
MODEL 10
REMARK VINA RESULT:      -7.0      3.335      4.137
REMARK  7 active torsions:
REMARK  status: ('A' for Active; 'I' for Inactive)
REMARK    1  A    between atoms: C_2  and  C_3 
REMARK    2  A    between atoms: C_3  and  C_4 
REMARK    3  A    between atoms: C_4  and  O_5 
REMARK    4  A    between atoms: O_5  and  C_6 
REMARK    5  A    between atoms: C_9  and  C_10 
REMARK       I    between atoms: C_10  and  N_11 
REMARK    6  A    between atoms: N_11  and  C_12 
REMARK    7  A    between atoms: C_19  and  C_20 
REMARK       I    between atoms: C_20  and  N_21 
ROOT
HETATM    1  C   UNL     1      42.470 -14.209   5.442  1.00  0.00     0.256 C 
HETATM    2  N   UNL     1      42.464 -15.413   6.127  1.00  0.00    -0.323 N 
HETATM    3  O   UNL     1      43.205 -13.912   4.509  1.00  0.00    -0.267 OA
HETATM    4  H   UNL     1      41.810 -15.516   6.887  1.00  0.00     0.169 HD
ENDROOT
BRANCH   2   5
HETATM    5  C   UNL     1      43.240 -16.562   5.848  1.00  0.00     0.036 A 
HETATM    6  C   UNL     1      43.115 -17.325   4.680  1.00  0.00     0.046 A 
HETATM    7  C   UNL     1      43.904 -18.485   4.514  1.00  0.00     0.030 A 
HETATM    8  C   UNL     1      44.808 -18.828   5.513  1.00  0.00     0.063 A 
HETATM    9  C   UNL     1      44.036 -19.511   3.530  1.00  0.00     0.156 A 
HETATM   10  N   UNL     1      45.419 -19.969   5.074  1.00  0.00    -0.277 N 
HETATM   11  C   UNL     1      44.969 -18.086   6.684  1.00  0.00     0.034 A 
HETATM   12  H   UNL     1      46.142 -20.498   5.546  1.00  0.00     0.189 HD
HETATM   13  N   UNL     1      44.976 -20.416   3.887  1.00  0.00    -0.168 NA
HETATM   14  C   UNL     1      44.158 -16.954   6.834  1.00  0.00     0.032 A 
BRANCH   9  15
HETATM   15  C   UNL     1      43.283 -19.655   2.276  1.00  0.00     0.270 C 
HETATM   16  N   UNL     1      43.307 -20.920   1.754  1.00  0.00    -0.365 N 
HETATM   17  H   UNL     1      43.808 -21.644   2.257  1.00  0.00     0.159 HD
HETATM   18  H   UNL     1      42.794 -21.121   0.911  1.00  0.00     0.159 HD
HETATM   19  O   UNL     1      42.665 -18.754   1.721  1.00  0.00    -0.266 OA
ENDBRANCH   9  15
ENDBRANCH   2   5
BRANCH   1  20
HETATM   20  C   UNL     1      41.455 -13.201   5.886  1.00  0.00     0.032 A 
HETATM   21  C   UNL     1      40.079 -13.464   5.938  1.00  0.00     0.020 A 
HETATM   22  C   UNL     1      39.179 -12.458   6.319  1.00  0.00     0.038 A 
HETATM   23  C   UNL     1      39.644 -11.190   6.664  1.00  0.00     0.068 A 
HETATM   24  C   UNL     1      41.017 -10.941   6.660  1.00  0.00     0.038 A 
HETATM   25  C   UNL     1      41.917 -11.936   6.271  1.00  0.00     0.020 A 
BRANCH  23  26
HETATM   26  O   UNL     1      38.868 -10.131   7.043  1.00  0.00    -0.351 OA
BRANCH  26  27
HETATM   27  C   UNL     1      39.409  -9.268   8.048  1.00  0.00     0.176 C 
BRANCH  27  28
HETATM   28  C   UNL     1      38.755  -9.642   9.379  1.00  0.00     0.030 C 
BRANCH  28  29
HETATM   29  C   UNL     1      39.741  -9.710  10.557  1.00  0.00    -0.021 C 
HETATM   30  C   UNL     1      40.616 -10.964  10.510  1.00  0.00     0.009 C 
HETATM   31  C   UNL     1      38.974  -9.667  11.880  1.00  0.00     0.009 C 
ENDBRANCH  28  29
ENDBRANCH  27  28
ENDBRANCH  26  27
ENDBRANCH  23  26
ENDBRANCH   1  20
TORSDOF 7
ENDMDL
