MODEL 1
REMARK VINA RESULT:      -9.9      0.000      0.000
REMARK  7 active torsions:
REMARK  status: ('A' for Active; 'I' for Inactive)
REMARK    1  A    between atoms: C_2  and  C_3 
REMARK    2  A    between atoms: C_3  and  N_4 
REMARK       I    between atoms: N_4  and  C_5 
REMARK    3  A    between atoms: C_5  and  C_6 
REMARK    4  A    between atoms: C_7  and  N_8 
REMARK    5  A    between atoms: N_9  and  N_10 
REMARK    6  A    between atoms: C_11  and  C_12 
REMARK    7  A    between atoms: C_13  and  O_14 
ROOT
HETATM    1  C   UNL     1      43.369 -18.391   6.322  1.00  0.00     0.104 C 
HETATM    2  C   UNL     1      43.507 -17.761   7.553  1.00  0.00     0.123 C 
HETATM    3  N   UNL     1      43.238 -16.409   7.353  1.00  0.00    -0.202 N 
HETATM    4  C   UNL     1      42.442 -16.310   6.233  1.00  0.00     0.183 A 
HETATM    5  C   UNL     1      42.573 -17.510   5.535  1.00  0.00     0.124 A 
HETATM    6  N   UNL     1      42.021 -17.663   4.305  1.00  0.00    -0.242 NA
HETATM    7  C   UNL     1      41.312 -16.610   3.868  1.00  0.00     0.086 A 
HETATM    8  C   UNL     1      41.173 -15.408   4.613  1.00  0.00     0.088 A 
HETATM    9  N   UNL     1      41.763 -15.220   5.805  1.00  0.00    -0.225 NA
HETATM   10  C   UNL     1      40.683 -16.707   2.632  1.00  0.00     0.034 A 
HETATM   11  C   UNL     1      39.910 -15.664   2.118  1.00  0.00     0.002 A 
HETATM   12  C   UNL     1      39.765 -14.496   2.854  1.00  0.00     0.002 A 
HETATM   13  C   UNL     1      40.399 -14.380   4.091  1.00  0.00     0.034 A 
ENDROOT
BRANCH   3  14
HETATM   14  N   UNL     1      43.728 -15.342   8.084  1.00  0.00    -0.176 NA
HETATM   15  C   UNL     1      44.498 -14.569   7.377  1.00  0.00     0.153 C 
BRANCH  15  16
HETATM   16  C   UNL     1      45.118 -13.347   7.912  1.00  0.00     0.017 A 
HETATM   17  C   UNL     1      46.264 -12.781   7.351  1.00  0.00     0.077 A 
HETATM   18  C   UNL     1      46.845 -11.662   7.943  1.00  0.00     0.039 A 
HETATM   19  C   UNL     1      46.276 -11.102   9.090  1.00  0.00     0.022 A 
HETATM   20  C   UNL     1      45.123 -11.664   9.638  1.00  0.00     0.012 A 
HETATM   21 BR   UNL     1      44.346 -10.905  11.186  1.00  0.00    -0.051 Br
HETATM   22  C   UNL     1      44.540 -12.788   9.059  1.00  0.00     0.034 A 
BRANCH  17  23
HETATM   23  O   UNL     1      46.875 -13.287   6.240  1.00  0.00    -0.360 OA
HETATM   24  H   UNL     1      46.198 -13.761   5.705  1.00  0.00     0.217 HD
ENDBRANCH  17  23
ENDBRANCH  15  16
ENDBRANCH   3  14
BRANCH   2  25
HETATM   25  N   UNL     1      43.940 -18.241   8.762  1.00  0.00    -0.286 NA
HETATM   26  H   UNL     1      44.558 -17.621   9.296  1.00  0.00     0.125 HD
HETATM   27  H   UNL     1      43.220 -18.613   9.389  1.00  0.00     0.125 HD
ENDBRANCH   2  25
BRANCH   1  28
HETATM   28  C   UNL     1      43.958 -19.672   5.949  1.00  0.00     0.257 C 
HETATM   29  N   UNL     1      44.490 -19.658   4.671  1.00  0.00    -0.356 N 
HETATM   30  H   UNL     1      44.305 -18.813   4.143  1.00  0.00     0.162 HD
HETATM   31  O   UNL     1      43.909 -20.681   6.642  1.00  0.00    -0.267 OA
BRANCH  29  32
HETATM   32  C   UNL     1      44.730 -20.865   3.913  1.00  0.00     0.126 C 
BRANCH  32  33
HETATM   33  C   UNL     1      44.578 -20.654   2.396  1.00  0.00    -0.005 C 
HETATM   34  C   UNL     1      43.664 -19.468   2.086  1.00  0.00     0.011 C 
HETATM   35  C   UNL     1      44.083 -21.909   1.669  1.00  0.00     0.011 C 
ENDBRANCH  32  33
ENDBRANCH  29  32
ENDBRANCH   1  28
TORSDOF 7
ENDMDL
MODEL 2
REMARK VINA RESULT:      -9.2      4.351      8.201
REMARK  7 active torsions:
REMARK  status: ('A' for Active; 'I' for Inactive)
REMARK    1  A    between atoms: C_2  and  C_3 
REMARK    2  A    between atoms: C_3  and  N_4 
REMARK       I    between atoms: N_4  and  C_5 
REMARK    3  A    between atoms: C_5  and  C_6 
REMARK    4  A    between atoms: C_7  and  N_8 
REMARK    5  A    between atoms: N_9  and  N_10 
REMARK    6  A    between atoms: C_11  and  C_12 
REMARK    7  A    between atoms: C_13  and  O_14 
ROOT
HETATM    1  C   UNL     1      41.313 -15.835   4.104  1.00  0.00     0.104 C 
HETATM    2  C   UNL     1      40.462 -15.577   3.035  1.00  0.00     0.123 C 
HETATM    3  N   UNL     1      40.984 -16.242   1.928  1.00  0.00    -0.202 N 
HETATM    4  C   UNL     1      41.754 -17.283   2.398  1.00  0.00     0.183 A 
HETATM    5  C   UNL     1      42.035 -17.006   3.736  1.00  0.00     0.124 A 
HETATM    6  N   UNL     1      42.902 -17.778   4.438  1.00  0.00    -0.242 NA
HETATM    7  C   UNL     1      43.396 -18.831   3.764  1.00  0.00     0.086 A 
HETATM    8  C   UNL     1      43.071 -19.103   2.409  1.00  0.00     0.088 A 
HETATM    9  N   UNL     1      42.261 -18.314   1.683  1.00  0.00    -0.225 NA
HETATM   10  C   UNL     1      44.261 -19.691   4.431  1.00  0.00     0.034 A 
HETATM   11  C   UNL     1      44.800 -20.817   3.807  1.00  0.00     0.002 A 
HETATM   12  C   UNL     1      44.469 -21.090   2.487  1.00  0.00     0.002 A 
HETATM   13  C   UNL     1      43.611 -20.229   1.802  1.00  0.00     0.034 A 
ENDROOT
BRANCH   3  14
HETATM   14  N   UNL     1      40.832 -15.896   0.597  1.00  0.00    -0.176 NA
HETATM   15  C   UNL     1      41.405 -14.764   0.310  1.00  0.00     0.153 C 
BRANCH  15  16
HETATM   16  C   UNL     1      41.417 -14.191  -1.044  1.00  0.00     0.017 A 
HETATM   17  C   UNL     1      40.998 -14.909  -2.165  1.00  0.00     0.077 A 
HETATM   18  C   UNL     1      41.097 -14.336  -3.431  1.00  0.00     0.039 A 
HETATM   19  C   UNL     1      41.605 -13.042  -3.577  1.00  0.00     0.022 A 
HETATM   20  C   UNL     1      42.009 -12.325  -2.451  1.00  0.00     0.012 A 
HETATM   21 BR   UNL     1      42.690 -10.571  -2.643  1.00  0.00    -0.051 Br
HETATM   22  C   UNL     1      41.922 -12.891  -1.182  1.00  0.00     0.034 A 
BRANCH  17  23
HETATM   23  O   UNL     1      40.504 -16.180  -2.092  1.00  0.00    -0.360 OA
HETATM   24  H   UNL     1      40.362 -16.400  -1.143  1.00  0.00     0.217 HD
ENDBRANCH  17  23
ENDBRANCH  15  16
ENDBRANCH   3  14
BRANCH   2  25
HETATM   25  N   UNL     1      39.374 -14.749   2.935  1.00  0.00    -0.286 NA
HETATM   26  H   UNL     1      38.937 -14.691   2.010  1.00  0.00     0.125 HD
HETATM   27  H   UNL     1      38.642 -14.872   3.641  1.00  0.00     0.125 HD
ENDBRANCH   2  25
BRANCH   1  28
HETATM   28  C   UNL     1      41.428 -15.031   5.315  1.00  0.00     0.257 C 
HETATM   29  N   UNL     1      42.443 -14.093   5.232  1.00  0.00    -0.356 N 
HETATM   30  H   UNL     1      43.022 -14.165   4.403  1.00  0.00     0.162 HD
HETATM   31  O   UNL     1      40.772 -15.218   6.331  1.00  0.00    -0.267 OA
BRANCH  29  32
HETATM   32  C   UNL     1      43.042 -13.488   6.400  1.00  0.00     0.126 C 
BRANCH  32  33
HETATM   33  C   UNL     1      44.460 -14.018   6.682  1.00  0.00    -0.005 C 
HETATM   34  C   UNL     1      44.451 -15.524   6.944  1.00  0.00     0.011 C 
HETATM   35  C   UNL     1      45.149 -13.283   7.837  1.00  0.00     0.011 C 
ENDBRANCH  32  33
ENDBRANCH  29  32
ENDBRANCH   1  28
TORSDOF 7
ENDMDL
MODEL 3
REMARK VINA RESULT:      -8.9      4.363      8.325
REMARK  7 active torsions:
REMARK  status: ('A' for Active; 'I' for Inactive)
REMARK    1  A    between atoms: C_2  and  C_3 
REMARK    2  A    between atoms: C_3  and  N_4 
REMARK       I    between atoms: N_4  and  C_5 
REMARK    3  A    between atoms: C_5  and  C_6 
REMARK    4  A    between atoms: C_7  and  N_8 
REMARK    5  A    between atoms: N_9  and  N_10 
REMARK    6  A    between atoms: C_11  and  C_12 
REMARK    7  A    between atoms: C_13  and  O_14 
ROOT
HETATM    1  C   UNL     1      42.002 -15.723   4.379  1.00  0.00     0.104 C 
HETATM    2  C   UNL     1      40.959 -15.424   3.511  1.00  0.00     0.123 C 
HETATM    3  N   UNL     1      41.165 -16.170   2.352  1.00  0.00    -0.202 N 
HETATM    4  C   UNL     1      41.933 -17.260   2.696  1.00  0.00     0.183 A 
HETATM    5  C   UNL     1      42.527 -16.966   3.923  1.00  0.00     0.124 A 
HETATM    6  N   UNL     1      43.462 -17.791   4.458  1.00  0.00    -0.242 NA
HETATM    7  C   UNL     1      43.707 -18.905   3.749  1.00  0.00     0.086 A 
HETATM    8  C   UNL     1      43.067 -19.191   2.513  1.00  0.00     0.088 A 
HETATM    9  N   UNL     1      42.183 -18.356   1.942  1.00  0.00    -0.225 NA
HETATM   10  C   UNL     1      44.625 -19.818   4.253  1.00  0.00     0.034 A 
HETATM   11  C   UNL     1      44.918 -21.009   3.587  1.00  0.00     0.002 A 
HETATM   12  C   UNL     1      44.281 -21.293   2.387  1.00  0.00     0.002 A 
HETATM   13  C   UNL     1      43.365 -20.381   1.862  1.00  0.00     0.034 A 
ENDROOT
BRANCH   3  14
HETATM   14  N   UNL     1      40.749 -15.855   1.070  1.00  0.00    -0.176 NA
HETATM   15  C   UNL     1      41.559 -15.030   0.475  1.00  0.00     0.153 C 
BRANCH  15  16
HETATM   16  C   UNL     1      41.360 -14.566  -0.906  1.00  0.00     0.017 A 
HETATM   17  C   UNL     1      41.906 -13.372  -1.381  1.00  0.00     0.077 A 
HETATM   18  C   UNL     1      41.626 -12.951  -2.679  1.00  0.00     0.039 A 
HETATM   19  C   UNL     1      40.809 -13.727  -3.507  1.00  0.00     0.022 A 
HETATM   20  C   UNL     1      40.279 -14.926  -3.030  1.00  0.00     0.012 A 
HETATM   21 BR   UNL     1      39.180 -15.982  -4.149  1.00  0.00    -0.051 Br
HETATM   22  C   UNL     1      40.546 -15.351  -1.732  1.00  0.00     0.034 A 
BRANCH  17  23
HETATM   23  O   UNL     1      42.699 -12.563  -0.620  1.00  0.00    -0.360 OA
HETATM   24  H   UNL     1      42.722 -12.927   0.295  1.00  0.00     0.217 HD
ENDBRANCH  17  23
ENDBRANCH  15  16
ENDBRANCH   3  14
BRANCH   2  25
HETATM   25  N   UNL     1      39.947 -14.505   3.608  1.00  0.00    -0.286 NA
HETATM   26  H   UNL     1      39.496 -14.428   4.525  1.00  0.00     0.125 HD
HETATM   27  H   UNL     1      40.152 -13.563   3.259  1.00  0.00     0.125 HD
ENDBRANCH   2  25
BRANCH   1  28
HETATM   28  C   UNL     1      42.450 -14.893   5.492  1.00  0.00     0.257 C 
HETATM   29  N   UNL     1      43.725 -15.222   5.917  1.00  0.00    -0.356 N 
HETATM   30  H   UNL     1      44.121 -16.046   5.478  1.00  0.00     0.162 HD
HETATM   31  O   UNL     1      41.750 -14.062   6.056  1.00  0.00    -0.267 OA
BRANCH  29  32
HETATM   32  C   UNL     1      44.223 -14.875   7.229  1.00  0.00     0.126 C 
BRANCH  32  33
HETATM   33  C   UNL     1      44.770 -13.437   7.296  1.00  0.00    -0.005 C 
HETATM   34  C   UNL     1      46.212 -13.366   6.794  1.00  0.00     0.011 C 
HETATM   35  C   UNL     1      44.665 -12.827   8.698  1.00  0.00     0.011 C 
ENDBRANCH  32  33
ENDBRANCH  29  32
ENDBRANCH   1  28
TORSDOF 7
ENDMDL
MODEL 4
REMARK VINA RESULT:      -8.8      3.935      7.945
REMARK  7 active torsions:
REMARK  status: ('A' for Active; 'I' for Inactive)
REMARK    1  A    between atoms: C_2  and  C_3 
REMARK    2  A    between atoms: C_3  and  N_4 
REMARK       I    between atoms: N_4  and  C_5 
REMARK    3  A    between atoms: C_5  and  C_6 
REMARK    4  A    between atoms: C_7  and  N_8 
REMARK    5  A    between atoms: N_9  and  N_10 
REMARK    6  A    between atoms: C_11  and  C_12 
REMARK    7  A    between atoms: C_13  and  O_14 
ROOT
HETATM    1  C   UNL     1      43.474 -15.319   5.837  1.00  0.00     0.104 C 
HETATM    2  C   UNL     1      42.791 -14.516   4.930  1.00  0.00     0.123 C 
HETATM    3  N   UNL     1      43.024 -15.043   3.662  1.00  0.00    -0.202 N 
HETATM    4  C   UNL     1      43.335 -16.375   3.821  1.00  0.00     0.183 A 
HETATM    5  C   UNL     1      43.695 -16.551   5.157  1.00  0.00     0.124 A 
HETATM    6  N   UNL     1      44.197 -17.734   5.591  1.00  0.00    -0.242 NA
HETATM    7  C   UNL     1      44.254 -18.701   4.661  1.00  0.00     0.086 A 
HETATM    8  C   UNL     1      43.855 -18.501   3.312  1.00  0.00     0.088 A 
HETATM    9  N   UNL     1      43.412 -17.319   2.853  1.00  0.00    -0.225 NA
HETATM   10  C   UNL     1      44.720 -19.954   5.042  1.00  0.00     0.034 A 
HETATM   11  C   UNL     1      44.790 -21.016   4.139  1.00  0.00     0.002 A 
HETATM   12  C   UNL     1      44.386 -20.822   2.825  1.00  0.00     0.002 A 
HETATM   13  C   UNL     1      43.925 -19.567   2.426  1.00  0.00     0.034 A 
ENDROOT
BRANCH   3  14
HETATM   14  N   UNL     1      43.021 -14.359   2.459  1.00  0.00    -0.176 NA
HETATM   15  C   UNL     1      41.985 -14.647   1.728  1.00  0.00     0.153 C 
BRANCH  15  16
HETATM   16  C   UNL     1      41.730 -14.029   0.418  1.00  0.00     0.017 A 
HETATM   17  C   UNL     1      41.948 -12.671   0.176  1.00  0.00     0.077 A 
HETATM   18  C   UNL     1      41.623 -12.128  -1.065  1.00  0.00     0.039 A 
HETATM   19  C   UNL     1      41.090 -12.943  -2.068  1.00  0.00     0.022 A 
HETATM   20  C   UNL     1      40.889 -14.301  -1.824  1.00  0.00     0.012 A 
HETATM   21 BR   UNL     1      40.175 -15.408  -3.181  1.00  0.00    -0.051 Br
HETATM   22  C   UNL     1      41.202 -14.852  -0.585  1.00  0.00     0.034 A 
BRANCH  17  23
HETATM   23  O   UNL     1      42.453 -11.820   1.117  1.00  0.00    -0.360 OA
HETATM   24  H   UNL     1      43.257 -12.234   1.506  1.00  0.00     0.217 HD
ENDBRANCH  17  23
ENDBRANCH  15  16
ENDBRANCH   3  14
BRANCH   2  25
HETATM   25  N   UNL     1      42.103 -13.344   5.112  1.00  0.00    -0.286 NA
HETATM   26  H   UNL     1      41.923 -13.075   6.084  1.00  0.00     0.125 HD
HETATM   27  H   UNL     1      42.451 -12.528   4.599  1.00  0.00     0.125 HD
ENDBRANCH   2  25
BRANCH   1  28
HETATM   28  C   UNL     1      43.884 -14.929   7.181  1.00  0.00     0.257 C 
HETATM   29  N   UNL     1      44.263 -13.600   7.254  1.00  0.00    -0.356 N 
HETATM   30  H   UNL     1      44.305 -13.121   6.362  1.00  0.00     0.162 HD
HETATM   31  O   UNL     1      43.978 -15.704   8.125  1.00  0.00    -0.267 OA
BRANCH  29  32
HETATM   32  C   UNL     1      45.097 -13.084   8.316  1.00  0.00     0.126 C 
BRANCH  32  33
HETATM   33  C   UNL     1      44.348 -12.102   9.235  1.00  0.00    -0.005 C 
HETATM   34  C   UNL     1      43.229 -11.379   8.486  1.00  0.00     0.011 C 
HETATM   35  C   UNL     1      45.281 -11.087   9.904  1.00  0.00     0.011 C 
ENDBRANCH  32  33
ENDBRANCH  29  32
ENDBRANCH   1  28
TORSDOF 7
ENDMDL
MODEL 5
REMARK VINA RESULT:      -8.5      4.804      8.047
REMARK  7 active torsions:
REMARK  status: ('A' for Active; 'I' for Inactive)
REMARK    1  A    between atoms: C_2  and  C_3 
REMARK    2  A    between atoms: C_3  and  N_4 
REMARK       I    between atoms: N_4  and  C_5 
REMARK    3  A    between atoms: C_5  and  C_6 
REMARK    4  A    between atoms: C_7  and  N_8 
REMARK    5  A    between atoms: N_9  and  N_10 
REMARK    6  A    between atoms: C_11  and  C_12 
REMARK    7  A    between atoms: C_13  and  O_14 
ROOT
HETATM    1  C   UNL     1      41.620 -13.808   0.622  1.00  0.00     0.104 C 
HETATM    2  C   UNL     1      41.506 -15.187   0.485  1.00  0.00     0.123 C 
HETATM    3  N   UNL     1      41.412 -15.720   1.768  1.00  0.00    -0.202 N 
HETATM    4  C   UNL     1      40.927 -14.727   2.591  1.00  0.00     0.183 A 
HETATM    5  C   UNL     1      41.121 -13.517   1.924  1.00  0.00     0.124 A 
HETATM    6  N   UNL     1      40.877 -12.335   2.543  1.00  0.00    -0.242 NA
HETATM    7  C   UNL     1      40.391 -12.439   3.791  1.00  0.00     0.086 A 
HETATM    8  C   UNL     1      40.178 -13.687   4.436  1.00  0.00     0.088 A 
HETATM    9  N   UNL     1      40.471 -14.863   3.858  1.00  0.00    -0.225 NA
HETATM   10  C   UNL     1      40.078 -11.271   4.475  1.00  0.00     0.034 A 
HETATM   11  C   UNL     1      39.549 -11.295   5.767  1.00  0.00     0.002 A 
HETATM   12  C   UNL     1      39.328 -12.516   6.390  1.00  0.00     0.002 A 
HETATM   13  C   UNL     1      39.648 -13.698   5.719  1.00  0.00     0.034 A 
ENDROOT
BRANCH   3  14
HETATM   14  N   UNL     1      41.798 -16.983   2.179  1.00  0.00    -0.176 NA
HETATM   15  C   UNL     1      42.949 -16.978   2.783  1.00  0.00     0.153 C 
BRANCH  15  16
HETATM   16  C   UNL     1      43.566 -18.188   3.346  1.00  0.00     0.017 A 
HETATM   17  C   UNL     1      44.097 -18.228   4.636  1.00  0.00     0.077 A 
HETATM   18  C   UNL     1      44.730 -19.383   5.089  1.00  0.00     0.039 A 
HETATM   19  C   UNL     1      44.825 -20.502   4.258  1.00  0.00     0.022 A 
HETATM   20  C   UNL     1      44.281 -20.460   2.974  1.00  0.00     0.012 A 
HETATM   21 BR   UNL     1      44.401 -21.975   1.848  1.00  0.00    -0.051 Br
HETATM   22  C   UNL     1      43.654 -19.308   2.509  1.00  0.00     0.034 A 
BRANCH  17  23
HETATM   23  O   UNL     1      44.048 -17.166   5.493  1.00  0.00    -0.360 OA
HETATM   24  H   UNL     1      43.649 -17.472   6.340  1.00  0.00     0.217 HD
ENDBRANCH  17  23
ENDBRANCH  15  16
ENDBRANCH   3  14
BRANCH   2  25
HETATM   25  N   UNL     1      41.586 -15.987  -0.626  1.00  0.00    -0.286 NA
HETATM   26  H   UNL     1      42.384 -16.629  -0.660  1.00  0.00     0.125 HD
HETATM   27  H   UNL     1      40.736 -16.498  -0.881  1.00  0.00     0.125 HD
ENDBRANCH   2  25
BRANCH   1  28
HETATM   28  C   UNL     1      42.170 -12.895  -0.373  1.00  0.00     0.257 C 
HETATM   29  N   UNL     1      42.080 -13.398  -1.659  1.00  0.00    -0.356 N 
HETATM   30  H   UNL     1      41.750 -14.355  -1.719  1.00  0.00     0.162 HD
HETATM   31  O   UNL     1      42.737 -11.844  -0.104  1.00  0.00    -0.267 OA
BRANCH  29  32
HETATM   32  C   UNL     1      42.909 -12.921  -2.743  1.00  0.00     0.126 C 
BRANCH  32  33
HETATM   33  C   UNL     1      42.132 -12.048  -3.745  1.00  0.00    -0.005 C 
HETATM   34  C   UNL     1      42.428 -10.562  -3.538  1.00  0.00     0.011 C 
HETATM   35  C   UNL     1      40.621 -12.299  -3.703  1.00  0.00     0.011 C 
ENDBRANCH  32  33
ENDBRANCH  29  32
ENDBRANCH   1  28
TORSDOF 7
ENDMDL
MODEL 6
REMARK VINA RESULT:      -8.5      3.504      4.320
REMARK  7 active torsions:
REMARK  status: ('A' for Active; 'I' for Inactive)
REMARK    1  A    between atoms: C_2  and  C_3 
REMARK    2  A    between atoms: C_3  and  N_4 
REMARK       I    between atoms: N_4  and  C_5 
REMARK    3  A    between atoms: C_5  and  C_6 
REMARK    4  A    between atoms: C_7  and  N_8 
REMARK    5  A    between atoms: N_9  and  N_10 
REMARK    6  A    between atoms: C_11  and  C_12 
REMARK    7  A    between atoms: C_13  and  O_14 
ROOT
HETATM    1  C   UNL     1      41.628 -16.830   4.687  1.00  0.00     0.104 C 
HETATM    2  C   UNL     1      40.728 -16.231   5.561  1.00  0.00     0.123 C 
HETATM    3  N   UNL     1      40.257 -15.078   4.936  1.00  0.00    -0.202 N 
HETATM    4  C   UNL     1      40.404 -15.258   3.578  1.00  0.00     0.183 A 
HETATM    5  C   UNL     1      41.318 -16.297   3.404  1.00  0.00     0.124 A 
HETATM    6  N   UNL     1      41.783 -16.613   2.169  1.00  0.00    -0.242 NA
HETATM    7  C   UNL     1      41.252 -15.897   1.163  1.00  0.00     0.086 A 
HETATM    8  C   UNL     1      40.302 -14.862   1.369  1.00  0.00     0.088 A 
HETATM    9  N   UNL     1      39.877 -14.498   2.590  1.00  0.00    -0.225 NA
HETATM   10  C   UNL     1      41.650 -16.191  -0.135  1.00  0.00     0.034 A 
HETATM   11  C   UNL     1      41.129 -15.508  -1.235  1.00  0.00     0.002 A 
HETATM   12  C   UNL     1      40.190 -14.506  -1.033  1.00  0.00     0.002 A 
HETATM   13  C   UNL     1      39.789 -14.192   0.266  1.00  0.00     0.034 A 
ENDROOT
BRANCH   3  14
HETATM   14  N   UNL     1      39.792 -13.927   5.546  1.00  0.00    -0.176 NA
HETATM   15  C   UNL     1      40.751 -13.096   5.832  1.00  0.00     0.153 C 
BRANCH  15  16
HETATM   16  C   UNL     1      40.518 -11.784   6.454  1.00  0.00     0.017 A 
HETATM   17  C   UNL     1      39.689 -11.619   7.565  1.00  0.00     0.077 A 
HETATM   18  C   UNL     1      39.451 -10.342   8.068  1.00  0.00     0.039 A 
HETATM   19  C   UNL     1      40.050  -9.230   7.469  1.00  0.00     0.022 A 
HETATM   20  C   UNL     1      40.889  -9.404   6.367  1.00  0.00     0.012 A 
HETATM   21 BR   UNL     1      41.707  -7.903   5.558  1.00  0.00    -0.051 Br
HETATM   22  C   UNL     1      41.125 -10.675   5.852  1.00  0.00     0.034 A 
BRANCH  17  23
HETATM   23  O   UNL     1      39.064 -12.661   8.188  1.00  0.00    -0.360 OA
HETATM   24  H   UNL     1      39.756 -13.261   8.551  1.00  0.00     0.217 HD
ENDBRANCH  17  23
ENDBRANCH  15  16
ENDBRANCH   3  14
BRANCH   2  25
HETATM   25  N   UNL     1      40.389 -16.544   6.852  1.00  0.00    -0.286 NA
HETATM   26  H   UNL     1      39.468 -16.221   7.165  1.00  0.00     0.125 HD
HETATM   27  H   UNL     1      40.510 -17.522   7.131  1.00  0.00     0.125 HD
ENDBRANCH   2  25
BRANCH   1  28
HETATM   28  C   UNL     1      42.673 -17.777   5.057  1.00  0.00     0.257 C 
HETATM   29  N   UNL     1      43.412 -18.202   3.967  1.00  0.00    -0.356 N 
HETATM   30  H   UNL     1      43.065 -17.886   3.068  1.00  0.00     0.162 HD
HETATM   31  O   UNL     1      42.827 -18.227   6.185  1.00  0.00    -0.267 OA
BRANCH  29  32
HETATM   32  C   UNL     1      44.188 -19.421   3.977  1.00  0.00     0.126 C 
BRANCH  32  33
HETATM   33  C   UNL     1      44.244 -20.102   2.598  1.00  0.00    -0.005 C 
HETATM   34  C   UNL     1      42.981 -19.819   1.784  1.00  0.00     0.011 C 
HETATM   35  C   UNL     1      44.489 -21.612   2.690  1.00  0.00     0.011 C 
ENDBRANCH  32  33
ENDBRANCH  29  32
ENDBRANCH   1  28
TORSDOF 7
ENDMDL
MODEL 7
REMARK VINA RESULT:      -8.5      4.686      8.092
REMARK  7 active torsions:
REMARK  status: ('A' for Active; 'I' for Inactive)
REMARK    1  A    between atoms: C_2  and  C_3 
REMARK    2  A    between atoms: C_3  and  N_4 
REMARK       I    between atoms: N_4  and  C_5 
REMARK    3  A    between atoms: C_5  and  C_6 
REMARK    4  A    between atoms: C_7  and  N_8 
REMARK    5  A    between atoms: N_9  and  N_10 
REMARK    6  A    between atoms: C_11  and  C_12 
REMARK    7  A    between atoms: C_13  and  O_14 
ROOT
HETATM    1  C   UNL     1      40.305 -14.217   0.592  1.00  0.00     0.104 C 
HETATM    2  C   UNL     1      40.860 -15.482   0.743  1.00  0.00     0.123 C 
HETATM    3  N   UNL     1      41.461 -15.518   1.999  1.00  0.00    -0.202 N 
HETATM    4  C   UNL     1      40.834 -14.573   2.781  1.00  0.00     0.183 A 
HETATM    5  C   UNL     1      40.171 -13.704   1.914  1.00  0.00     0.124 A 
HETATM    6  N   UNL     1      39.578 -12.576   2.379  1.00  0.00    -0.242 NA
HETATM    7  C   UNL     1      39.636 -12.414   3.712  1.00  0.00     0.086 A 
HETATM    8  C   UNL     1      40.296 -13.330   4.574  1.00  0.00     0.088 A 
HETATM    9  N   UNL     1      40.938 -14.420   4.122  1.00  0.00    -0.225 NA
HETATM   10  C   UNL     1      39.016 -11.301   4.266  1.00  0.00     0.034 A 
HETATM   11  C   UNL     1      39.013 -11.073   5.643  1.00  0.00     0.002 A 
HETATM   12  C   UNL     1      39.647 -11.977   6.485  1.00  0.00     0.002 A 
HETATM   13  C   UNL     1      40.283 -13.093   5.942  1.00  0.00     0.034 A 
ENDROOT
BRANCH   3  14
HETATM   14  N   UNL     1      42.536 -16.296   2.390  1.00  0.00    -0.176 NA
HETATM   15  C   UNL     1      42.164 -17.429   2.909  1.00  0.00     0.153 C 
BRANCH  15  16
HETATM   16  C   UNL     1      43.116 -18.450   3.373  1.00  0.00     0.017 A 
HETATM   17  C   UNL     1      43.861 -18.302   4.543  1.00  0.00     0.077 A 
HETATM   18  C   UNL     1      44.797 -19.272   4.896  1.00  0.00     0.039 A 
HETATM   19  C   UNL     1      44.982 -20.394   4.084  1.00  0.00     0.022 A 
HETATM   20  C   UNL     1      44.224 -20.543   2.923  1.00  0.00     0.012 A 
HETATM   21 BR   UNL     1      44.466 -22.064   1.826  1.00  0.00    -0.051 Br
HETATM   22  C   UNL     1      43.292 -19.575   2.557  1.00  0.00     0.034 A 
BRANCH  17  23
HETATM   23  O   UNL     1      43.737 -17.224   5.372  1.00  0.00    -0.360 OA
HETATM   24  H   UNL     1      44.010 -17.499   6.277  1.00  0.00     0.217 HD
ENDBRANCH  17  23
ENDBRANCH  15  16
ENDBRANCH   3  14
BRANCH   2  25
HETATM   25  N   UNL     1      40.973 -16.523  -0.143  1.00  0.00    -0.286 NA
HETATM   26  H   UNL     1      40.610 -17.426   0.177  1.00  0.00     0.125 HD
HETATM   27  H   UNL     1      40.640 -16.348  -1.096  1.00  0.00     0.125 HD
ENDBRANCH   2  25
BRANCH   1  28
HETATM   28  C   UNL     1      39.972 -13.577  -0.676  1.00  0.00     0.257 C 
HETATM   29  N   UNL     1      39.069 -14.316  -1.420  1.00  0.00    -0.356 N 
HETATM   30  H   UNL     1      38.851 -15.230  -1.039  1.00  0.00     0.162 HD
HETATM   31  O   UNL     1      40.499 -12.552  -1.089  1.00  0.00    -0.267 OA
BRANCH  29  32
HETATM   32  C   UNL     1      38.910 -14.145  -2.847  1.00  0.00     0.126 C 
BRANCH  32  33
HETATM   33  C   UNL     1      38.020 -15.230  -3.479  1.00  0.00    -0.005 C 
HETATM   34  C   UNL     1      38.829 -16.162  -4.381  1.00  0.00     0.011 C 
HETATM   35  C   UNL     1      36.830 -14.647  -4.249  1.00  0.00     0.011 C 
ENDBRANCH  32  33
ENDBRANCH  29  32
ENDBRANCH   1  28
TORSDOF 7
ENDMDL
MODEL 8
REMARK VINA RESULT:      -8.4      4.482      8.095
REMARK  7 active torsions:
REMARK  status: ('A' for Active; 'I' for Inactive)
REMARK    1  A    between atoms: C_2  and  C_3 
REMARK    2  A    between atoms: C_3  and  N_4 
REMARK       I    between atoms: N_4  and  C_5 
REMARK    3  A    between atoms: C_5  and  C_6 
REMARK    4  A    between atoms: C_7  and  N_8 
REMARK    5  A    between atoms: N_9  and  N_10 
REMARK    6  A    between atoms: C_11  and  C_12 
REMARK    7  A    between atoms: C_13  and  O_14 
ROOT
HETATM    1  C   UNL     1      41.361 -13.060   2.425  1.00  0.00     0.104 C 
HETATM    2  C   UNL     1      42.604 -13.601   2.734  1.00  0.00     0.123 C 
HETATM    3  N   UNL     1      42.750 -14.754   1.966  1.00  0.00    -0.202 N 
HETATM    4  C   UNL     1      41.934 -14.620   0.864  1.00  0.00     0.183 A 
HETATM    5  C   UNL     1      41.010 -13.620   1.164  1.00  0.00     0.124 A 
HETATM    6  N   UNL     1      39.975 -13.357   0.327  1.00  0.00    -0.242 NA
HETATM    7  C   UNL     1      39.961 -14.084  -0.803  1.00  0.00     0.086 A 
HETATM    8  C   UNL     1      40.933 -15.079  -1.094  1.00  0.00     0.088 A 
HETATM    9  N   UNL     1      41.929 -15.391  -0.248  1.00  0.00    -0.225 NA
HETATM   10  C   UNL     1      38.953 -13.843  -1.728  1.00  0.00     0.034 A 
HETATM   11  C   UNL     1      38.882 -14.540  -2.935  1.00  0.00     0.002 A 
HETATM   12  C   UNL     1      39.841 -15.502  -3.224  1.00  0.00     0.002 A 
HETATM   13  C   UNL     1      40.853 -15.762  -2.299  1.00  0.00     0.034 A 
ENDROOT
BRANCH   3  14
HETATM   14  N   UNL     1      43.510 -15.870   2.270  1.00  0.00    -0.176 NA
HETATM   15  C   UNL     1      42.886 -16.693   3.060  1.00  0.00     0.153 C 
BRANCH  15  16
HETATM   16  C   UNL     1      43.463 -17.971   3.505  1.00  0.00     0.017 A 
HETATM   17  C   UNL     1      44.052 -18.129   4.761  1.00  0.00     0.077 A 
HETATM   18  C   UNL     1      44.643 -19.344   5.100  1.00  0.00     0.039 A 
HETATM   19  C   UNL     1      44.638 -20.405   4.189  1.00  0.00     0.022 A 
HETATM   20  C   UNL     1      44.035 -20.243   2.941  1.00  0.00     0.012 A 
HETATM   21 BR   UNL     1      44.019 -21.678   1.709  1.00  0.00    -0.051 Br
HETATM   22  C   UNL     1      43.450 -19.031   2.590  1.00  0.00     0.034 A 
BRANCH  17  23
HETATM   23  O   UNL     1      44.102 -17.130   5.690  1.00  0.00    -0.360 OA
HETATM   24  H   UNL     1      43.190 -16.981   6.031  1.00  0.00     0.217 HD
ENDBRANCH  17  23
ENDBRANCH  15  16
ENDBRANCH   3  14
BRANCH   2  25
HETATM   25  N   UNL     1      43.531 -13.238   3.677  1.00  0.00    -0.286 NA
HETATM   26  H   UNL     1      43.457 -12.281   4.035  1.00  0.00     0.125 HD
HETATM   27  H   UNL     1      43.652 -13.880   4.466  1.00  0.00     0.125 HD
ENDBRANCH   2  25
BRANCH   1  28
HETATM   28  C   UNL     1      40.601 -12.139   3.262  1.00  0.00     0.257 C 
HETATM   29  N   UNL     1      41.415 -11.265   3.962  1.00  0.00    -0.356 N 
HETATM   30  H   UNL     1      42.408 -11.452   3.881  1.00  0.00     0.162 HD
HETATM   31  O   UNL     1      39.387 -12.187   3.412  1.00  0.00    -0.267 OA
BRANCH  29  32
HETATM   32  C   UNL     1      40.973 -10.570   5.150  1.00  0.00     0.126 C 
BRANCH  32  33
HETATM   33  C   UNL     1      41.103 -11.427   6.422  1.00  0.00    -0.005 C 
HETATM   34  C   UNL     1      39.737 -11.893   6.924  1.00  0.00     0.011 C 
HETATM   35  C   UNL     1      41.865 -10.712   7.544  1.00  0.00     0.011 C 
ENDBRANCH  32  33
ENDBRANCH  29  32
ENDBRANCH   1  28
TORSDOF 7
ENDMDL
MODEL 9
REMARK VINA RESULT:      -8.2      4.699      8.117
REMARK  7 active torsions:
REMARK  status: ('A' for Active; 'I' for Inactive)
REMARK    1  A    between atoms: C_2  and  C_3 
REMARK    2  A    between atoms: C_3  and  N_4 
REMARK       I    between atoms: N_4  and  C_5 
REMARK    3  A    between atoms: C_5  and  C_6 
REMARK    4  A    between atoms: C_7  and  N_8 
REMARK    5  A    between atoms: N_9  and  N_10 
REMARK    6  A    between atoms: C_11  and  C_12 
REMARK    7  A    between atoms: C_13  and  O_14 
ROOT
HETATM    1  C   UNL     1      41.300 -13.154   2.969  1.00  0.00     0.104 C 
HETATM    2  C   UNL     1      42.554 -13.690   3.241  1.00  0.00     0.123 C 
HETATM    3  N   UNL     1      42.732 -14.771   2.381  1.00  0.00    -0.202 N 
HETATM    4  C   UNL     1      41.920 -14.564   1.288  1.00  0.00     0.183 A 
HETATM    5  C   UNL     1      40.970 -13.615   1.663  1.00  0.00     0.124 A 
HETATM    6  N   UNL     1      39.934 -13.307   0.843  1.00  0.00    -0.242 NA
HETATM    7  C   UNL     1      39.945 -13.936  -0.345  1.00  0.00     0.086 A 
HETATM    8  C   UNL     1      40.942 -14.880  -0.710  1.00  0.00     0.088 A 
HETATM    9  N   UNL     1      41.940 -15.239   0.115  1.00  0.00    -0.225 NA
HETATM   10  C   UNL     1      38.937 -13.642  -1.255  1.00  0.00     0.034 A 
HETATM   11  C   UNL     1      38.890 -14.237  -2.516  1.00  0.00     0.002 A 
HETATM   12  C   UNL     1      39.873 -15.149  -2.876  1.00  0.00     0.002 A 
HETATM   13  C   UNL     1      40.886 -15.462  -1.969  1.00  0.00     0.034 A 
ENDROOT
BRANCH   3  14
HETATM   14  N   UNL     1      43.516 -15.890   2.597  1.00  0.00    -0.176 NA
HETATM   15  C   UNL     1      42.941 -16.755   3.379  1.00  0.00     0.153 C 
BRANCH  15  16
HETATM   16  C   UNL     1      43.551 -18.044   3.737  1.00  0.00     0.017 A 
HETATM   17  C   UNL     1      44.206 -18.251   4.952  1.00  0.00     0.077 A 
HETATM   18  C   UNL     1      44.825 -19.473   5.206  1.00  0.00     0.039 A 
HETATM   19  C   UNL     1      44.781 -20.493   4.251  1.00  0.00     0.022 A 
HETATM   20  C   UNL     1      44.113 -20.284   3.045  1.00  0.00     0.012 A 
HETATM   21 BR   UNL     1      44.045 -21.664   1.753  1.00  0.00    -0.051 Br
HETATM   22  C   UNL     1      43.499 -19.064   2.777  1.00  0.00     0.034 A 
BRANCH  17  23
HETATM   23  O   UNL     1      44.296 -17.293   5.920  1.00  0.00    -0.360 OA
HETATM   24  H   UNL     1      43.561 -16.650   5.786  1.00  0.00     0.217 HD
ENDBRANCH  17  23
ENDBRANCH  15  16
ENDBRANCH   3  14
BRANCH   2  25
HETATM   25  N   UNL     1      43.465 -13.386   4.219  1.00  0.00    -0.286 NA
HETATM   26  H   UNL     1      44.392 -13.810   4.117  1.00  0.00     0.125 HD
HETATM   27  H   UNL     1      43.578 -12.392   4.444  1.00  0.00     0.125 HD
ENDBRANCH   2  25
BRANCH   1  28
HETATM   28  C   UNL     1      40.513 -12.325   3.874  1.00  0.00     0.257 C 
HETATM   29  N   UNL     1      39.196 -12.201   3.467  1.00  0.00    -0.356 N 
HETATM   30  H   UNL     1      38.991 -12.606   2.560  1.00  0.00     0.162 HD
HETATM   31  O   UNL     1      40.975 -11.723   4.835  1.00  0.00    -0.267 OA
BRANCH  29  32
HETATM   32  C   UNL     1      38.339 -11.125   3.914  1.00  0.00     0.126 C 
BRANCH  32  33
HETATM   33  C   UNL     1      37.926 -10.182   2.770  1.00  0.00    -0.005 C 
HETATM   34  C   UNL     1      37.453 -10.964   1.544  1.00  0.00     0.011 C 
HETATM   35  C   UNL     1      39.038  -9.202   2.377  1.00  0.00     0.011 C 
ENDBRANCH  32  33
ENDBRANCH  29  32
ENDBRANCH   1  28
TORSDOF 7
ENDMDL
MODEL 10
REMARK VINA RESULT:      -8.2      3.422      7.624
REMARK  7 active torsions:
REMARK  status: ('A' for Active; 'I' for Inactive)
REMARK    1  A    between atoms: C_2  and  C_3 
REMARK    2  A    between atoms: C_3  and  N_4 
REMARK       I    between atoms: N_4  and  C_5 
REMARK    3  A    between atoms: C_5  and  C_6 
REMARK    4  A    between atoms: C_7  and  N_8 
REMARK    5  A    between atoms: N_9  and  N_10 
REMARK    6  A    between atoms: C_11  and  C_12 
REMARK    7  A    between atoms: C_13  and  O_14 
ROOT
HETATM    1  C   UNL     1      41.771 -12.504   5.927  1.00  0.00     0.104 C 
HETATM    2  C   UNL     1      42.612 -13.597   6.105  1.00  0.00     0.123 C 
HETATM    3  N   UNL     1      41.999 -14.688   5.493  1.00  0.00    -0.202 N 
HETATM    4  C   UNL     1      41.149 -14.194   4.528  1.00  0.00     0.183 A 
HETATM    5  C   UNL     1      40.932 -12.850   4.829  1.00  0.00     0.124 A 
HETATM    6  N   UNL     1      40.017 -12.122   4.141  1.00  0.00    -0.242 NA
HETATM    7  C   UNL     1      39.408 -12.779   3.140  1.00  0.00     0.086 A 
HETATM    8  C   UNL     1      39.668 -14.143   2.839  1.00  0.00     0.088 A 
HETATM    9  N   UNL     1      40.527 -14.892   3.549  1.00  0.00    -0.225 NA
HETATM   10  C   UNL     1      38.486 -12.087   2.363  1.00  0.00     0.034 A 
HETATM   11  C   UNL     1      37.827 -12.693   1.293  1.00  0.00     0.002 A 
HETATM   12  C   UNL     1      38.093 -14.022   0.992  1.00  0.00     0.002 A 
HETATM   13  C   UNL     1      39.008 -14.732   1.770  1.00  0.00     0.034 A 
ENDROOT
BRANCH   3  14
HETATM   14  N   UNL     1      42.145 -16.023   5.824  1.00  0.00    -0.176 NA
HETATM   15  C   UNL     1      43.071 -16.609   5.123  1.00  0.00     0.153 C 
BRANCH  15  16
HETATM   16  C   UNL     1      43.445 -18.019   5.307  1.00  0.00     0.017 A 
HETATM   17  C   UNL     1      43.474 -18.629   6.562  1.00  0.00     0.077 A 
HETATM   18  C   UNL     1      43.902 -19.950   6.680  1.00  0.00     0.039 A 
HETATM   19  C   UNL     1      44.292 -20.665   5.544  1.00  0.00     0.022 A 
HETATM   20  C   UNL     1      44.247 -20.053   4.291  1.00  0.00     0.012 A 
HETATM   21 BR   UNL     1      44.766 -21.019   2.751  1.00  0.00    -0.051 Br
HETATM   22  C   UNL     1      43.829 -18.732   4.163  1.00  0.00     0.034 A 
BRANCH  17  23
HETATM   23  O   UNL     1      43.118 -17.983   7.711  1.00  0.00    -0.360 OA
HETATM   24  H   UNL     1      42.830 -18.658   8.367  1.00  0.00     0.217 HD
ENDBRANCH  17  23
ENDBRANCH  15  16
ENDBRANCH   3  14
BRANCH   2  25
HETATM   25  N   UNL     1      43.769 -13.729   6.828  1.00  0.00    -0.286 NA
HETATM   26  H   UNL     1      43.760 -13.324   7.769  1.00  0.00     0.125 HD
HETATM   27  H   UNL     1      44.172 -14.670   6.874  1.00  0.00     0.125 HD
ENDBRANCH   2  25
BRANCH   1  28
HETATM   28  C   UNL     1      41.766 -11.292   6.738  1.00  0.00     0.257 C 
HETATM   29  N   UNL     1      42.470 -11.443   7.919  1.00  0.00    -0.356 N 
HETATM   30  H   UNL     1      42.793 -12.386   8.104  1.00  0.00     0.162 HD
HETATM   31  O   UNL     1      41.133 -10.281   6.460  1.00  0.00    -0.267 OA
BRANCH  29  32
HETATM   32  C   UNL     1      42.265 -10.584   9.064  1.00  0.00     0.126 C 
BRANCH  32  33
HETATM   33  C   UNL     1      43.458 -10.598  10.037  1.00  0.00    -0.005 C 
HETATM   34  C   UNL     1      44.646 -11.363   9.454  1.00  0.00     0.011 C 
HETATM   35  C   UNL     1      43.092 -11.157  11.417  1.00  0.00     0.011 C 
ENDBRANCH  32  33
ENDBRANCH  29  32
ENDBRANCH   1  28
TORSDOF 7
ENDMDL
