MODEL 1
REMARK VINA RESULT:      -7.8      0.000      0.000
REMARK  2 active torsions:
REMARK  status: ('A' for Active; 'I' for Inactive)
REMARK       I    between atoms: C_2  and  N_3 
REMARK    1  A    between atoms: N_3  and  C_4 
REMARK    2  A    between atoms: C_15  and  N_16 
REMARK       I    between atoms: N_16  and  C_17 
ROOT
HETATM    1  C   UNL     1      41.493 -12.932   5.812  1.00  0.00     0.036 A 
HETATM    2  C   UNL     1      41.698 -14.316   5.836  1.00  0.00     0.062 A 
HETATM    3  C   UNL     1      42.247 -15.000   4.755  1.00  0.00     0.070 A 
HETATM    4  C   UNL     1      42.602 -14.267   3.608  1.00  0.00    -0.006 A 
HETATM    5  C   UNL     1      42.402 -12.879   3.568  1.00  0.00     0.016 A 
HETATM    6  C   UNL     1      41.852 -12.218   4.666  1.00  0.00     0.030 A 
HETATM    7  N   UNL     1      42.425 -16.332   4.830  1.00  0.00    -0.247 NA
HETATM    8  C   UNL     1      42.956 -16.999   3.791  1.00  0.00     0.070 A 
HETATM    9  C   UNL     1      43.339 -16.346   2.605  1.00  0.00    -0.006 A 
HETATM   10  C   UNL     1      43.153 -14.963   2.528  1.00  0.00     0.027 A 
HETATM   11  C   UNL     1      43.139 -18.376   3.878  1.00  0.00     0.062 A 
HETATM   12  C   UNL     1      43.688 -19.120   2.828  1.00  0.00     0.036 A 
HETATM   13  C   UNL     1      44.061 -18.457   1.657  1.00  0.00     0.030 A 
HETATM   14  C   UNL     1      43.890 -17.078   1.543  1.00  0.00     0.016 A 
ENDROOT
BRANCH   1  15
HETATM   15  N   UNL     1      40.946 -12.190   6.881  1.00  0.00    -0.327 N 
HETATM   16  C   UNL     1      39.651 -11.723   7.009  1.00  0.00     0.218 C 
HETATM   17  C   UNL     1      39.432 -10.972   8.300  1.00  0.00     0.117 C 
HETATM   18  O   UNL     1      38.741 -11.839   6.196  1.00  0.00    -0.274 OA
HETATM   19  H   UNL     1      41.583 -11.969   7.636  1.00  0.00     0.169 HD
ENDBRANCH   1  15
BRANCH  12  20
HETATM   20  N   UNL     1      43.894 -20.517   2.864  1.00  0.00    -0.327 N 
HETATM   21  C   UNL     1      44.688 -21.229   3.744  1.00  0.00     0.218 C 
HETATM   22  C   UNL     1      44.674 -22.716   3.481  1.00  0.00     0.117 C 
HETATM   23  O   UNL     1      45.365 -20.773   4.658  1.00  0.00    -0.274 OA
HETATM   24  H   UNL     1      43.405 -21.052   2.159  1.00  0.00     0.169 HD
ENDBRANCH  12  20
TORSDOF 2
ENDMDL
MODEL 2
REMARK VINA RESULT:      -7.7      0.080      7.953
REMARK  2 active torsions:
REMARK  status: ('A' for Active; 'I' for Inactive)
REMARK       I    between atoms: C_2  and  N_3 
REMARK    1  A    between atoms: N_3  and  C_4 
REMARK    2  A    between atoms: C_15  and  N_16 
REMARK       I    between atoms: N_16  and  C_17 
ROOT
HETATM    1  C   UNL     1      43.687 -19.132   2.769  1.00  0.00     0.036 A 
HETATM    2  C   UNL     1      43.168 -18.382   3.830  1.00  0.00     0.062 A 
HETATM    3  C   UNL     1      42.969 -17.007   3.734  1.00  0.00     0.070 A 
HETATM    4  C   UNL     1      43.305 -16.364   2.530  1.00  0.00    -0.006 A 
HETATM    5  C   UNL     1      43.827 -17.101   1.457  1.00  0.00     0.016 A 
HETATM    6  C   UNL     1      44.014 -18.478   1.578  1.00  0.00     0.030 A 
HETATM    7  N   UNL     1      42.465 -16.333   4.784  1.00  0.00    -0.247 NA
HETATM    8  C   UNL     1      42.269 -15.006   4.699  1.00  0.00     0.070 A 
HETATM    9  C   UNL     1      42.577 -14.281   3.533  1.00  0.00    -0.006 A 
HETATM   10  C   UNL     1      43.101 -14.983   2.444  1.00  0.00     0.027 A 
HETATM   11  C   UNL     1      41.745 -14.315   5.789  1.00  0.00     0.062 A 
HETATM   12  C   UNL     1      41.519 -12.935   5.755  1.00  0.00     0.036 A 
HETATM   13  C   UNL     1      41.832 -12.230   4.590  1.00  0.00     0.030 A 
HETATM   14  C   UNL     1      42.358 -12.897   3.484  1.00  0.00     0.016 A 
ENDROOT
BRANCH   1  15
HETATM   15  N   UNL     1      43.902 -20.527   2.811  1.00  0.00    -0.327 N 
HETATM   16  C   UNL     1      44.693 -21.232   3.701  1.00  0.00     0.218 C 
HETATM   17  C   UNL     1      44.672 -22.718   3.439  1.00  0.00     0.117 C 
HETATM   18  O   UNL     1      45.382 -20.769   4.602  1.00  0.00    -0.274 OA
HETATM   19  H   UNL     1      43.428 -21.068   2.100  1.00  0.00     0.169 HD
ENDBRANCH   1  15
BRANCH  12  20
HETATM   20  N   UNL     1      40.991 -12.187   6.830  1.00  0.00    -0.327 N 
HETATM   21  C   UNL     1      39.680 -11.786   7.013  1.00  0.00     0.218 C 
HETATM   22  C   UNL     1      39.478 -10.993   8.282  1.00  0.00     0.117 C 
HETATM   23  O   UNL     1      38.732 -12.004   6.267  1.00  0.00    -0.274 OA
HETATM   24  H   UNL     1      41.653 -11.914   7.543  1.00  0.00     0.169 HD
ENDBRANCH  12  20
TORSDOF 2
ENDMDL
MODEL 3
REMARK VINA RESULT:      -7.6      4.021      5.481
REMARK  2 active torsions:
REMARK  status: ('A' for Active; 'I' for Inactive)
REMARK       I    between atoms: C_2  and  N_3 
REMARK    1  A    between atoms: N_3  and  C_4 
REMARK    2  A    between atoms: C_15  and  N_16 
REMARK       I    between atoms: N_16  and  C_17 
ROOT
HETATM    1  C   UNL     1      43.983 -14.538   6.960  1.00  0.00     0.036 A 
HETATM    2  C   UNL     1      43.393 -14.143   5.754  1.00  0.00     0.062 A 
HETATM    3  C   UNL     1      43.052 -15.061   4.764  1.00  0.00     0.070 A 
HETATM    4  C   UNL     1      43.313 -16.423   4.994  1.00  0.00    -0.006 A 
HETATM    5  C   UNL     1      43.904 -16.835   6.198  1.00  0.00     0.016 A 
HETATM    6  C   UNL     1      44.234 -15.896   7.174  1.00  0.00     0.030 A 
HETATM    7  N   UNL     1      42.485 -14.628   3.623  1.00  0.00    -0.247 NA
HETATM    8  C   UNL     1      42.151 -15.509   2.663  1.00  0.00     0.070 A 
HETATM    9  C   UNL     1      42.377 -16.889   2.808  1.00  0.00    -0.006 A 
HETATM   10  C   UNL     1      42.966 -17.337   3.994  1.00  0.00     0.027 A 
HETATM   11  C   UNL     1      41.563 -15.054   1.485  1.00  0.00     0.062 A 
HETATM   12  C   UNL     1      41.195 -15.925   0.455  1.00  0.00     0.036 A 
HETATM   13  C   UNL     1      41.427 -17.293   0.615  1.00  0.00     0.030 A 
HETATM   14  C   UNL     1      42.014 -17.775   1.784  1.00  0.00     0.016 A 
ENDROOT
BRANCH   1  15
HETATM   15  N   UNL     1      44.343 -13.650   7.997  1.00  0.00    -0.327 N 
HETATM   16  C   UNL     1      45.500 -12.901   8.104  1.00  0.00     0.218 C 
HETATM   17  C   UNL     1      45.530 -12.058   9.355  1.00  0.00     0.117 C 
HETATM   18  O   UNL     1      46.448 -12.894   7.327  1.00  0.00    -0.274 OA
HETATM   19  H   UNL     1      43.677 -13.563   8.754  1.00  0.00     0.169 HD
ENDBRANCH   1  15
BRANCH  12  20
HETATM   20  N   UNL     1      40.596 -15.517  -0.757  1.00  0.00    -0.327 N 
HETATM   21  C   UNL     1      41.012 -14.506  -1.604  1.00  0.00     0.218 C 
HETATM   22  C   UNL     1      40.124 -14.347  -2.815  1.00  0.00     0.117 C 
HETATM   23  O   UNL     1      41.982 -13.772  -1.453  1.00  0.00    -0.274 OA
HETATM   24  H   UNL     1      39.766 -16.025  -1.030  1.00  0.00     0.169 HD
ENDBRANCH  12  20
TORSDOF 2
ENDMDL
MODEL 4
REMARK VINA RESULT:      -7.3      2.770      7.664
REMARK  2 active torsions:
REMARK  status: ('A' for Active; 'I' for Inactive)
REMARK       I    between atoms: C_2  and  N_3 
REMARK    1  A    between atoms: N_3  and  C_4 
REMARK    2  A    between atoms: C_15  and  N_16 
REMARK       I    between atoms: N_16  and  C_17 
ROOT
HETATM    1  C   UNL     1      42.968 -18.668   2.396  1.00  0.00     0.036 A 
HETATM    2  C   UNL     1      43.484 -18.087   3.559  1.00  0.00     0.062 A 
HETATM    3  C   UNL     1      43.121 -16.807   3.969  1.00  0.00     0.070 A 
HETATM    4  C   UNL     1      42.206 -16.085   3.181  1.00  0.00    -0.006 A 
HETATM    5  C   UNL     1      41.679 -16.654   2.013  1.00  0.00     0.016 A 
HETATM    6  C   UNL     1      42.058 -17.939   1.626  1.00  0.00     0.030 A 
HETATM    7  N   UNL     1      43.646 -16.295   5.097  1.00  0.00    -0.247 NA
HETATM    8  C   UNL     1      43.298 -15.060   5.500  1.00  0.00     0.070 A 
HETATM    9  C   UNL     1      42.391 -14.268   4.774  1.00  0.00    -0.006 A 
HETATM   10  C   UNL     1      41.847 -14.801   3.602  1.00  0.00     0.027 A 
HETATM   11  C   UNL     1      43.844 -14.538   6.670  1.00  0.00     0.062 A 
HETATM   12  C   UNL     1      43.517 -13.261   7.136  1.00  0.00     0.036 A 
HETATM   13  C   UNL     1      42.616 -12.486   6.402  1.00  0.00     0.030 A 
HETATM   14  C   UNL     1      42.054 -12.985   5.228  1.00  0.00     0.016 A 
ENDROOT
BRANCH   1  15
HETATM   15  N   UNL     1      43.298 -19.962   1.940  1.00  0.00    -0.327 N 
HETATM   16  C   UNL     1      44.265 -20.814   2.443  1.00  0.00     0.218 C 
HETATM   17  C   UNL     1      44.325 -22.125   1.698  1.00  0.00     0.117 C 
HETATM   18  O   UNL     1      45.040 -20.586   3.364  1.00  0.00    -0.274 OA
HETATM   19  H   UNL     1      42.769 -20.298   1.145  1.00  0.00     0.169 HD
ENDBRANCH   1  15
BRANCH  12  20
HETATM   20  N   UNL     1      44.041 -12.684   8.314  1.00  0.00    -0.327 N 
HETATM   21  C   UNL     1      45.365 -12.402   8.598  1.00  0.00     0.218 C 
HETATM   22  C   UNL     1      45.558 -11.786   9.963  1.00  0.00     0.117 C 
HETATM   23  O   UNL     1      46.332 -12.607   7.874  1.00  0.00    -0.274 OA
HETATM   24  H   UNL     1      43.365 -12.456   9.030  1.00  0.00     0.169 HD
ENDBRANCH  12  20
TORSDOF 2
ENDMDL
MODEL 5
REMARK VINA RESULT:      -7.3      4.139      7.976
REMARK  2 active torsions:
REMARK  status: ('A' for Active; 'I' for Inactive)
REMARK       I    between atoms: C_2  and  N_3 
REMARK    1  A    between atoms: N_3  and  C_4 
REMARK    2  A    between atoms: C_15  and  N_16 
REMARK       I    between atoms: N_16  and  C_17 
ROOT
HETATM    1  C   UNL     1      42.824 -18.210   3.153  1.00  0.00     0.036 A 
HETATM    2  C   UNL     1      41.660 -17.439   3.247  1.00  0.00     0.062 A 
HETATM    3  C   UNL     1      41.232 -16.618   2.208  1.00  0.00     0.070 A 
HETATM    4  C   UNL     1      42.002 -16.569   1.032  1.00  0.00    -0.006 A 
HETATM    5  C   UNL     1      43.172 -17.334   0.922  1.00  0.00     0.016 A 
HETATM    6  C   UNL     1      43.577 -18.151   1.978  1.00  0.00     0.030 A 
HETATM    7  N   UNL     1      40.103 -15.898   2.349  1.00  0.00    -0.247 NA
HETATM    8  C   UNL     1      39.683 -15.104   1.349  1.00  0.00     0.070 A 
HETATM    9  C   UNL     1      40.391 -14.993   0.139  1.00  0.00    -0.006 A 
HETATM   10  C   UNL     1      41.564 -15.741  -0.006  1.00  0.00     0.027 A 
HETATM   11  C   UNL     1      38.513 -14.364   1.502  1.00  0.00     0.062 A 
HETATM   12  C   UNL     1      38.029 -13.524   0.494  1.00  0.00     0.036 A 
HETATM   13  C   UNL     1      38.745 -13.424  -0.701  1.00  0.00     0.030 A 
HETATM   14  C   UNL     1      39.920 -14.154  -0.881  1.00  0.00     0.016 A 
ENDROOT
BRANCH   1  15
HETATM   15  N   UNL     1      43.298 -19.062   4.174  1.00  0.00    -0.327 N 
HETATM   16  C   UNL     1      43.924 -18.700   5.353  1.00  0.00     0.218 C 
HETATM   17  C   UNL     1      44.284 -19.892   6.205  1.00  0.00     0.117 C 
HETATM   18  O   UNL     1      44.213 -17.566   5.716  1.00  0.00    -0.274 OA
HETATM   19  H   UNL     1      43.172 -20.053   4.014  1.00  0.00     0.169 HD
ENDBRANCH   1  15
BRANCH  12  20
HETATM   20  N   UNL     1      36.850 -12.753   0.597  1.00  0.00    -0.327 N 
HETATM   21  C   UNL     1      36.749 -11.401   0.867  1.00  0.00     0.218 C 
HETATM   22  C   UNL     1      35.321 -10.911   0.905  1.00  0.00     0.117 C 
HETATM   23  O   UNL     1      37.671 -10.620   1.071  1.00  0.00    -0.274 OA
HETATM   24  H   UNL     1      35.983 -13.255   0.460  1.00  0.00     0.169 HD
ENDBRANCH  12  20
TORSDOF 2
ENDMDL
MODEL 6
REMARK VINA RESULT:      -7.2      3.749      7.198
REMARK  2 active torsions:
REMARK  status: ('A' for Active; 'I' for Inactive)
REMARK       I    between atoms: C_2  and  N_3 
REMARK    1  A    between atoms: N_3  and  C_4 
REMARK    2  A    between atoms: C_15  and  N_16 
REMARK       I    between atoms: N_16  and  C_17 
ROOT
HETATM    1  C   UNL     1      43.459 -19.044   4.662  1.00  0.00     0.036 A 
HETATM    2  C   UNL     1      42.504 -18.036   4.496  1.00  0.00     0.062 A 
HETATM    3  C   UNL     1      42.268 -17.438   3.261  1.00  0.00     0.070 A 
HETATM    4  C   UNL     1      43.019 -17.870   2.153  1.00  0.00    -0.006 A 
HETATM    5  C   UNL     1      43.980 -18.880   2.303  1.00  0.00     0.016 A 
HETATM    6  C   UNL     1      44.196 -19.463   3.551  1.00  0.00     0.030 A 
HETATM    7  N   UNL     1      41.336 -16.473   3.155  1.00  0.00    -0.247 NA
HETATM    8  C   UNL     1      41.102 -15.893   1.966  1.00  0.00     0.070 A 
HETATM    9  C   UNL     1      41.806 -16.262   0.806  1.00  0.00    -0.006 A 
HETATM   10  C   UNL     1      42.774 -17.265   0.917  1.00  0.00     0.027 A 
HETATM   11  C   UNL     1      40.135 -14.896   1.864  1.00  0.00     0.062 A 
HETATM   12  C   UNL     1      39.848 -14.260   0.652  1.00  0.00     0.036 A 
HETATM   13  C   UNL     1      40.558 -14.637  -0.491  1.00  0.00     0.030 A 
HETATM   14  C   UNL     1      41.532 -15.633  -0.417  1.00  0.00     0.016 A 
ENDROOT
BRANCH   1  15
HETATM   15  N   UNL     1      43.734 -19.686   5.889  1.00  0.00    -0.327 N 
HETATM   16  C   UNL     1      43.600 -19.164   7.163  1.00  0.00     0.218 C 
HETATM   17  C   UNL     1      43.983 -20.154   8.236  1.00  0.00     0.117 C 
HETATM   18  O   UNL     1      43.248 -18.029   7.461  1.00  0.00    -0.274 OA
HETATM   19  H   UNL     1      44.077 -20.636   5.823  1.00  0.00     0.169 HD
ENDBRANCH   1  15
BRANCH  12  20
HETATM   20  N   UNL     1      38.879 -13.245   0.494  1.00  0.00    -0.327 N 
HETATM   21  C   UNL     1      37.505 -13.370   0.588  1.00  0.00     0.218 C 
HETATM   22  C   UNL     1      36.777 -12.068   0.356  1.00  0.00     0.117 C 
HETATM   23  O   UNL     1      36.874 -14.393   0.825  1.00  0.00    -0.274 OA
HETATM   24  H   UNL     1      39.238 -12.323   0.284  1.00  0.00     0.169 HD
ENDBRANCH  12  20
TORSDOF 2
ENDMDL
MODEL 7
REMARK VINA RESULT:      -7.2      3.504      7.621
REMARK  2 active torsions:
REMARK  status: ('A' for Active; 'I' for Inactive)
REMARK       I    between atoms: C_2  and  N_3 
REMARK    1  A    between atoms: N_3  and  C_4 
REMARK    2  A    between atoms: C_15  and  N_16 
REMARK       I    between atoms: N_16  and  C_17 
ROOT
HETATM    1  C   UNL     1      44.086 -19.266   4.449  1.00  0.00     0.036 A 
HETATM    2  C   UNL     1      43.227 -18.900   3.406  1.00  0.00     0.062 A 
HETATM    3  C   UNL     1      42.591 -17.662   3.374  1.00  0.00     0.070 A 
HETATM    4  C   UNL     1      42.827 -16.760   4.427  1.00  0.00    -0.006 A 
HETATM    5  C   UNL     1      43.685 -17.112   5.479  1.00  0.00     0.016 A 
HETATM    6  C   UNL     1      44.311 -18.358   5.486  1.00  0.00     0.030 A 
HETATM    7  N   UNL     1      41.776 -17.358   2.348  1.00  0.00    -0.247 NA
HETATM    8  C   UNL     1      41.160 -16.164   2.309  1.00  0.00     0.070 A 
HETATM    9  C   UNL     1      41.337 -15.202   3.319  1.00  0.00    -0.006 A 
HETATM   10  C   UNL     1      42.185 -15.519   4.386  1.00  0.00     0.027 A 
HETATM   11  C   UNL     1      40.320 -15.856   1.242  1.00  0.00     0.062 A 
HETATM   12  C   UNL     1      39.655 -14.630   1.150  1.00  0.00     0.036 A 
HETATM   13  C   UNL     1      39.841 -13.685   2.163  1.00  0.00     0.030 A 
HETATM   14  C   UNL     1      40.677 -13.967   3.242  1.00  0.00     0.016 A 
ENDROOT
BRANCH   1  15
HETATM   15  N   UNL     1      44.759 -20.505   4.526  1.00  0.00    -0.327 N 
HETATM   16  C   UNL     1      44.602 -21.492   5.482  1.00  0.00     0.218 C 
HETATM   17  C   UNL     1      45.492 -22.685   5.232  1.00  0.00     0.117 C 
HETATM   18  O   UNL     1      43.868 -21.459   6.462  1.00  0.00    -0.274 OA
HETATM   19  H   UNL     1      45.442 -20.682   3.801  1.00  0.00     0.169 HD
ENDBRANCH   1  15
BRANCH  12  20
HETATM   20  N   UNL     1      38.793 -14.267   0.092  1.00  0.00    -0.327 N 
HETATM   21  C   UNL     1      39.144 -13.926  -1.202  1.00  0.00     0.218 C 
HETATM   22  C   UNL     1      37.953 -13.590  -2.067  1.00  0.00     0.117 C 
HETATM   23  O   UNL     1      40.276 -13.872  -1.667  1.00  0.00    -0.274 OA
HETATM   24  H   UNL     1      37.806 -14.254   0.313  1.00  0.00     0.169 HD
ENDBRANCH  12  20
TORSDOF 2
ENDMDL
MODEL 8
REMARK VINA RESULT:      -7.1      2.880      7.650
REMARK  2 active torsions:
REMARK  status: ('A' for Active; 'I' for Inactive)
REMARK       I    between atoms: C_2  and  N_3 
REMARK    1  A    between atoms: N_3  and  C_4 
REMARK    2  A    between atoms: C_15  and  N_16 
REMARK       I    between atoms: N_16  and  C_17 
ROOT
HETATM    1  C   UNL     1      43.944 -19.007   5.691  1.00  0.00     0.036 A 
HETATM    2  C   UNL     1      42.903 -18.492   4.910  1.00  0.00     0.062 A 
HETATM    3  C   UNL     1      42.583 -17.137   4.908  1.00  0.00     0.070 A 
HETATM    4  C   UNL     1      43.336 -16.270   5.718  1.00  0.00    -0.006 A 
HETATM    5  C   UNL     1      44.383 -16.770   6.506  1.00  0.00     0.016 A 
HETATM    6  C   UNL     1      44.684 -18.132   6.489  1.00  0.00     0.030 A 
HETATM    7  N   UNL     1      41.573 -16.693   4.137  1.00  0.00    -0.247 NA
HETATM    8  C   UNL     1      41.260 -15.386   4.128  1.00  0.00     0.070 A 
HETATM    9  C   UNL     1      41.959 -14.447   4.908  1.00  0.00    -0.006 A 
HETATM   10  C   UNL     1      43.008 -14.910   5.708  1.00  0.00     0.027 A 
HETATM   11  C   UNL     1      40.214 -14.934   3.327  1.00  0.00     0.062 A 
HETATM   12  C   UNL     1      39.846 -13.586   3.277  1.00  0.00     0.036 A 
HETATM   13  C   UNL     1      40.551 -12.666   4.059  1.00  0.00     0.030 A 
HETATM   14  C   UNL     1      41.602 -13.092   4.870  1.00  0.00     0.016 A 
ENDROOT
BRANCH   1  15
HETATM   15  N   UNL     1      44.313 -20.370   5.725  1.00  0.00    -0.327 N 
HETATM   16  C   UNL     1      44.855 -21.124   4.701  1.00  0.00     0.218 C 
HETATM   17  C   UNL     1      45.127 -22.549   5.114  1.00  0.00     0.117 C 
HETATM   18  O   UNL     1      45.086 -20.754   3.556  1.00  0.00    -0.274 OA
HETATM   19  H   UNL     1      44.150 -20.848   6.602  1.00  0.00     0.169 HD
ENDBRANCH   1  15
BRANCH  12  20
HETATM   20  N   UNL     1      38.796 -13.074   2.483  1.00  0.00    -0.327 N 
HETATM   21  C   UNL     1      38.579 -13.287   1.134  1.00  0.00     0.218 C 
HETATM   22  C   UNL     1      37.353 -12.576   0.614  1.00  0.00     0.117 C 
HETATM   23  O   UNL     1      39.267 -13.961   0.376  1.00  0.00    -0.274 OA
HETATM   24  H   UNL     1      38.131 -12.482   2.962  1.00  0.00     0.169 HD
ENDBRANCH  12  20
TORSDOF 2
ENDMDL
MODEL 9
REMARK VINA RESULT:      -7.0      4.379      8.421
REMARK  2 active torsions:
REMARK  status: ('A' for Active; 'I' for Inactive)
REMARK       I    between atoms: C_2  and  N_3 
REMARK    1  A    between atoms: N_3  and  C_4 
REMARK    2  A    between atoms: C_15  and  N_16 
REMARK       I    between atoms: N_16  and  C_17 
ROOT
HETATM    1  C   UNL     1      43.149 -18.908   2.736  1.00  0.00     0.036 A 
HETATM    2  C   UNL     1      42.739 -18.172   1.620  1.00  0.00     0.062 A 
HETATM    3  C   UNL     1      41.884 -17.079   1.731  1.00  0.00     0.070 A 
HETATM    4  C   UNL     1      41.426 -16.713   3.008  1.00  0.00    -0.006 A 
HETATM    5  C   UNL     1      41.828 -17.441   4.138  1.00  0.00     0.016 A 
HETATM    6  C   UNL     1      42.687 -18.531   3.999  1.00  0.00     0.030 A 
HETATM    7  N   UNL     1      41.520 -16.403   0.625  1.00  0.00    -0.247 NA
HETATM    8  C   UNL     1      40.697 -15.345   0.724  1.00  0.00     0.070 A 
HETATM    9  C   UNL     1      40.190 -14.910   1.962  1.00  0.00    -0.006 A 
HETATM   10  C   UNL     1      40.568 -15.613   3.109  1.00  0.00     0.027 A 
HETATM   11  C   UNL     1      40.327 -14.650  -0.425  1.00  0.00     0.062 A 
HETATM   12  C   UNL     1      39.474 -13.542  -0.380  1.00  0.00     0.036 A 
HETATM   13  C   UNL     1      38.979 -13.123   0.857  1.00  0.00     0.030 A 
HETATM   14  C   UNL     1      39.333 -13.801   2.023  1.00  0.00     0.016 A 
ENDROOT
BRANCH   1  15
HETATM   15  N   UNL     1      44.018 -20.020   2.680  1.00  0.00    -0.327 N 
HETATM   16  C   UNL     1      43.767 -21.260   2.121  1.00  0.00     0.218 C 
HETATM   17  C   UNL     1      44.942 -22.198   2.245  1.00  0.00     0.117 C 
HETATM   18  O   UNL     1      42.725 -21.634   1.596  1.00  0.00    -0.274 OA
HETATM   19  H   UNL     1      44.926 -19.893   3.109  1.00  0.00     0.169 HD
ENDBRANCH   1  15
BRANCH  12  20
HETATM   20  N   UNL     1      39.068 -12.802  -1.512  1.00  0.00    -0.327 N 
HETATM   21  C   UNL     1      38.237 -13.218  -2.536  1.00  0.00     0.218 C 
HETATM   22  C   UNL     1      38.022 -12.157  -3.590  1.00  0.00     0.117 C 
HETATM   23  O   UNL     1      37.700 -14.314  -2.650  1.00  0.00    -0.274 OA
HETATM   24  H   UNL     1      39.434 -11.862  -1.577  1.00  0.00     0.169 HD
ENDBRANCH  12  20
TORSDOF 2
ENDMDL
MODEL 10
REMARK VINA RESULT:      -6.9      2.445      8.060
REMARK  2 active torsions:
REMARK  status: ('A' for Active; 'I' for Inactive)
REMARK       I    between atoms: C_2  and  N_3 
REMARK    1  A    between atoms: N_3  and  C_4 
REMARK    2  A    between atoms: C_15  and  N_16 
REMARK       I    between atoms: N_16  and  C_17 
ROOT
HETATM    1  C   UNL     1      43.946 -19.543   3.554  1.00  0.00     0.036 A 
HETATM    2  C   UNL     1      43.115 -18.514   4.012  1.00  0.00     0.062 A 
HETATM    3  C   UNL     1      42.580 -17.559   3.153  1.00  0.00     0.070 A 
HETATM    4  C   UNL     1      42.890 -17.640   1.784  1.00  0.00    -0.006 A 
HETATM    5  C   UNL     1      43.721 -18.664   1.308  1.00  0.00     0.016 A 
HETATM    6  C   UNL     1      44.243 -19.610   2.190  1.00  0.00     0.030 A 
HETATM    7  N   UNL     1      41.785 -16.591   3.645  1.00  0.00    -0.247 NA
HETATM    8  C   UNL     1      41.262 -15.666   2.821  1.00  0.00     0.070 A 
HETATM    9  C   UNL     1      41.520 -15.671   1.439  1.00  0.00    -0.006 A 
HETATM   10  C   UNL     1      42.347 -16.677   0.929  1.00  0.00     0.027 A 
HETATM   11  C   UNL     1      40.439 -14.669   3.338  1.00  0.00     0.062 A 
HETATM   12  C   UNL     1      39.868 -13.683   2.527  1.00  0.00     0.036 A 
HETATM   13  C   UNL     1      40.135 -13.701   1.156  1.00  0.00     0.030 A 
HETATM   14  C   UNL     1      40.956 -14.688   0.612  1.00  0.00     0.016 A 
ENDROOT
BRANCH   1  15
HETATM   15  N   UNL     1      44.509 -20.538   4.381  1.00  0.00    -0.327 N 
HETATM   16  C   UNL     1      44.666 -21.883   4.096  1.00  0.00     0.218 C 
HETATM   17  C   UNL     1      45.319 -22.640   5.226  1.00  0.00     0.117 C 
HETATM   18  O   UNL     1      44.312 -22.467   3.078  1.00  0.00    -0.274 OA
HETATM   19  H   UNL     1      44.825 -20.229   5.291  1.00  0.00     0.169 HD
ENDBRANCH   1  15
BRANCH  12  20
HETATM   20  N   UNL     1      39.027 -12.651   2.999  1.00  0.00    -0.327 N 
HETATM   21  C   UNL     1      39.395 -11.374   3.382  1.00  0.00     0.218 C 
HETATM   22  C   UNL     1      38.225 -10.535   3.839  1.00  0.00     0.117 C 
HETATM   23  O   UNL     1      40.526 -10.904   3.385  1.00  0.00    -0.274 OA
HETATM   24  H   UNL     1      38.045 -12.880   3.065  1.00  0.00     0.169 HD
ENDBRANCH  12  20
TORSDOF 2
ENDMDL
