MODEL 1
REMARK VINA RESULT:      -8.6      0.000      0.000
REMARK  7 active torsions:
REMARK  status: ('A' for Active; 'I' for Inactive)
REMARK    1  A    between atoms: C_3  and  C_4 
REMARK    2  A    between atoms: C_4  and  N_5 
REMARK    3  A    between atoms: C_4  and  C_9 
REMARK       I    between atoms: N_5  and  C_6 
REMARK       I    between atoms: C_6  and  N_7 
REMARK    4  A    between atoms: C_9  and  C_10 
REMARK       I    between atoms: C_10  and  N_11 
REMARK    5  A    between atoms: N_11  and  C_12 
REMARK    6  A    between atoms: C_12  and  C_13 
REMARK    7  A    between atoms: C_13  and  N_14 
ROOT
HETATM    1  C   UNL     1      44.424 -16.343   6.441  1.00  0.00     0.132 C 
ENDROOT
BRANCH   1   2
HETATM    2  C   UNL     1      43.409 -16.908   5.436  1.00  0.00     0.128 C 
BRANCH   2   3
HETATM    3  C   UNL     1      43.897 -18.173   4.731  1.00  0.00    -0.029 A 
HETATM    4  C   UNL     1      43.855 -18.318   3.325  1.00  0.00    -0.054 A 
HETATM    5  C   UNL     1      43.314 -17.244   2.418  1.00  0.00     0.049 C 
HETATM    6  C   UNL     1      44.317 -19.510   2.738  1.00  0.00     0.007 A 
HETATM    7  C   UNL     1      44.809 -20.552   3.522  1.00  0.00     0.001 A 
HETATM    8  C   UNL     1      44.845 -20.422   4.903  1.00  0.00     0.001 A 
HETATM    9  C   UNL     1      44.392 -19.246   5.501  1.00  0.00     0.010 A 
ENDBRANCH   2   3
BRANCH   2  10
HETATM   10  N   UNL     1      42.070 -17.113   5.982  1.00  0.00    -0.334 N 
HETATM   11  C   UNL     1      40.988 -16.336   5.714  1.00  0.00     0.314 C 
HETATM   12  N   UNL     1      39.892 -16.697   6.423  1.00  0.00    -0.352 N 
HETATM   13  O   UNL     1      40.944 -15.433   4.892  1.00  0.00    -0.248 OA
HETATM   14  H   UNL     1      40.004 -17.046   7.363  1.00  0.00     0.160 HD
HETATM   15  H   UNL     1      39.095 -16.087   6.290  1.00  0.00     0.160 HD
HETATM   16  H   UNL     1      41.993 -17.730   6.776  1.00  0.00     0.165 HD
ENDBRANCH   2  10
ENDBRANCH   1   2
BRANCH   1  17
HETATM   17  C   UNL     1      44.305 -14.841   6.536  1.00  0.00     0.219 C 
HETATM   18  N   UNL     1      44.311 -14.328   7.811  1.00  0.00    -0.359 N 
HETATM   19  H   UNL     1      44.592 -14.980   8.542  1.00  0.00     0.162 HD
HETATM   20  O   UNL     1      44.143 -14.125   5.551  1.00  0.00    -0.274 OA
BRANCH  18  21
HETATM   21  C   UNL     1      44.401 -12.915   8.171  1.00  0.00     0.150 C 
BRANCH  21  22
HETATM   22  C   UNL     1      44.714 -12.520   9.632  1.00  0.00     0.254 C 
BRANCH  22  23
HETATM   23  N   UNL     1      43.532 -11.962  10.383  1.00  0.00    -0.065 N 
HETATM   24  H   UNL     1      42.883 -12.769  10.454  1.00  0.00     0.280 HD
HETATM   25  C   UNL     1      43.826 -11.502  11.792  1.00  0.00     0.274 C 
HETATM   26  C   UNL     1      42.637 -10.853  12.420  1.00  0.00    -0.019 A 
HETATM   27  C   UNL     1      41.537 -10.458  11.683  1.00  0.00    -0.008 A 
HETATM   28  C   UNL     1      42.462 -10.542  13.805  1.00  0.00     0.017 A 
HETATM   29  S   UNL     1      40.323  -9.740  12.628  1.00  0.00    -0.106 SA
HETATM   30  C   UNL     1      41.390 -10.654  10.209  1.00  0.00     0.074 C 
HETATM   31  C   UNL     1      41.249  -9.935  14.053  1.00  0.00     0.051 A 
HETATM   32  C   UNL     1      42.768 -10.920   9.579  1.00  0.00     0.240 C 
ENDBRANCH  22  23
ENDBRANCH  21  22
ENDBRANCH  18  21
ENDBRANCH   1  17
TORSDOF 7
ENDMDL
MODEL 2
REMARK VINA RESULT:      -8.4      3.370      9.710
REMARK  7 active torsions:
REMARK  status: ('A' for Active; 'I' for Inactive)
REMARK    1  A    between atoms: C_3  and  C_4 
REMARK    2  A    between atoms: C_4  and  N_5 
REMARK    3  A    between atoms: C_4  and  C_9 
REMARK       I    between atoms: N_5  and  C_6 
REMARK       I    between atoms: C_6  and  N_7 
REMARK    4  A    between atoms: C_9  and  C_10 
REMARK       I    between atoms: C_10  and  N_11 
REMARK    5  A    between atoms: N_11  and  C_12 
REMARK    6  A    between atoms: C_12  and  C_13 
REMARK    7  A    between atoms: C_13  and  N_14 
ROOT
HETATM    1  C   UNL     1      44.263 -12.012  10.906  1.00  0.00     0.132 C 
ENDROOT
BRANCH   1   2
HETATM    2  C   UNL     1      42.920 -11.274  11.003  1.00  0.00     0.128 C 
BRANCH   2   3
HETATM    3  C   UNL     1      42.687 -10.618  12.364  1.00  0.00    -0.029 A 
HETATM    4  C   UNL     1      41.542 -10.891  13.148  1.00  0.00    -0.054 A 
HETATM    5  C   UNL     1      40.460 -11.836  12.696  1.00  0.00     0.049 C 
HETATM    6  C   UNL     1      41.387 -10.252  14.391  1.00  0.00     0.007 A 
HETATM    7  C   UNL     1      42.340  -9.349  14.858  1.00  0.00     0.001 A 
HETATM    8  C   UNL     1      43.462  -9.068  14.091  1.00  0.00     0.001 A 
HETATM    9  C   UNL     1      43.632  -9.694  12.857  1.00  0.00     0.010 A 
ENDBRANCH   2   3
BRANCH   2  10
HETATM   10  N   UNL     1      42.680 -10.316   9.928  1.00  0.00    -0.334 N 
HETATM   11  C   UNL     1      41.539 -10.232   9.194  1.00  0.00     0.314 C 
HETATM   12  N   UNL     1      41.618  -9.313   8.202  1.00  0.00    -0.352 N 
HETATM   13  O   UNL     1      40.510 -10.858   9.401  1.00  0.00    -0.248 OA
HETATM   14  H   UNL     1      42.497  -9.169   7.730  1.00  0.00     0.160 HD
HETATM   15  H   UNL     1      40.804  -9.285   7.600  1.00  0.00     0.160 HD
HETATM   16  H   UNL     1      43.486  -9.835   9.559  1.00  0.00     0.165 HD
ENDBRANCH   2  10
ENDBRANCH   1   2
BRANCH   1  17
HETATM   17  C   UNL     1      44.758 -12.040   9.480  1.00  0.00     0.219 C 
HETATM   18  N   UNL     1      44.482 -13.191   8.782  1.00  0.00    -0.359 N 
HETATM   19  H   UNL     1      43.810 -13.818   9.222  1.00  0.00     0.162 HD
HETATM   20  O   UNL     1      45.423 -11.129   8.991  1.00  0.00    -0.274 OA
BRANCH  18  21
HETATM   21  C   UNL     1      44.677 -13.397   7.348  1.00  0.00     0.150 C 
BRANCH  21  22
HETATM   22  C   UNL     1      43.482 -13.840   6.474  1.00  0.00     0.254 C 
BRANCH  22  23
HETATM   23  N   UNL     1      43.721 -15.117   5.710  1.00  0.00    -0.065 N 
HETATM   24  H   UNL     1      44.552 -14.901   5.125  1.00  0.00     0.280 HD
HETATM   25  C   UNL     1      44.075 -16.316   6.559  1.00  0.00     0.274 C 
HETATM   26  C   UNL     1      44.175 -17.561   5.742  1.00  0.00    -0.019 A 
HETATM   27  C   UNL     1      43.695 -17.634   4.448  1.00  0.00    -0.008 A 
HETATM   28  C   UNL     1      44.739 -18.810   6.149  1.00  0.00     0.017 A 
HETATM   29  S   UNL     1      43.923 -19.160   3.737  1.00  0.00    -0.106 SA
HETATM   30  C   UNL     1      43.062 -16.498   3.713  1.00  0.00     0.074 C 
HETATM   31  C   UNL     1      44.665 -19.763   5.155  1.00  0.00     0.051 A 
HETATM   32  C   UNL     1      42.613 -15.417   4.712  1.00  0.00     0.240 C 
ENDBRANCH  22  23
ENDBRANCH  21  22
ENDBRANCH  18  21
ENDBRANCH   1  17
TORSDOF 7
ENDMDL
MODEL 3
REMARK VINA RESULT:      -8.2      5.580      7.394
REMARK  7 active torsions:
REMARK  status: ('A' for Active; 'I' for Inactive)
REMARK    1  A    between atoms: C_3  and  C_4 
REMARK    2  A    between atoms: C_4  and  N_5 
REMARK    3  A    between atoms: C_4  and  C_9 
REMARK       I    between atoms: N_5  and  C_6 
REMARK       I    between atoms: C_6  and  N_7 
REMARK    4  A    between atoms: C_9  and  C_10 
REMARK       I    between atoms: C_10  and  N_11 
REMARK    5  A    between atoms: N_11  and  C_12 
REMARK    6  A    between atoms: C_12  and  C_13 
REMARK    7  A    between atoms: C_13  and  N_14 
ROOT
HETATM    1  C   UNL     1      41.638 -17.699   4.284  1.00  0.00     0.132 C 
ENDROOT
BRANCH   1   2
HETATM    2  C   UNL     1      42.485 -17.856   3.013  1.00  0.00     0.128 C 
BRANCH   2   3
HETATM    3  C   UNL     1      43.247 -19.179   2.953  1.00  0.00    -0.029 A 
HETATM    4  C   UNL     1      44.204 -19.544   3.928  1.00  0.00    -0.054 A 
HETATM    5  C   UNL     1      44.555 -18.652   5.090  1.00  0.00     0.049 C 
HETATM    6  C   UNL     1      44.872 -20.776   3.814  1.00  0.00     0.007 A 
HETATM    7  C   UNL     1      44.612 -21.639   2.751  1.00  0.00     0.001 A 
HETATM    8  C   UNL     1      43.681 -21.284   1.784  1.00  0.00     0.001 A 
HETATM    9  C   UNL     1      43.008 -20.067   1.883  1.00  0.00     0.010 A 
ENDBRANCH   2   3
BRANCH   2  10
HETATM   10  N   UNL     1      41.753 -17.632   1.769  1.00  0.00    -0.334 N 
HETATM   11  C   UNL     1      41.748 -16.472   1.061  1.00  0.00     0.314 C 
HETATM   12  N   UNL     1      40.913 -16.511  -0.005  1.00  0.00    -0.352 N 
HETATM   13  O   UNL     1      42.442 -15.493   1.291  1.00  0.00    -0.248 OA
HETATM   14  H   UNL     1      40.052 -17.031   0.059  1.00  0.00     0.160 HD
HETATM   15  H   UNL     1      40.842 -15.632  -0.505  1.00  0.00     0.160 HD
HETATM   16  H   UNL     1      41.033 -18.301   1.539  1.00  0.00     0.165 HD
ENDBRANCH   2  10
ENDBRANCH   1   2
BRANCH   1  17
HETATM   17  C   UNL     1      41.810 -16.321   4.877  1.00  0.00     0.219 C 
HETATM   18  N   UNL     1      42.814 -15.562   4.324  1.00  0.00    -0.359 N 
HETATM   19  H   UNL     1      43.203 -15.920   3.453  1.00  0.00     0.162 HD
HETATM   20  O   UNL     1      41.148 -15.923   5.833  1.00  0.00    -0.274 OA
BRANCH  18  21
HETATM   21  C   UNL     1      43.061 -14.144   4.578  1.00  0.00     0.150 C 
BRANCH  21  22
HETATM   22  C   UNL     1      41.943 -13.114   4.294  1.00  0.00     0.254 C 
BRANCH  22  23
HETATM   23  N   UNL     1      41.335 -13.232   2.920  1.00  0.00    -0.065 N 
HETATM   24  H   UNL     1      41.872 -14.003   2.479  1.00  0.00     0.280 HD
HETATM   25  C   UNL     1      39.879 -13.633   2.896  1.00  0.00     0.274 C 
HETATM   26  C   UNL     1      39.322 -13.607   1.511  1.00  0.00    -0.019 A 
HETATM   27  C   UNL     1      39.981 -12.994   0.462  1.00  0.00    -0.008 A 
HETATM   28  C   UNL     1      38.082 -14.169   1.075  1.00  0.00     0.017 A 
HETATM   29  S   UNL     1      39.138 -13.097  -1.008  1.00  0.00    -0.106 SA
HETATM   30  C   UNL     1      41.313 -12.325   0.574  1.00  0.00     0.074 C 
HETATM   31  C   UNL     1      37.860 -13.963  -0.271  1.00  0.00     0.051 A 
HETATM   32  C   UNL     1      41.619 -12.016   2.050  1.00  0.00     0.240 C 
ENDBRANCH  22  23
ENDBRANCH  21  22
ENDBRANCH  18  21
ENDBRANCH   1  17
TORSDOF 7
ENDMDL
MODEL 4
REMARK VINA RESULT:      -8.2      2.280      3.537
REMARK  7 active torsions:
REMARK  status: ('A' for Active; 'I' for Inactive)
REMARK    1  A    between atoms: C_3  and  C_4 
REMARK    2  A    between atoms: C_4  and  N_5 
REMARK    3  A    between atoms: C_4  and  C_9 
REMARK       I    between atoms: N_5  and  C_6 
REMARK       I    between atoms: C_6  and  N_7 
REMARK    4  A    between atoms: C_9  and  C_10 
REMARK       I    between atoms: C_10  and  N_11 
REMARK    5  A    between atoms: N_11  and  C_12 
REMARK    6  A    between atoms: C_12  and  C_13 
REMARK    7  A    between atoms: C_13  and  N_14 
ROOT
HETATM    1  C   UNL     1      41.047 -15.952   5.468  1.00  0.00     0.132 C 
ENDROOT
BRANCH   1   2
HETATM    2  C   UNL     1      42.326 -15.800   4.633  1.00  0.00     0.128 C 
BRANCH   2   3
HETATM    3  C   UNL     1      42.837 -17.123   4.063  1.00  0.00    -0.029 A 
HETATM    4  C   UNL     1      43.774 -17.930   4.750  1.00  0.00    -0.054 A 
HETATM    5  C   UNL     1      44.348 -17.541   6.087  1.00  0.00     0.049 C 
HETATM    6  C   UNL     1      44.205 -19.136   4.169  1.00  0.00     0.007 A 
HETATM    7  C   UNL     1      43.730 -19.543   2.924  1.00  0.00     0.001 A 
HETATM    8  C   UNL     1      42.819 -18.752   2.238  1.00  0.00     0.001 A 
HETATM    9  C   UNL     1      42.379 -17.555   2.801  1.00  0.00     0.010 A 
ENDBRANCH   2   3
BRANCH   2  10
HETATM   10  N   UNL     1      42.244 -14.790   3.582  1.00  0.00    -0.334 N 
HETATM   11  C   UNL     1      43.103 -13.749   3.427  1.00  0.00     0.314 C 
HETATM   12  N   UNL     1      42.741 -12.913   2.423  1.00  0.00    -0.352 N 
HETATM   13  O   UNL     1      44.131 -13.571   4.063  1.00  0.00    -0.248 OA
HETATM   14  H   UNL     1      41.763 -12.751   2.243  1.00  0.00     0.160 HD
HETATM   15  H   UNL     1      43.330 -12.093   2.338  1.00  0.00     0.160 HD
HETATM   16  H   UNL     1      41.373 -14.732   3.075  1.00  0.00     0.165 HD
ENDBRANCH   2  10
ENDBRANCH   1   2
BRANCH   1  17
HETATM   17  C   UNL     1      40.182 -14.720   5.354  1.00  0.00     0.219 C 
HETATM   18  N   UNL     1      40.070 -13.970   6.501  1.00  0.00    -0.359 N 
HETATM   19  H   UNL     1      40.728 -14.203   7.242  1.00  0.00     0.162 HD
HETATM   20  O   UNL     1      39.562 -14.437   4.332  1.00  0.00    -0.274 OA
BRANCH  18  21
HETATM   21  C   UNL     1      39.460 -12.646   6.607  1.00  0.00     0.150 C 
BRANCH  21  22
HETATM   22  C   UNL     1      40.348 -11.422   6.926  1.00  0.00     0.254 C 
BRANCH  22  23
HETATM   23  N   UNL     1      40.878 -11.400   8.337  1.00  0.00    -0.065 N 
HETATM   24  H   UNL     1      40.965 -12.405   8.582  1.00  0.00     0.280 HD
HETATM   25  C   UNL     1      42.248 -10.783   8.497  1.00  0.00     0.274 C 
HETATM   26  C   UNL     1      42.647 -10.689   9.933  1.00  0.00    -0.019 A 
HETATM   27  C   UNL     1      41.740 -10.856  10.962  1.00  0.00    -0.008 A 
HETATM   28  C   UNL     1      43.953 -10.411  10.444  1.00  0.00     0.017 A 
HETATM   29  S   UNL     1      42.439 -10.695  12.501  1.00  0.00    -0.106 SA
HETATM   30  C   UNL     1      40.292 -11.176  10.773  1.00  0.00     0.074 C 
HETATM   31  C   UNL     1      43.979 -10.386  11.822  1.00  0.00     0.051 A 
HETATM   32  C   UNL     1      39.870 -10.844   9.332  1.00  0.00     0.240 C 
ENDBRANCH  22  23
ENDBRANCH  21  22
ENDBRANCH  18  21
ENDBRANCH   1  17
TORSDOF 7
ENDMDL
MODEL 5
REMARK VINA RESULT:      -8.2      2.270      3.058
REMARK  7 active torsions:
REMARK  status: ('A' for Active; 'I' for Inactive)
REMARK    1  A    between atoms: C_3  and  C_4 
REMARK    2  A    between atoms: C_4  and  N_5 
REMARK    3  A    between atoms: C_4  and  C_9 
REMARK       I    between atoms: N_5  and  C_6 
REMARK       I    between atoms: C_6  and  N_7 
REMARK    4  A    between atoms: C_9  and  C_10 
REMARK       I    between atoms: C_10  and  N_11 
REMARK    5  A    between atoms: N_11  and  C_12 
REMARK    6  A    between atoms: C_12  and  C_13 
REMARK    7  A    between atoms: C_13  and  N_14 
ROOT
HETATM    1  C   UNL     1      42.878 -15.186   4.681  1.00  0.00     0.132 C 
ENDROOT
BRANCH   1   2
HETATM    2  C   UNL     1      42.553 -16.118   3.504  1.00  0.00     0.128 C 
BRANCH   2   3
HETATM    3  C   UNL     1      43.223 -17.488   3.615  1.00  0.00    -0.029 A 
HETATM    4  C   UNL     1      43.760 -18.159   2.492  1.00  0.00    -0.054 A 
HETATM    5  C   UNL     1      43.700 -17.583   1.102  1.00  0.00     0.049 C 
HETATM    6  C   UNL     1      44.361 -19.418   2.662  1.00  0.00     0.007 A 
HETATM    7  C   UNL     1      44.430 -20.018   3.918  1.00  0.00     0.001 A 
HETATM    8  C   UNL     1      43.897 -19.371   5.023  1.00  0.00     0.001 A 
HETATM    9  C   UNL     1      43.298 -18.120   4.873  1.00  0.00     0.010 A 
ENDBRANCH   2   3
BRANCH   2  10
HETATM   10  N   UNL     1      41.126 -16.269   3.231  1.00  0.00    -0.334 N 
HETATM   11  C   UNL     1      40.491 -15.821   2.117  1.00  0.00     0.314 C 
HETATM   12  N   UNL     1      39.151 -16.015   2.161  1.00  0.00    -0.352 N 
HETATM   13  O   UNL     1      41.031 -15.336   1.134  1.00  0.00    -0.248 OA
HETATM   14  H   UNL     1      38.669 -15.941   3.043  1.00  0.00     0.160 HD
HETATM   15  H   UNL     1      38.652 -15.624   1.371  1.00  0.00     0.160 HD
HETATM   16  H   UNL     1      40.538 -16.522   4.011  1.00  0.00     0.165 HD
ENDBRANCH   2  10
ENDBRANCH   1   2
BRANCH   1  17
HETATM   17  C   UNL     1      41.624 -14.825   5.442  1.00  0.00     0.219 C 
HETATM   18  N   UNL     1      41.378 -13.479   5.568  1.00  0.00    -0.359 N 
HETATM   19  H   UNL     1      41.944 -12.874   4.976  1.00  0.00     0.162 HD
HETATM   20  O   UNL     1      40.906 -15.669   5.974  1.00  0.00    -0.274 OA
BRANCH  18  21
HETATM   21  C   UNL     1      40.151 -12.873   6.082  1.00  0.00     0.150 C 
BRANCH  21  22
HETATM   22  C   UNL     1      40.206 -11.463   6.714  1.00  0.00     0.254 C 
BRANCH  22  23
HETATM   23  N   UNL     1      40.793 -11.437   8.102  1.00  0.00    -0.065 N 
HETATM   24  H   UNL     1      40.827 -12.438   8.374  1.00  0.00     0.280 HD
HETATM   25  C   UNL     1      42.205 -10.904   8.191  1.00  0.00     0.274 C 
HETATM   26  C   UNL     1      42.666 -10.797   9.607  1.00  0.00    -0.019 A 
HETATM   27  C   UNL     1      41.793 -10.878  10.675  1.00  0.00    -0.008 A 
HETATM   28  C   UNL     1      44.007 -10.589  10.058  1.00  0.00     0.017 A 
HETATM   29  S   UNL     1      42.563 -10.720  12.180  1.00  0.00    -0.106 SA
HETATM   30  C   UNL     1      40.322 -11.111  10.551  1.00  0.00     0.074 C 
HETATM   31  C   UNL     1      44.090 -10.528  11.433  1.00  0.00     0.051 A 
HETATM   32  C   UNL     1      39.862 -10.792   9.118  1.00  0.00     0.240 C 
ENDBRANCH  22  23
ENDBRANCH  21  22
ENDBRANCH  18  21
ENDBRANCH   1  17
TORSDOF 7
ENDMDL
MODEL 6
REMARK VINA RESULT:      -8.0      1.926      3.384
REMARK  7 active torsions:
REMARK  status: ('A' for Active; 'I' for Inactive)
REMARK    1  A    between atoms: C_3  and  C_4 
REMARK    2  A    between atoms: C_4  and  N_5 
REMARK    3  A    between atoms: C_4  and  C_9 
REMARK       I    between atoms: N_5  and  C_6 
REMARK       I    between atoms: C_6  and  N_7 
REMARK    4  A    between atoms: C_9  and  C_10 
REMARK       I    between atoms: C_10  and  N_11 
REMARK    5  A    between atoms: N_11  and  C_12 
REMARK    6  A    between atoms: C_12  and  C_13 
REMARK    7  A    between atoms: C_13  and  N_14 
ROOT
HETATM    1  C   UNL     1      41.186 -15.924   5.616  1.00  0.00     0.132 C 
ENDROOT
BRANCH   1   2
HETATM    2  C   UNL     1      42.623 -16.458   5.708  1.00  0.00     0.128 C 
BRANCH   2   3
HETATM    3  C   UNL     1      42.959 -17.480   4.622  1.00  0.00    -0.029 A 
HETATM    4  C   UNL     1      43.909 -18.509   4.821  1.00  0.00    -0.054 A 
HETATM    5  C   UNL     1      44.670 -18.668   6.111  1.00  0.00     0.049 C 
HETATM    6  C   UNL     1      44.173 -19.416   3.779  1.00  0.00     0.007 A 
HETATM    7  C   UNL     1      43.521 -19.311   2.553  1.00  0.00     0.001 A 
HETATM    8  C   UNL     1      42.595 -18.298   2.346  1.00  0.00     0.001 A 
HETATM    9  C   UNL     1      42.319 -17.391   3.369  1.00  0.00     0.010 A 
ENDBRANCH   2   3
BRANCH   2  10
HETATM   10  N   UNL     1      43.649 -15.421   5.767  1.00  0.00    -0.334 N 
HETATM   11  C   UNL     1      44.260 -14.988   6.901  1.00  0.00     0.314 C 
HETATM   12  N   UNL     1      45.108 -13.955   6.680  1.00  0.00    -0.352 N 
HETATM   13  O   UNL     1      44.132 -15.479   8.013  1.00  0.00    -0.248 OA
HETATM   14  H   UNL     1      44.883 -13.272   5.973  1.00  0.00     0.160 HD
HETATM   15  H   UNL     1      45.520 -13.572   7.523  1.00  0.00     0.160 HD
HETATM   16  H   UNL     1      43.752 -14.836   4.952  1.00  0.00     0.165 HD
ENDBRANCH   2  10
ENDBRANCH   1   2
BRANCH   1  17
HETATM   17  C   UNL     1      41.180 -14.465   5.229  1.00  0.00     0.219 C 
HETATM   18  N   UNL     1      40.591 -13.617   6.136  1.00  0.00    -0.359 N 
HETATM   19  H   UNL     1      40.401 -14.020   7.052  1.00  0.00     0.162 HD
HETATM   20  O   UNL     1      41.607 -14.064   4.149  1.00  0.00    -0.274 OA
BRANCH  18  21
HETATM   21  C   UNL     1      40.623 -12.156   6.096  1.00  0.00     0.150 C 
BRANCH  21  22
HETATM   22  C   UNL     1      39.915 -11.348   7.207  1.00  0.00     0.254 C 
BRANCH  22  23
HETATM   23  N   UNL     1      40.625 -11.380   8.536  1.00  0.00    -0.065 N 
HETATM   24  H   UNL     1      40.729 -12.394   8.735  1.00  0.00     0.280 HD
HETATM   25  C   UNL     1      42.014 -10.784   8.535  1.00  0.00     0.274 C 
HETATM   26  C   UNL     1      42.598 -10.744   9.909  1.00  0.00    -0.019 A 
HETATM   27  C   UNL     1      41.831 -10.937  11.042  1.00  0.00    -0.008 A 
HETATM   28  C   UNL     1      43.964 -10.498  10.252  1.00  0.00     0.017 A 
HETATM   29  S   UNL     1      42.728 -10.836  12.480  1.00  0.00    -0.106 SA
HETATM   30  C   UNL     1      40.366 -11.236  11.034  1.00  0.00     0.074 C 
HETATM   31  C   UNL     1      44.170 -10.521  11.616  1.00  0.00     0.051 A 
HETATM   32  C   UNL     1      39.764 -10.849   9.672  1.00  0.00     0.240 C 
ENDBRANCH  22  23
ENDBRANCH  21  22
ENDBRANCH  18  21
ENDBRANCH   1  17
TORSDOF 7
ENDMDL
MODEL 7
REMARK VINA RESULT:      -8.0      5.387      9.000
REMARK  7 active torsions:
REMARK  status: ('A' for Active; 'I' for Inactive)
REMARK    1  A    between atoms: C_3  and  C_4 
REMARK    2  A    between atoms: C_4  and  N_5 
REMARK    3  A    between atoms: C_4  and  C_9 
REMARK       I    between atoms: N_5  and  C_6 
REMARK       I    between atoms: C_6  and  N_7 
REMARK    4  A    between atoms: C_9  and  C_10 
REMARK       I    between atoms: C_10  and  N_11 
REMARK    5  A    between atoms: N_11  and  C_12 
REMARK    6  A    between atoms: C_12  and  C_13 
REMARK    7  A    between atoms: C_13  and  N_14 
ROOT
HETATM    1  C   UNL     1      41.093 -17.219   4.891  1.00  0.00     0.132 C 
ENDROOT
BRANCH   1   2
HETATM    2  C   UNL     1      42.484 -17.610   5.412  1.00  0.00     0.128 C 
BRANCH   2   3
HETATM    3  C   UNL     1      43.230 -18.567   4.482  1.00  0.00    -0.029 A 
HETATM    4  C   UNL     1      44.033 -19.623   4.973  1.00  0.00    -0.054 A 
HETATM    5  C   UNL     1      44.224 -19.877   6.445  1.00  0.00     0.049 C 
HETATM    6  C   UNL     1      44.695 -20.468   4.063  1.00  0.00     0.007 A 
HETATM    7  C   UNL     1      44.578 -20.275   2.688  1.00  0.00     0.001 A 
HETATM    8  C   UNL     1      43.801 -19.235   2.199  1.00  0.00     0.001 A 
HETATM    9  C   UNL     1      43.136 -18.389   3.087  1.00  0.00     0.010 A 
ENDBRANCH   2   3
BRANCH   2  10
HETATM   10  N   UNL     1      43.335 -16.478   5.768  1.00  0.00    -0.334 N 
HETATM   11  C   UNL     1      43.668 -16.118   7.035  1.00  0.00     0.314 C 
HETATM   12  N   UNL     1      44.397 -14.977   7.083  1.00  0.00    -0.352 N 
HETATM   13  O   UNL     1      43.408 -16.749   8.048  1.00  0.00    -0.248 OA
HETATM   14  H   UNL     1      44.214 -14.244   6.414  1.00  0.00     0.160 HD
HETATM   15  H   UNL     1      44.595 -14.653   8.022  1.00  0.00     0.160 HD
HETATM   16  H   UNL     1      43.505 -15.793   5.048  1.00  0.00     0.165 HD
ENDBRANCH   2  10
ENDBRANCH   1   2
BRANCH   1  17
HETATM   17  C   UNL     1      41.012 -15.731   4.645  1.00  0.00     0.219 C 
HETATM   18  N   UNL     1      41.199 -15.337   3.342  1.00  0.00    -0.359 N 
HETATM   19  H   UNL     1      41.174 -16.086   2.651  1.00  0.00     0.162 HD
HETATM   20  O   UNL     1      40.858 -14.917   5.553  1.00  0.00    -0.274 OA
BRANCH  18  21
HETATM   21  C   UNL     1      40.982 -13.994   2.808  1.00  0.00     0.150 C 
BRANCH  21  22
HETATM   22  C   UNL     1      41.747 -13.545   1.542  1.00  0.00     0.254 C 
BRANCH  22  23
HETATM   23  N   UNL     1      40.942 -13.648   0.272  1.00  0.00    -0.065 N 
HETATM   24  H   UNL     1      41.166 -12.768  -0.233  1.00  0.00     0.280 HD
HETATM   25  C   UNL     1      41.324 -14.791  -0.639  1.00  0.00     0.274 C 
HETATM   26  C   UNL     1      40.404 -14.896  -1.810  1.00  0.00    -0.019 A 
HETATM   27  C   UNL     1      39.195 -14.228  -1.860  1.00  0.00    -0.008 A 
HETATM   28  C   UNL     1      40.608 -15.672  -2.993  1.00  0.00     0.017 A 
HETATM   29  S   UNL     1      38.332 -14.516  -3.293  1.00  0.00    -0.106 SA
HETATM   30  C   UNL     1      38.686 -13.316  -0.791  1.00  0.00     0.074 C 
HETATM   31  C   UNL     1      39.558 -15.555  -3.880  1.00  0.00     0.051 A 
HETATM   32  C   UNL     1      39.443 -13.579   0.522  1.00  0.00     0.240 C 
ENDBRANCH  22  23
ENDBRANCH  21  22
ENDBRANCH  18  21
ENDBRANCH   1  17
TORSDOF 7
ENDMDL
MODEL 8
REMARK VINA RESULT:      -7.8      5.952      8.482
REMARK  7 active torsions:
REMARK  status: ('A' for Active; 'I' for Inactive)
REMARK    1  A    between atoms: C_3  and  C_4 
REMARK    2  A    between atoms: C_4  and  N_5 
REMARK    3  A    between atoms: C_4  and  C_9 
REMARK       I    between atoms: N_5  and  C_6 
REMARK       I    between atoms: C_6  and  N_7 
REMARK    4  A    between atoms: C_9  and  C_10 
REMARK       I    between atoms: C_10  and  N_11 
REMARK    5  A    between atoms: N_11  and  C_12 
REMARK    6  A    between atoms: C_12  and  C_13 
REMARK    7  A    between atoms: C_13  and  N_14 
ROOT
HETATM    1  C   UNL     1      43.114 -15.236   4.313  1.00  0.00     0.132 C 
ENDROOT
BRANCH   1   2
HETATM    2  C   UNL     1      42.690 -16.279   3.269  1.00  0.00     0.128 C 
BRANCH   2   3
HETATM    3  C   UNL     1      43.342 -17.645   3.480  1.00  0.00    -0.029 A 
HETATM    4  C   UNL     1      43.838 -18.419   2.406  1.00  0.00    -0.054 A 
HETATM    5  C   UNL     1      43.751 -17.963   0.973  1.00  0.00     0.049 C 
HETATM    6  C   UNL     1      44.426 -19.670   2.669  1.00  0.00     0.007 A 
HETATM    7  C   UNL     1      44.518 -20.161   3.969  1.00  0.00     0.001 A 
HETATM    8  C   UNL     1      44.024 -19.412   5.028  1.00  0.00     0.001 A 
HETATM    9  C   UNL     1      43.441 -18.169   4.786  1.00  0.00     0.010 A 
ENDBRANCH   2   3
BRANCH   2  10
HETATM   10  N   UNL     1      41.245 -16.422   3.112  1.00  0.00    -0.334 N 
HETATM   11  C   UNL     1      40.547 -16.132   1.983  1.00  0.00     0.314 C 
HETATM   12  N   UNL     1      39.209 -16.272   2.141  1.00  0.00    -0.352 N 
HETATM   13  O   UNL     1      41.032 -15.826   0.904  1.00  0.00    -0.248 OA
HETATM   14  H   UNL     1      38.789 -16.044   3.029  1.00  0.00     0.160 HD
HETATM   15  H   UNL     1      38.667 -15.992   1.332  1.00  0.00     0.160 HD
HETATM   16  H   UNL     1      40.705 -16.531   3.958  1.00  0.00     0.165 HD
ENDBRANCH   2  10
ENDBRANCH   1   2
BRANCH   1  17
HETATM   17  C   UNL     1      42.072 -14.150   4.440  1.00  0.00     0.219 C 
HETATM   18  N   UNL     1      42.233 -13.076   3.598  1.00  0.00    -0.359 N 
HETATM   19  H   UNL     1      42.909 -13.207   2.847  1.00  0.00     0.162 HD
HETATM   20  O   UNL     1      41.179 -14.184   5.284  1.00  0.00    -0.274 OA
BRANCH  18  21
HETATM   21  C   UNL     1      41.271 -11.996   3.386  1.00  0.00     0.150 C 
BRANCH  21  22
HETATM   22  C   UNL     1      39.970 -12.279   2.600  1.00  0.00     0.254 C 
BRANCH  22  23
HETATM   23  N   UNL     1      40.198 -12.788   1.200  1.00  0.00    -0.065 N 
HETATM   24  H   UNL     1      40.658 -13.707   1.344  1.00  0.00     0.280 HD
HETATM   25  C   UNL     1      38.943 -13.039   0.397  1.00  0.00     0.274 C 
HETATM   26  C   UNL     1      39.257 -13.422  -1.012  1.00  0.00    -0.019 A 
HETATM   27  C   UNL     1      40.514 -13.252  -1.560  1.00  0.00    -0.008 A 
HETATM   28  C   UNL     1      38.354 -13.981  -1.970  1.00  0.00     0.017 A 
HETATM   29  S   UNL     1      40.611 -13.758  -3.178  1.00  0.00    -0.106 SA
HETATM   30  C   UNL     1      41.694 -12.708  -0.821  1.00  0.00     0.074 C 
HETATM   31  C   UNL     1      38.961 -14.211  -3.186  1.00  0.00     0.051 A 
HETATM   32  C   UNL     1      41.222 -11.959   0.436  1.00  0.00     0.240 C 
ENDBRANCH  22  23
ENDBRANCH  21  22
ENDBRANCH  18  21
ENDBRANCH   1  17
TORSDOF 7
ENDMDL
MODEL 9
REMARK VINA RESULT:      -7.8      6.228      8.788
REMARK  7 active torsions:
REMARK  status: ('A' for Active; 'I' for Inactive)
REMARK    1  A    between atoms: C_3  and  C_4 
REMARK    2  A    between atoms: C_4  and  N_5 
REMARK    3  A    between atoms: C_4  and  C_9 
REMARK       I    between atoms: N_5  and  C_6 
REMARK       I    between atoms: C_6  and  N_7 
REMARK    4  A    between atoms: C_9  and  C_10 
REMARK       I    between atoms: C_10  and  N_11 
REMARK    5  A    between atoms: N_11  and  C_12 
REMARK    6  A    between atoms: C_12  and  C_13 
REMARK    7  A    between atoms: C_13  and  N_14 
ROOT
HETATM    1  C   UNL     1      41.009 -17.449   3.629  1.00  0.00     0.132 C 
ENDROOT
BRANCH   1   2
HETATM    2  C   UNL     1      42.508 -17.372   3.952  1.00  0.00     0.128 C 
BRANCH   2   3
HETATM    3  C   UNL     1      43.281 -18.624   3.537  1.00  0.00    -0.029 A 
HETATM    4  C   UNL     1      44.293 -19.189   4.346  1.00  0.00    -0.054 A 
HETATM    5  C   UNL     1      44.696 -18.595   5.670  1.00  0.00     0.049 C 
HETATM    6  C   UNL     1      44.968 -20.341   3.903  1.00  0.00     0.007 A 
HETATM    7  C   UNL     1      44.660 -20.928   2.678  1.00  0.00     0.001 A 
HETATM    8  C   UNL     1      43.675 -20.374   1.874  1.00  0.00     0.001 A 
HETATM    9  C   UNL     1      42.994 -19.233   2.297  1.00  0.00     0.010 A 
ENDBRANCH   2   3
BRANCH   2  10
HETATM   10  N   UNL     1      43.172 -16.172   3.451  1.00  0.00    -0.334 N 
HETATM   11  C   UNL     1      43.351 -15.024   4.155  1.00  0.00     0.314 C 
HETATM   12  N   UNL     1      43.919 -14.039   3.419  1.00  0.00    -0.352 N 
HETATM   13  O   UNL     1      43.092 -14.865   5.339  1.00  0.00    -0.248 OA
HETATM   14  H   UNL     1      43.698 -13.964   2.438  1.00  0.00     0.160 HD
HETATM   15  H   UNL     1      43.995 -13.153   3.906  1.00  0.00     0.160 HD
HETATM   16  H   UNL     1      43.310 -16.113   2.453  1.00  0.00     0.165 HD
ENDBRANCH   2  10
ENDBRANCH   1   2
BRANCH   1  17
HETATM   17  C   UNL     1      40.598 -16.318   2.717  1.00  0.00     0.219 C 
HETATM   18  N   UNL     1      39.806 -15.353   3.293  1.00  0.00    -0.359 N 
HETATM   19  H   UNL     1      39.741 -15.391   4.309  1.00  0.00     0.162 HD
HETATM   20  O   UNL     1      40.890 -16.289   1.523  1.00  0.00    -0.274 OA
BRANCH  18  21
HETATM   21  C   UNL     1      39.435 -14.072   2.694  1.00  0.00     0.150 C 
BRANCH  21  22
HETATM   22  C   UNL     1      40.542 -13.077   2.280  1.00  0.00     0.254 C 
BRANCH  22  23
HETATM   23  N   UNL     1      40.528 -12.718   0.816  1.00  0.00    -0.065 N 
HETATM   24  H   UNL     1      40.263 -11.714   0.812  1.00  0.00     0.280 HD
HETATM   25  C   UNL     1      41.862 -12.829   0.115  1.00  0.00     0.274 C 
HETATM   26  C   UNL     1      41.738 -12.577  -1.351  1.00  0.00    -0.019 A 
HETATM   27  C   UNL     1      40.515 -12.560  -1.996  1.00  0.00    -0.008 A 
HETATM   28  C   UNL     1      42.804 -12.339  -2.273  1.00  0.00     0.017 A 
HETATM   29  S   UNL     1      40.643 -12.258  -3.662  1.00  0.00    -0.106 SA
HETATM   30  C   UNL     1      39.197 -12.755  -1.319  1.00  0.00     0.074 C 
HETATM   31  C   UNL     1      42.348 -12.151  -3.561  1.00  0.00     0.051 A 
HETATM   32  C   UNL     1      39.410 -13.415   0.055  1.00  0.00     0.240 C 
ENDBRANCH  22  23
ENDBRANCH  21  22
ENDBRANCH  18  21
ENDBRANCH   1  17
TORSDOF 7
ENDMDL
MODEL 10
REMARK VINA RESULT:      -7.5      5.927      8.519
REMARK  7 active torsions:
REMARK  status: ('A' for Active; 'I' for Inactive)
REMARK    1  A    between atoms: C_3  and  C_4 
REMARK    2  A    between atoms: C_4  and  N_5 
REMARK    3  A    between atoms: C_4  and  C_9 
REMARK       I    between atoms: N_5  and  C_6 
REMARK       I    between atoms: C_6  and  N_7 
REMARK    4  A    between atoms: C_9  and  C_10 
REMARK       I    between atoms: C_10  and  N_11 
REMARK    5  A    between atoms: N_11  and  C_12 
REMARK    6  A    between atoms: C_12  and  C_13 
REMARK    7  A    between atoms: C_13  and  N_14 
ROOT
HETATM    1  C   UNL     1      40.708 -17.059   2.335  1.00  0.00     0.132 C 
ENDROOT
BRANCH   1   2
HETATM    2  C   UNL     1      41.948 -16.980   3.238  1.00  0.00     0.128 C 
BRANCH   2   3
HETATM    3  C   UNL     1      42.816 -18.237   3.183  1.00  0.00    -0.029 A 
HETATM    4  C   UNL     1      43.466 -18.756   4.326  1.00  0.00    -0.054 A 
HETATM    5  C   UNL     1      43.363 -18.105   5.680  1.00  0.00     0.049 C 
HETATM    6  C   UNL     1      44.253 -19.916   4.207  1.00  0.00     0.007 A 
HETATM    7  C   UNL     1      44.408 -20.555   2.978  1.00  0.00     0.001 A 
HETATM    8  C   UNL     1      43.782 -20.046   1.850  1.00  0.00     0.001 A 
HETATM    9  C   UNL     1      42.997 -18.898   1.950  1.00  0.00     0.010 A 
ENDBRANCH   2   3
BRANCH   2  10
HETATM   10  N   UNL     1      42.764 -15.786   3.037  1.00  0.00    -0.334 N 
HETATM   11  C   UNL     1      42.973 -14.816   3.965  1.00  0.00     0.314 C 
HETATM   12  N   UNL     1      43.698 -13.777   3.486  1.00  0.00    -0.352 N 
HETATM   13  O   UNL     1      42.612 -14.854   5.132  1.00  0.00    -0.248 OA
HETATM   14  H   UNL     1      43.585 -13.497   2.524  1.00  0.00     0.160 HD
HETATM   15  H   UNL     1      43.804 -13.012   4.141  1.00  0.00     0.160 HD
HETATM   16  H   UNL     1      43.007 -15.556   2.085  1.00  0.00     0.165 HD
ENDBRANCH   2  10
ENDBRANCH   1   2
BRANCH   1  17
HETATM   17  C   UNL     1      40.526 -15.776   1.560  1.00  0.00     0.219 C 
HETATM   18  N   UNL     1      40.791 -15.857   0.214  1.00  0.00    -0.359 N 
HETATM   19  H   UNL     1      40.887 -16.801  -0.156  1.00  0.00     0.162 HD
HETATM   20  O   UNL     1      40.229 -14.712   2.099  1.00  0.00    -0.274 OA
BRANCH  18  21
HETATM   21  C   UNL     1      40.512 -14.825  -0.783  1.00  0.00     0.150 C 
BRANCH  21  22
HETATM   22  C   UNL     1      41.686 -14.066  -1.442  1.00  0.00     0.254 C 
BRANCH  22  23
HETATM   23  N   UNL     1      41.944 -12.704  -0.849  1.00  0.00    -0.065 N 
HETATM   24  H   UNL     1      42.403 -12.914   0.058  1.00  0.00     0.280 HD
HETATM   25  C   UNL     1      42.894 -11.832  -1.636  1.00  0.00     0.274 C 
HETATM   26  C   UNL     1      43.001 -10.463  -1.051  1.00  0.00    -0.019 A 
HETATM   27  C   UNL     1      42.104  -9.991  -0.111  1.00  0.00    -0.008 A 
HETATM   28  C   UNL     1      43.983  -9.471  -1.362  1.00  0.00     0.017 A 
HETATM   29  S   UNL     1      42.438  -8.404   0.393  1.00  0.00    -0.106 SA
HETATM   30  C   UNL     1      40.966 -10.783   0.447  1.00  0.00     0.074 C 
HETATM   31  C   UNL     1      43.792  -8.307  -0.648  1.00  0.00     0.051 A 
HETATM   32  C   UNL     1      40.661 -11.977  -0.474  1.00  0.00     0.240 C 
ENDBRANCH  22  23
ENDBRANCH  21  22
ENDBRANCH  18  21
ENDBRANCH   1  17
TORSDOF 7
ENDMDL
