MODEL 1
REMARK VINA RESULT:      -9.7      0.000      0.000
REMARK  7 active torsions:
REMARK  status: ('A' for Active; 'I' for Inactive)
REMARK    1  A    between atoms: C_3  and  C_4 
REMARK    2  A    between atoms: C_4  and  N_5 
REMARK    3  A    between atoms: C_9  and  C_28 
REMARK    4  A    between atoms: C_9  and  C_10 
REMARK    5  A    between atoms: N_13  and  C_15 
REMARK    6  A    between atoms: C_15  and  C_16 
REMARK    7  A    between atoms: C_28  and  C_29 
ROOT
HETATM    1  C   UNL     1      45.674 -13.215   7.728  1.00  0.00     0.112 C 
HETATM    2  C   UNL     1      44.496 -13.944   7.101  1.00  0.00    -0.109 C 
HETATM    3  C   UNL     1      43.487 -14.569   6.562  1.00  0.00    -0.087 C 
ENDROOT
BRANCH   3   4
HETATM    4  C   UNL     1      42.309 -15.298   5.936  1.00  0.00     0.230 C 
BRANCH   4   5
HETATM    5  N   UNL     1      42.624 -15.734   4.601  1.00  0.00    -0.257 N 
HETATM    6  C   UNL     1      42.928 -14.891   3.588  1.00  0.00     0.327 A 
HETATM    7  O   UNL     1      42.969 -13.674   3.593  1.00  0.00    -0.247 OA
HETATM    8  N   UNL     1      43.075 -15.626   2.441  1.00  0.00    -0.324 N 
HETATM    9  C   UNL     1      42.809 -17.048   2.619  1.00  0.00     0.123 A 
HETATM   10  H   UNL     1      43.570 -15.205   1.661  1.00  0.00     0.165 HD
HETATM   11  C   UNL     1      42.496 -17.014   4.142  1.00  0.00     0.257 A 
HETATM   12  O   UNL     1      42.099 -17.964   4.799  1.00  0.00    -0.270 OA
BRANCH   9  13
HETATM   13  C   UNL     1      44.129 -17.811   2.339  1.00  0.00     0.080 C 
BRANCH  13  14
HETATM   14  C   UNL     1      44.147 -19.302   2.580  1.00  0.00    -0.052 A 
HETATM   15  C   UNL     1      44.730 -19.834   3.737  1.00  0.00     0.049 A 
HETATM   16  C   UNL     1      44.767 -21.212   3.934  1.00  0.00     0.116 A 
HETATM   17  F   UNL     1      45.331 -21.702   5.044  1.00  0.00    -0.206 F 
HETATM   18  C   UNL     1      44.236 -22.084   2.993  1.00  0.00     0.042 A 
HETATM   19  C   UNL     1      43.662 -21.571   1.833  1.00  0.00     0.003 A 
HETATM   20  C   UNL     1      43.620 -20.188   1.625  1.00  0.00     0.007 A 
ENDBRANCH  13  14
ENDBRANCH   9  13
BRANCH   9  21
HETATM   21  C   UNL     1      41.581 -17.494   1.733  1.00  0.00     0.027 C 
HETATM   22  C   UNL     1      41.689 -17.083   0.248  1.00  0.00     0.035 C 
HETATM   23  C   UNL     1      41.362 -15.614  -0.049  1.00  0.00     0.235 C 
HETATM   24  N   UNL     1      40.067 -15.172   0.588  1.00  0.00    -0.067 N 
HETATM   25  H   UNL     1      39.307 -15.586   0.035  1.00  0.00     0.280 HD
HETATM   26  C   UNL     1      39.872 -15.607   2.020  1.00  0.00     0.235 C 
HETATM   27  C   UNL     1      40.171 -17.080   2.196  1.00  0.00     0.035 C 
BRANCH  24  28
HETATM   28  C   UNL     1      39.875 -13.656   0.526  1.00  0.00     0.273 C 
BRANCH  28  29
HETATM   29  C   UNL     1      40.624 -12.919  -0.549  1.00  0.00    -0.030 A 
HETATM   30  C   UNL     1      40.087 -12.723  -1.828  1.00  0.00     0.048 A 
HETATM   31  C   UNL     1      40.799 -12.000  -2.787  1.00  0.00     0.102 A 
HETATM   32  C   UNL     1      42.052 -11.464  -2.481  1.00  0.00     0.102 A 
HETATM   33  O   UNL     1      40.204 -11.865  -4.014  1.00  0.00    -0.346 OA
HETATM   34  O   UNL     1      42.808 -10.757  -3.376  1.00  0.00    -0.346 OA
HETATM   35  C   UNL     1      42.580 -11.622  -1.206  1.00  0.00     0.040 A 
HETATM   36  C   UNL     1      42.344 -10.936  -4.719  1.00  0.00     0.202 C 
HETATM   37  C   UNL     1      40.828 -10.828  -4.786  1.00  0.00     0.202 C 
HETATM   38  C   UNL     1      41.874 -12.349  -0.245  1.00  0.00     0.012 A 
ENDBRANCH  28  29
ENDBRANCH  24  28
ENDBRANCH   9  21
ENDBRANCH   4   5
ENDBRANCH   3   4
TORSDOF 7
ENDMDL
MODEL 2
REMARK VINA RESULT:      -9.7      0.881      1.536
REMARK  7 active torsions:
REMARK  status: ('A' for Active; 'I' for Inactive)
REMARK    1  A    between atoms: C_3  and  C_4 
REMARK    2  A    between atoms: C_4  and  N_5 
REMARK    3  A    between atoms: C_9  and  C_28 
REMARK    4  A    between atoms: C_9  and  C_10 
REMARK    5  A    between atoms: N_13  and  C_15 
REMARK    6  A    between atoms: C_15  and  C_16 
REMARK    7  A    between atoms: C_28  and  C_29 
ROOT
HETATM    1  C   UNL     1      45.587 -13.213   7.736  1.00  0.00     0.112 C 
HETATM    2  C   UNL     1      44.448 -13.975   7.078  1.00  0.00    -0.109 C 
HETATM    3  C   UNL     1      43.472 -14.629   6.513  1.00  0.00    -0.087 C 
ENDROOT
BRANCH   3   4
HETATM    4  C   UNL     1      42.334 -15.392   5.855  1.00  0.00     0.230 C 
BRANCH   4   5
HETATM    5  N   UNL     1      42.702 -15.830   4.535  1.00  0.00    -0.257 N 
HETATM    6  C   UNL     1      43.084 -14.991   3.544  1.00  0.00     0.327 A 
HETATM    7  O   UNL     1      43.163 -13.777   3.560  1.00  0.00    -0.247 OA
HETATM    8  N   UNL     1      43.266 -15.724   2.401  1.00  0.00    -0.324 N 
HETATM    9  C   UNL     1      42.947 -17.139   2.555  1.00  0.00     0.123 A 
HETATM   10  H   UNL     1      43.813 -15.315   1.650  1.00  0.00     0.165 HD
HETATM   11  C   UNL     1      42.558 -17.103   4.060  1.00  0.00     0.257 A 
HETATM   12  O   UNL     1      42.098 -18.043   4.689  1.00  0.00    -0.270 OA
BRANCH   9  13
HETATM   13  C   UNL     1      44.255 -17.941   2.337  1.00  0.00     0.080 C 
BRANCH  13  14
HETATM   14  C   UNL     1      44.224 -19.427   2.606  1.00  0.00    -0.052 A 
HETATM   15  C   UNL     1      44.719 -19.948   3.809  1.00  0.00     0.049 A 
HETATM   16  C   UNL     1      44.712 -21.322   4.033  1.00  0.00     0.116 A 
HETATM   17  F   UNL     1      45.191 -21.803   5.187  1.00  0.00    -0.206 F 
HETATM   18  C   UNL     1      44.224 -22.202   3.076  1.00  0.00     0.042 A 
HETATM   19  C   UNL     1      43.738 -21.700   1.871  1.00  0.00     0.003 A 
HETATM   20  C   UNL     1      43.741 -20.321   1.636  1.00  0.00     0.007 A 
ENDBRANCH  13  14
ENDBRANCH   9  13
BRANCH   9  21
HETATM   21  C   UNL     1      41.752 -17.541   1.605  1.00  0.00     0.027 C 
HETATM   22  C   UNL     1      41.826 -16.914   0.195  1.00  0.00     0.035 C 
HETATM   23  C   UNL     1      41.392 -15.445   0.110  1.00  0.00     0.235 C 
HETATM   24  N   UNL     1      40.069 -15.194   0.794  1.00  0.00    -0.067 N 
HETATM   25  H   UNL     1      39.340 -15.578   0.181  1.00  0.00     0.280 HD
HETATM   26  C   UNL     1      39.911 -15.843   2.147  1.00  0.00     0.235 C 
HETATM   27  C   UNL     1      40.317 -17.301   2.111  1.00  0.00     0.035 C 
BRANCH  24  28
HETATM   28  C   UNL     1      39.767 -13.703   0.949  1.00  0.00     0.273 C 
BRANCH  28  29
HETATM   29  C   UNL     1      40.426 -12.770  -0.029  1.00  0.00    -0.030 A 
HETATM   30  C   UNL     1      41.496 -11.944   0.338  1.00  0.00     0.048 A 
HETATM   31  C   UNL     1      42.105 -11.118  -0.609  1.00  0.00     0.102 A 
HETATM   32  C   UNL     1      41.655 -11.109  -1.931  1.00  0.00     0.102 A 
HETATM   33  O   UNL     1      43.137 -10.336  -0.162  1.00  0.00    -0.346 OA
HETATM   34  O   UNL     1      42.198 -10.317  -2.906  1.00  0.00    -0.346 OA
HETATM   35  C   UNL     1      40.617 -11.949  -2.316  1.00  0.00     0.040 A 
HETATM   36  C   UNL     1      43.007  -9.274  -2.351  1.00  0.00     0.202 C 
HETATM   37  C   UNL     1      43.911  -9.817  -1.254  1.00  0.00     0.202 C 
HETATM   38  C   UNL     1      40.002 -12.772  -1.371  1.00  0.00     0.012 A 
ENDBRANCH  28  29
ENDBRANCH  24  28
ENDBRANCH   9  21
ENDBRANCH   4   5
ENDBRANCH   3   4
TORSDOF 7
ENDMDL
MODEL 3
REMARK VINA RESULT:      -9.6      2.251      2.828
REMARK  7 active torsions:
REMARK  status: ('A' for Active; 'I' for Inactive)
REMARK    1  A    between atoms: C_3  and  C_4 
REMARK    2  A    between atoms: C_4  and  N_5 
REMARK    3  A    between atoms: C_9  and  C_28 
REMARK    4  A    between atoms: C_9  and  C_10 
REMARK    5  A    between atoms: N_13  and  C_15 
REMARK    6  A    between atoms: C_15  and  C_16 
REMARK    7  A    between atoms: C_28  and  C_29 
ROOT
HETATM    1  C   UNL     1      39.099 -12.797   5.939  1.00  0.00     0.112 C 
HETATM    2  C   UNL     1      40.437 -13.507   5.817  1.00  0.00    -0.109 C 
HETATM    3  C   UNL     1      41.584 -14.117   5.714  1.00  0.00    -0.087 C 
ENDROOT
BRANCH   3   4
HETATM    4  C   UNL     1      42.922 -14.829   5.592  1.00  0.00     0.230 C 
BRANCH   4   5
HETATM    5  N   UNL     1      43.069 -15.432   4.294  1.00  0.00    -0.257 N 
HETATM    6  C   UNL     1      43.286 -14.728   3.159  1.00  0.00     0.327 A 
HETATM    7  O   UNL     1      43.369 -13.522   3.012  1.00  0.00    -0.247 OA
HETATM    8  N   UNL     1      43.278 -15.598   2.101  1.00  0.00    -0.324 N 
HETATM    9  C   UNL     1      42.985 -16.976   2.477  1.00  0.00     0.123 A 
HETATM   10  H   UNL     1      43.696 -15.295   1.227  1.00  0.00     0.165 HD
HETATM   11  C   UNL     1      42.847 -16.749   4.009  1.00  0.00     0.257 A 
HETATM   12  O   UNL     1      42.493 -17.596   4.815  1.00  0.00    -0.270 OA
BRANCH   9  13
HETATM   13  C   UNL     1      44.238 -17.828   2.151  1.00  0.00     0.080 C 
BRANCH  13  14
HETATM   14  C   UNL     1      44.193 -19.302   2.477  1.00  0.00    -0.052 A 
HETATM   15  C   UNL     1      44.767 -19.792   3.657  1.00  0.00     0.049 A 
HETATM   16  C   UNL     1      44.746 -21.157   3.933  1.00  0.00     0.116 A 
HETATM   17  F   UNL     1      45.302 -21.608   5.064  1.00  0.00    -0.206 F 
HETATM   18  C   UNL     1      44.165 -22.057   3.050  1.00  0.00     0.042 A 
HETATM   19  C   UNL     1      43.599 -21.586   1.868  1.00  0.00     0.003 A 
HETATM   20  C   UNL     1      43.616 -20.216   1.581  1.00  0.00     0.007 A 
ENDBRANCH  13  14
ENDBRANCH   9  13
BRANCH   9  21
HETATM   21  C   UNL     1      41.650 -17.464   1.789  1.00  0.00     0.027 C 
HETATM   22  C   UNL     1      41.616 -17.260   0.258  1.00  0.00     0.035 C 
HETATM   23  C   UNL     1      41.324 -15.827  -0.203  1.00  0.00     0.235 C 
HETATM   24  N   UNL     1      40.125 -15.230   0.494  1.00  0.00    -0.067 N 
HETATM   25  H   UNL     1      39.292 -15.668   0.082  1.00  0.00     0.280 HD
HETATM   26  C   UNL     1      40.066 -15.459   1.984  1.00  0.00     0.235 C 
HETATM   27  C   UNL     1      40.318 -16.911   2.330  1.00  0.00     0.035 C 
BRANCH  24  28
HETATM   28  C   UNL     1      39.994 -13.726   0.242  1.00  0.00     0.273 C 
BRANCH  28  29
HETATM   29  C   UNL     1      39.029 -13.297  -0.827  1.00  0.00    -0.030 A 
HETATM   30  C   UNL     1      38.669 -14.142  -1.886  1.00  0.00     0.048 A 
HETATM   31  C   UNL     1      37.741 -13.719  -2.839  1.00  0.00     0.102 A 
HETATM   32  C   UNL     1      37.160 -12.452  -2.746  1.00  0.00     0.102 A 
HETATM   33  O   UNL     1      37.454 -14.604  -3.845  1.00  0.00    -0.346 OA
HETATM   34  O   UNL     1      36.254 -11.970  -3.652  1.00  0.00    -0.346 OA
HETATM   35  C   UNL     1      37.483 -11.619  -1.682  1.00  0.00     0.040 A 
HETATM   36  C   UNL     1      36.247 -12.745  -4.856  1.00  0.00     0.202 C 
HETATM   37  C   UNL     1      36.255 -14.233  -4.542  1.00  0.00     0.202 C 
HETATM   38  C   UNL     1      38.415 -12.035  -0.730  1.00  0.00     0.012 A 
ENDBRANCH  28  29
ENDBRANCH  24  28
ENDBRANCH   9  21
ENDBRANCH   4   5
ENDBRANCH   3   4
TORSDOF 7
ENDMDL
MODEL 4
REMARK VINA RESULT:      -9.5      3.497      7.608
REMARK  7 active torsions:
REMARK  status: ('A' for Active; 'I' for Inactive)
REMARK    1  A    between atoms: C_3  and  C_4 
REMARK    2  A    between atoms: C_4  and  N_5 
REMARK    3  A    between atoms: C_9  and  C_28 
REMARK    4  A    between atoms: C_9  and  C_10 
REMARK    5  A    between atoms: N_13  and  C_15 
REMARK    6  A    between atoms: C_15  and  C_16 
REMARK    7  A    between atoms: C_28  and  C_29 
ROOT
HETATM    1  C   UNL     1      42.864 -11.527  -1.294  1.00  0.00     0.112 C 
HETATM    2  C   UNL     1      42.093 -12.785  -0.927  1.00  0.00    -0.109 C 
HETATM    3  C   UNL     1      41.432 -13.863  -0.612  1.00  0.00    -0.087 C 
ENDROOT
BRANCH   3   4
HETATM    4  C   UNL     1      40.661 -15.121  -0.247  1.00  0.00     0.230 C 
BRANCH   4   5
HETATM    5  N   UNL     1      40.899 -15.492   1.123  1.00  0.00    -0.257 N 
HETATM    6  C   UNL     1      40.152 -15.052   2.162  1.00  0.00     0.327 A 
HETATM    7  O   UNL     1      39.207 -14.284   2.151  1.00  0.00    -0.247 OA
HETATM    8  N   UNL     1      40.708 -15.515   3.324  1.00  0.00    -0.324 N 
HETATM    9  C   UNL     1      41.939 -16.271   3.124  1.00  0.00     0.123 A 
HETATM   10  H   UNL     1      40.135 -15.521   4.162  1.00  0.00     0.165 HD
HETATM   11  C   UNL     1      41.987 -16.186   1.572  1.00  0.00     0.257 A 
HETATM   12  O   UNL     1      42.906 -16.586   0.874  1.00  0.00    -0.270 OA
BRANCH   9  13
HETATM   13  C   UNL     1      41.679 -17.725   3.594  1.00  0.00     0.080 C 
BRANCH  13  14
HETATM   14  C   UNL     1      42.831 -18.700   3.539  1.00  0.00    -0.052 A 
HETATM   15  C   UNL     1      43.021 -19.522   2.419  1.00  0.00     0.049 A 
HETATM   16  C   UNL     1      44.069 -20.438   2.392  1.00  0.00     0.116 A 
HETATM   17  F   UNL     1      44.234 -21.217   1.316  1.00  0.00    -0.206 F 
HETATM   18  C   UNL     1      44.939 -20.563   3.467  1.00  0.00     0.042 A 
HETATM   19  C   UNL     1      44.757 -19.761   4.590  1.00  0.00     0.003 A 
HETATM   20  C   UNL     1      43.706 -18.837   4.628  1.00  0.00     0.007 A 
ENDBRANCH  13  14
ENDBRANCH   9  13
BRANCH   9  21
HETATM   21  C   UNL     1      43.151 -15.548   3.833  1.00  0.00     0.027 C 
HETATM   22  C   UNL     1      42.984 -15.382   5.359  1.00  0.00     0.035 C 
HETATM   23  C   UNL     1      42.056 -14.241   5.794  1.00  0.00     0.235 C 
HETATM   24  N   UNL     1      42.374 -12.941   5.095  1.00  0.00    -0.067 N 
HETATM   25  H   UNL     1      43.234 -12.576   5.523  1.00  0.00     0.280 HD
HETATM   26  C   UNL     1      42.619 -13.052   3.610  1.00  0.00     0.235 C 
HETATM   27  C   UNL     1      43.585 -14.172   3.292  1.00  0.00     0.035 C 
BRANCH  24  28
HETATM   28  C   UNL     1      41.294 -11.881   5.317  1.00  0.00     0.273 C 
BRANCH  28  29
HETATM   29  C   UNL     1      40.991 -11.506   6.741  1.00  0.00    -0.030 A 
HETATM   30  C   UNL     1      41.965 -10.963   7.589  1.00  0.00     0.048 A 
HETATM   31  C   UNL     1      41.634 -10.594   8.895  1.00  0.00     0.102 A 
HETATM   32  C   UNL     1      40.330 -10.758   9.366  1.00  0.00     0.102 A 
HETATM   33  O   UNL     1      42.649 -10.080   9.659  1.00  0.00    -0.346 OA
HETATM   34  O   UNL     1      39.940 -10.429  10.636  1.00  0.00    -0.346 OA
HETATM   35  C   UNL     1      39.347 -11.263   8.523  1.00  0.00     0.040 A 
HETATM   36  C   UNL     1      41.064 -10.242  11.502  1.00  0.00     0.202 C 
HETATM   37  C   UNL     1      42.140  -9.410  10.822  1.00  0.00     0.202 C 
HETATM   38  C   UNL     1      39.674 -11.640   7.220  1.00  0.00     0.012 A 
ENDBRANCH  28  29
ENDBRANCH  24  28
ENDBRANCH   9  21
ENDBRANCH   4   5
ENDBRANCH   3   4
TORSDOF 7
ENDMDL
MODEL 5
REMARK VINA RESULT:      -9.4      3.432      7.805
REMARK  7 active torsions:
REMARK  status: ('A' for Active; 'I' for Inactive)
REMARK    1  A    between atoms: C_3  and  C_4 
REMARK    2  A    between atoms: C_4  and  N_5 
REMARK    3  A    between atoms: C_9  and  C_28 
REMARK    4  A    between atoms: C_9  and  C_10 
REMARK    5  A    between atoms: N_13  and  C_15 
REMARK    6  A    between atoms: C_15  and  C_16 
REMARK    7  A    between atoms: C_28  and  C_29 
ROOT
HETATM    1  C   UNL     1      39.067 -12.092   4.696  1.00  0.00     0.112 C 
HETATM    2  C   UNL     1      39.846 -12.956   3.718  1.00  0.00    -0.109 C 
HETATM    3  C   UNL     1      40.514 -13.696   2.878  1.00  0.00    -0.087 C 
ENDROOT
BRANCH   3   4
HETATM    4  C   UNL     1      41.293 -14.558   1.899  1.00  0.00     0.230 C 
BRANCH   4   5
HETATM    5  N   UNL     1      41.783 -15.751   2.538  1.00  0.00    -0.257 N 
HETATM    6  C   UNL     1      41.154 -16.947   2.479  1.00  0.00     0.327 A 
HETATM    7  O   UNL     1      40.105 -17.232   1.932  1.00  0.00    -0.247 OA
HETATM    8  N   UNL     1      41.833 -17.834   3.272  1.00  0.00    -0.324 N 
HETATM    9  C   UNL     1      42.962 -17.242   3.980  1.00  0.00     0.123 A 
HETATM   10  H   UNL     1      41.673 -18.826   3.129  1.00  0.00     0.165 HD
HETATM   11  C   UNL     1      42.832 -15.801   3.412  1.00  0.00     0.257 A 
HETATM   12  O   UNL     1      43.499 -14.842   3.770  1.00  0.00    -0.270 OA
BRANCH   9  13
HETATM   13  C   UNL     1      44.252 -17.930   3.464  1.00  0.00     0.080 C 
BRANCH  13  14
HETATM   14  C   UNL     1      44.243 -19.434   3.326  1.00  0.00    -0.052 A 
HETATM   15  C   UNL     1      44.674 -20.252   4.379  1.00  0.00     0.049 A 
HETATM   16  C   UNL     1      44.690 -21.636   4.230  1.00  0.00     0.116 A 
HETATM   17  F   UNL     1      45.107 -22.402   5.246  1.00  0.00    -0.206 F 
HETATM   18  C   UNL     1      44.287 -22.233   3.043  1.00  0.00     0.042 A 
HETATM   19  C   UNL     1      43.865 -21.433   1.985  1.00  0.00     0.003 A 
HETATM   20  C   UNL     1      43.847 -20.041   2.124  1.00  0.00     0.007 A 
ENDBRANCH  13  14
ENDBRANCH   9  13
BRANCH   9  21
HETATM   21  C   UNL     1      42.741 -17.327   5.541  1.00  0.00     0.027 C 
HETATM   22  C   UNL     1      41.782 -16.255   6.103  1.00  0.00     0.035 C 
HETATM   23  C   UNL     1      42.392 -14.858   6.272  1.00  0.00     0.235 C 
HETATM   24  N   UNL     1      43.720 -14.890   6.989  1.00  0.00    -0.067 N 
HETATM   25  H   UNL     1      43.518 -15.061   7.982  1.00  0.00     0.280 HD
HETATM   26  C   UNL     1      44.673 -15.966   6.530  1.00  0.00     0.235 C 
HETATM   27  C   UNL     1      43.987 -17.313   6.446  1.00  0.00     0.035 C 
BRANCH  24  28
HETATM   28  C   UNL     1      44.453 -13.550   6.919  1.00  0.00     0.273 C 
BRANCH  28  29
HETATM   29  C   UNL     1      44.364 -12.661   8.128  1.00  0.00    -0.030 A 
HETATM   30  C   UNL     1      43.238 -11.866   8.383  1.00  0.00     0.048 A 
HETATM   31  C   UNL     1      43.178 -11.082   9.536  1.00  0.00     0.102 A 
HETATM   32  C   UNL     1      44.236 -11.083  10.448  1.00  0.00     0.102 A 
HETATM   33  O   UNL     1      42.045 -10.328   9.703  1.00  0.00    -0.346 OA
HETATM   34  O   UNL     1      44.247 -10.330  11.591  1.00  0.00    -0.346 OA
HETATM   35  C   UNL     1      45.342 -11.894  10.223  1.00  0.00     0.040 A 
HETATM   36  C   UNL     1      43.247  -9.307  11.560  1.00  0.00     0.202 C 
HETATM   37  C   UNL     1      41.923  -9.859  11.054  1.00  0.00     0.202 C 
HETATM   38  C   UNL     1      45.410 -12.675   9.068  1.00  0.00     0.012 A 
ENDBRANCH  28  29
ENDBRANCH  24  28
ENDBRANCH   9  21
ENDBRANCH   4   5
ENDBRANCH   3   4
TORSDOF 7
ENDMDL
MODEL 6
REMARK VINA RESULT:      -9.2      3.011      8.107
REMARK  7 active torsions:
REMARK  status: ('A' for Active; 'I' for Inactive)
REMARK    1  A    between atoms: C_3  and  C_4 
REMARK    2  A    between atoms: C_4  and  N_5 
REMARK    3  A    between atoms: C_9  and  C_28 
REMARK    4  A    between atoms: C_9  and  C_10 
REMARK    5  A    between atoms: N_13  and  C_15 
REMARK    6  A    between atoms: C_15  and  C_16 
REMARK    7  A    between atoms: C_28  and  C_29 
ROOT
HETATM    1  C   UNL     1      41.046 -15.458  -2.704  1.00  0.00     0.112 C 
HETATM    2  C   UNL     1      41.126 -15.186  -1.211  1.00  0.00    -0.109 C 
HETATM    3  C   UNL     1      41.195 -14.952   0.070  1.00  0.00    -0.087 C 
ENDROOT
BRANCH   3   4
HETATM    4  C   UNL     1      41.274 -14.681   1.563  1.00  0.00     0.230 C 
BRANCH   4   5
HETATM    5  N   UNL     1      41.767 -15.834   2.271  1.00  0.00    -0.257 N 
HETATM    6  C   UNL     1      41.187 -17.055   2.214  1.00  0.00     0.327 A 
HETATM    7  O   UNL     1      40.184 -17.396   1.614  1.00  0.00    -0.247 OA
HETATM    8  N   UNL     1      41.847 -17.889   3.076  1.00  0.00    -0.324 N 
HETATM    9  C   UNL     1      42.908 -17.232   3.830  1.00  0.00     0.123 A 
HETATM   10  H   UNL     1      41.733 -18.891   2.957  1.00  0.00     0.165 HD
HETATM   11  C   UNL     1      42.761 -15.815   3.207  1.00  0.00     0.257 A 
HETATM   12  O   UNL     1      43.369 -14.820   3.573  1.00  0.00    -0.270 OA
BRANCH   9  13
HETATM   13  C   UNL     1      44.252 -17.885   3.417  1.00  0.00     0.080 C 
BRANCH  13  14
HETATM   14  C   UNL     1      44.334 -19.393   3.422  1.00  0.00    -0.052 A 
HETATM   15  C   UNL     1      43.994 -20.133   2.282  1.00  0.00     0.049 A 
HETATM   16  C   UNL     1      44.045 -21.524   2.307  1.00  0.00     0.116 A 
HETATM   17  F   UNL     1      43.714 -22.215   1.210  1.00  0.00    -0.206 F 
HETATM   18  C   UNL     1      44.426 -22.206   3.456  1.00  0.00     0.042 A 
HETATM   19  C   UNL     1      44.758 -21.484   4.600  1.00  0.00     0.003 A 
HETATM   20  C   UNL     1      44.708 -20.086   4.585  1.00  0.00     0.007 A 
ENDBRANCH  13  14
ENDBRANCH   9  13
BRANCH   9  21
HETATM   21  C   UNL     1      42.594 -17.277   5.377  1.00  0.00     0.027 C 
HETATM   22  C   UNL     1      41.584 -16.208   5.849  1.00  0.00     0.035 C 
HETATM   23  C   UNL     1      42.157 -14.794   6.012  1.00  0.00     0.235 C 
HETATM   24  N   UNL     1      43.440 -14.780   6.808  1.00  0.00    -0.067 N 
HETATM   25  H   UNL     1      43.181 -14.926   7.792  1.00  0.00     0.280 HD
HETATM   26  C   UNL     1      44.438 -15.850   6.440  1.00  0.00     0.235 C 
HETATM   27  C   UNL     1      43.783 -17.212   6.355  1.00  0.00     0.035 C 
BRANCH  24  28
HETATM   28  C   UNL     1      44.151 -13.428   6.742  1.00  0.00     0.273 C 
BRANCH  28  29
HETATM   29  C   UNL     1      44.159 -12.601   7.998  1.00  0.00    -0.030 A 
HETATM   30  C   UNL     1      43.085 -11.772   8.347  1.00  0.00     0.048 A 
HETATM   31  C   UNL     1      43.114 -11.047   9.540  1.00  0.00     0.102 A 
HETATM   32  C   UNL     1      44.212 -11.144  10.398  1.00  0.00     0.102 A 
HETATM   33  O   UNL     1      42.027 -10.255   9.799  1.00  0.00    -0.346 OA
HETATM   34  O   UNL     1      44.311 -10.453  11.576  1.00  0.00    -0.346 OA
HETATM   35  C   UNL     1      45.268 -11.989  10.079  1.00  0.00     0.040 A 
HETATM   36  C   UNL     1      43.359  -9.387  11.645  1.00  0.00     0.202 C 
HETATM   37  C   UNL     1      41.989  -9.853  11.177  1.00  0.00     0.202 C 
HETATM   38  C   UNL     1      45.246 -12.710   8.884  1.00  0.00     0.012 A 
ENDBRANCH  28  29
ENDBRANCH  24  28
ENDBRANCH   9  21
ENDBRANCH   4   5
ENDBRANCH   3   4
TORSDOF 7
ENDMDL
MODEL 7
REMARK VINA RESULT:      -9.2      2.590      3.648
REMARK  7 active torsions:
REMARK  status: ('A' for Active; 'I' for Inactive)
REMARK    1  A    between atoms: C_3  and  C_4 
REMARK    2  A    between atoms: C_4  and  N_5 
REMARK    3  A    between atoms: C_9  and  C_28 
REMARK    4  A    between atoms: C_9  and  C_10 
REMARK    5  A    between atoms: N_13  and  C_15 
REMARK    6  A    between atoms: C_15  and  C_16 
REMARK    7  A    between atoms: C_28  and  C_29 
ROOT
HETATM    1  C   UNL     1      38.752 -11.888   2.671  1.00  0.00     0.112 C 
HETATM    2  C   UNL     1      39.619 -12.446   3.788  1.00  0.00    -0.109 C 
HETATM    3  C   UNL     1      40.361 -12.924   4.747  1.00  0.00    -0.087 C 
ENDROOT
BRANCH   3   4
HETATM    4  C   UNL     1      41.227 -13.483   5.865  1.00  0.00     0.230 C 
BRANCH   4   5
HETATM    5  N   UNL     1      42.132 -14.483   5.365  1.00  0.00    -0.257 N 
HETATM    6  C   UNL     1      43.092 -14.235   4.445  1.00  0.00     0.327 A 
HETATM    7  O   UNL     1      43.350 -13.192   3.873  1.00  0.00    -0.247 OA
HETATM    8  N   UNL     1      43.702 -15.419   4.124  1.00  0.00    -0.324 N 
HETATM    9  C   UNL     1      43.122 -16.577   4.794  1.00  0.00     0.123 A 
HETATM   10  H   UNL     1      44.611 -15.384   3.674  1.00  0.00     0.165 HD
HETATM   11  C   UNL     1      42.040 -15.823   5.617  1.00  0.00     0.257 A 
HETATM   12  O   UNL     1      41.179 -16.356   6.300  1.00  0.00    -0.270 OA
BRANCH   9  13
HETATM   13  C   UNL     1      44.210 -17.177   5.722  1.00  0.00     0.080 C 
BRANCH  13  14
HETATM   14  C   UNL     1      44.195 -18.669   5.954  1.00  0.00    -0.052 A 
HETATM   15  C   UNL     1      44.754 -19.546   5.015  1.00  0.00     0.049 A 
HETATM   16  C   UNL     1      44.708 -20.922   5.225  1.00  0.00     0.116 A 
HETATM   17  F   UNL     1      45.245 -21.744   4.317  1.00  0.00    -0.206 F 
HETATM   18  C   UNL     1      44.105 -21.453   6.358  1.00  0.00     0.042 A 
HETATM   19  C   UNL     1      43.536 -20.594   7.295  1.00  0.00     0.003 A 
HETATM   20  C   UNL     1      43.577 -19.210   7.093  1.00  0.00     0.007 A 
ENDBRANCH  13  14
ENDBRANCH   9  13
BRANCH   9  21
HETATM   21  C   UNL     1      42.522 -17.583   3.735  1.00  0.00     0.027 C 
HETATM   22  C   UNL     1      43.386 -17.758   2.467  1.00  0.00     0.035 C 
HETATM   23  C   UNL     1      43.278 -16.622   1.442  1.00  0.00     0.235 C 
HETATM   24  N   UNL     1      41.845 -16.262   1.129  1.00  0.00    -0.067 N 
HETATM   25  H   UNL     1      41.474 -17.010   0.530  1.00  0.00     0.280 HD
HETATM   26  C   UNL     1      40.934 -16.147   2.326  1.00  0.00     0.235 C 
HETATM   27  C   UNL     1      41.081 -17.339   3.248  1.00  0.00     0.035 C 
BRANCH  24  28
HETATM   28  C   UNL     1      41.733 -14.965   0.325  1.00  0.00     0.273 C 
BRANCH  28  29
HETATM   29  C   UNL     1      40.797 -14.973  -0.851  1.00  0.00    -0.030 A 
HETATM   30  C   UNL     1      39.695 -14.112  -0.928  1.00  0.00     0.048 A 
HETATM   31  C   UNL     1      38.870 -14.124  -2.055  1.00  0.00     0.102 A 
HETATM   32  C   UNL     1      39.138 -14.991  -3.117  1.00  0.00     0.102 A 
HETATM   33  O   UNL     1      37.809 -13.257  -2.043  1.00  0.00    -0.346 OA
HETATM   34  O   UNL     1      38.365 -15.063  -4.244  1.00  0.00    -0.346 OA
HETATM   35  C   UNL     1      40.248 -15.825  -3.067  1.00  0.00     0.040 A 
HETATM   36  C   UNL     1      37.095 -14.429  -4.056  1.00  0.00     0.202 C 
HETATM   37  C   UNL     1      37.257 -13.088  -3.358  1.00  0.00     0.202 C 
HETATM   38  C   UNL     1      41.071 -15.821  -1.940  1.00  0.00     0.012 A 
ENDBRANCH  28  29
ENDBRANCH  24  28
ENDBRANCH   9  21
ENDBRANCH   4   5
ENDBRANCH   3   4
TORSDOF 7
ENDMDL
MODEL 8
REMARK VINA RESULT:      -9.1      2.691      3.926
REMARK  7 active torsions:
REMARK  status: ('A' for Active; 'I' for Inactive)
REMARK    1  A    between atoms: C_3  and  C_4 
REMARK    2  A    between atoms: C_4  and  N_5 
REMARK    3  A    between atoms: C_9  and  C_28 
REMARK    4  A    between atoms: C_9  and  C_10 
REMARK    5  A    between atoms: N_13  and  C_15 
REMARK    6  A    between atoms: C_15  and  C_16 
REMARK    7  A    between atoms: C_28  and  C_29 
ROOT
HETATM    1  C   UNL     1      44.598 -18.661   7.411  1.00  0.00     0.112 C 
HETATM    2  C   UNL     1      44.234 -17.251   6.975  1.00  0.00    -0.109 C 
HETATM    3  C   UNL     1      43.922 -16.042   6.602  1.00  0.00    -0.087 C 
ENDROOT
BRANCH   3   4
HETATM    4  C   UNL     1      43.559 -14.632   6.167  1.00  0.00     0.230 C 
BRANCH   4   5
HETATM    5  N   UNL     1      42.870 -14.643   4.903  1.00  0.00    -0.257 N 
HETATM    6  C   UNL     1      43.408 -14.182   3.751  1.00  0.00     0.327 A 
HETATM    7  O   UNL     1      44.500 -13.676   3.567  1.00  0.00    -0.247 OA
HETATM    8  N   UNL     1      42.455 -14.251   2.769  1.00  0.00    -0.324 N 
HETATM    9  C   UNL     1      41.159 -14.722   3.243  1.00  0.00     0.123 A 
HETATM   10  H   UNL     1      42.759 -14.215   1.801  1.00  0.00     0.165 HD
HETATM   11  C   UNL     1      41.551 -14.954   4.729  1.00  0.00     0.257 A 
HETATM   12  O   UNL     1      40.776 -15.265   5.620  1.00  0.00    -0.270 OA
BRANCH   9  13
HETATM   13  C   UNL     1      40.860 -16.066   2.530  1.00  0.00     0.080 C 
BRANCH  13  14
HETATM   14  C   UNL     1      41.971 -17.085   2.451  1.00  0.00    -0.052 A 
HETATM   15  C   UNL     1      42.267 -17.910   3.545  1.00  0.00     0.049 A 
HETATM   16  C   UNL     1      43.313 -18.825   3.471  1.00  0.00     0.116 A 
HETATM   17  F   UNL     1      43.582 -19.603   4.527  1.00  0.00    -0.206 F 
HETATM   18  C   UNL     1      44.086 -18.938   2.323  1.00  0.00     0.042 A 
HETATM   19  C   UNL     1      43.811 -18.119   1.231  1.00  0.00     0.003 A 
HETATM   20  C   UNL     1      42.762 -17.195   1.296  1.00  0.00     0.007 A 
ENDBRANCH  13  14
ENDBRANCH   9  13
BRANCH   9  21
HETATM   21  C   UNL     1      40.061 -13.606   3.047  1.00  0.00     0.027 C 
HETATM   22  C   UNL     1      38.811 -14.076   2.271  1.00  0.00     0.035 C 
HETATM   23  C   UNL     1      38.982 -14.166   0.749  1.00  0.00     0.235 C 
HETATM   24  N   UNL     1      39.600 -12.920   0.164  1.00  0.00    -0.067 N 
HETATM   25  H   UNL     1      38.870 -12.196   0.166  1.00  0.00     0.280 HD
HETATM   26  C   UNL     1      40.784 -12.370   0.921  1.00  0.00     0.235 C 
HETATM   27  C   UNL     1      40.494 -12.274   2.404  1.00  0.00     0.035 C 
BRANCH  24  28
HETATM   28  C   UNL     1      40.020 -13.107  -1.295  1.00  0.00     0.273 C 
BRANCH  28  29
HETATM   29  C   UNL     1      38.943 -13.495  -2.269  1.00  0.00    -0.030 A 
HETATM   30  C   UNL     1      37.936 -12.601  -2.658  1.00  0.00     0.048 A 
HETATM   31  C   UNL     1      36.975 -12.988  -3.594  1.00  0.00     0.102 A 
HETATM   32  C   UNL     1      37.008 -14.267  -4.153  1.00  0.00     0.102 A 
HETATM   33  O   UNL     1      36.022 -12.055  -3.910  1.00  0.00    -0.346 OA
HETATM   34  O   UNL     1      36.090 -14.715  -5.064  1.00  0.00    -0.346 OA
HETATM   35  C   UNL     1      38.021 -15.151  -3.801  1.00  0.00     0.040 A 
HETATM   36  C   UNL     1      34.930 -13.878  -5.103  1.00  0.00     0.202 C 
HETATM   37  C   UNL     1      35.324 -12.409  -5.113  1.00  0.00     0.202 C 
HETATM   38  C   UNL     1      38.980 -14.771  -2.861  1.00  0.00     0.012 A 
ENDBRANCH  28  29
ENDBRANCH  24  28
ENDBRANCH   9  21
ENDBRANCH   4   5
ENDBRANCH   3   4
TORSDOF 7
ENDMDL
MODEL 9
REMARK VINA RESULT:      -9.0      4.593      8.598
REMARK  7 active torsions:
REMARK  status: ('A' for Active; 'I' for Inactive)
REMARK    1  A    between atoms: C_3  and  C_4 
REMARK    2  A    between atoms: C_4  and  N_5 
REMARK    3  A    between atoms: C_9  and  C_28 
REMARK    4  A    between atoms: C_9  and  C_10 
REMARK    5  A    between atoms: N_13  and  C_15 
REMARK    6  A    between atoms: C_15  and  C_16 
REMARK    7  A    between atoms: C_28  and  C_29 
ROOT
HETATM    1  C   UNL     1      44.455 -20.521   2.741  1.00  0.00     0.112 C 
HETATM    2  C   UNL     1      43.860 -19.217   2.237  1.00  0.00    -0.109 C 
HETATM    3  C   UNL     1      43.350 -18.098   1.804  1.00  0.00    -0.087 C 
ENDROOT
BRANCH   3   4
HETATM    4  C   UNL     1      42.755 -16.794   1.298  1.00  0.00     0.230 C 
BRANCH   4   5
HETATM    5  N   UNL     1      41.984 -16.146   2.326  1.00  0.00    -0.257 N 
HETATM    6  C   UNL     1      40.646 -16.293   2.466  1.00  0.00     0.327 A 
HETATM    7  O   UNL     1      39.873 -16.938   1.782  1.00  0.00    -0.247 OA
HETATM    8  N   UNL     1      40.222 -15.468   3.474  1.00  0.00    -0.324 N 
HETATM    9  C   UNL     1      41.284 -14.648   4.046  1.00  0.00     0.123 A 
HETATM   10  H   UNL     1      39.318 -15.652   3.897  1.00  0.00     0.165 HD
HETATM   11  C   UNL     1      42.455 -15.186   3.176  1.00  0.00     0.257 A 
HETATM   12  O   UNL     1      43.594 -14.745   3.180  1.00  0.00    -0.270 OA
BRANCH   9  13
HETATM   13  C   UNL     1      41.454 -15.068   5.528  1.00  0.00     0.080 C 
BRANCH  13  14
HETATM   14  C   UNL     1      42.549 -16.052   5.862  1.00  0.00    -0.052 A 
HETATM   15  C   UNL     1      42.376 -17.423   5.629  1.00  0.00     0.049 A 
HETATM   16  C   UNL     1      43.381 -18.325   5.968  1.00  0.00     0.116 A 
HETATM   17  F   UNL     1      43.197 -19.631   5.741  1.00  0.00    -0.206 F 
HETATM   18  C   UNL     1      44.567 -17.891   6.545  1.00  0.00     0.042 A 
HETATM   19  C   UNL     1      44.751 -16.533   6.791  1.00  0.00     0.003 A 
HETATM   20  C   UNL     1      43.746 -15.618   6.455  1.00  0.00     0.007 A 
ENDBRANCH  13  14
ENDBRANCH   9  13
BRANCH   9  21
HETATM   21  C   UNL     1      40.981 -13.116   3.818  1.00  0.00     0.027 C 
HETATM   22  C   UNL     1      41.863 -12.164   4.656  1.00  0.00     0.035 C 
HETATM   23  C   UNL     1      41.453 -12.021   6.127  1.00  0.00     0.235 C 
HETATM   24  N   UNL     1      39.977 -11.748   6.291  1.00  0.00    -0.067 N 
HETATM   25  H   UNL     1      39.824 -10.768   6.020  1.00  0.00     0.280 HD
HETATM   26  C   UNL     1      39.067 -12.599   5.441  1.00  0.00     0.235 C 
HETATM   27  C   UNL     1      39.529 -12.634   4.000  1.00  0.00     0.035 C 
BRANCH  24  28
HETATM   28  C   UNL     1      39.519 -11.873   7.745  1.00  0.00     0.273 C 
BRANCH  28  29
HETATM   29  C   UNL     1      39.936 -10.779   8.687  1.00  0.00    -0.030 A 
HETATM   30  C   UNL     1      39.945 -10.959  10.077  1.00  0.00     0.048 A 
HETATM   31  C   UNL     1      40.375  -9.930  10.917  1.00  0.00     0.102 A 
HETATM   32  C   UNL     1      40.803  -8.714  10.381  1.00  0.00     0.102 A 
HETATM   33  O   UNL     1      40.342 -10.188  12.262  1.00  0.00    -0.346 OA
HETATM   34  O   UNL     1      41.225  -7.660  11.146  1.00  0.00    -0.346 OA
HETATM   35  C   UNL     1      40.831  -8.535   9.003  1.00  0.00     0.040 A 
HETATM   36  C   UNL     1      40.847  -7.818  12.518  1.00  0.00     0.202 C 
HETATM   37  C   UNL     1      41.126  -9.235  12.996  1.00  0.00     0.202 C 
HETATM   38  C   UNL     1      40.397  -9.559   8.160  1.00  0.00     0.012 A 
ENDBRANCH  28  29
ENDBRANCH  24  28
ENDBRANCH   9  21
ENDBRANCH   4   5
ENDBRANCH   3   4
TORSDOF 7
ENDMDL
MODEL 10
REMARK VINA RESULT:      -9.0      2.863      5.827
REMARK  7 active torsions:
REMARK  status: ('A' for Active; 'I' for Inactive)
REMARK    1  A    between atoms: C_3  and  C_4 
REMARK    2  A    between atoms: C_4  and  N_5 
REMARK    3  A    between atoms: C_9  and  C_28 
REMARK    4  A    between atoms: C_9  and  C_10 
REMARK    5  A    between atoms: N_13  and  C_15 
REMARK    6  A    between atoms: C_15  and  C_16 
REMARK    7  A    between atoms: C_28  and  C_29 
ROOT
HETATM    1  C   UNL     1      40.995 -15.580  -2.909  1.00  0.00     0.112 C 
HETATM    2  C   UNL     1      41.139 -15.322  -1.418  1.00  0.00    -0.109 C 
HETATM    3  C   UNL     1      41.263 -15.101  -0.139  1.00  0.00    -0.087 C 
ENDROOT
BRANCH   3   4
HETATM    4  C   UNL     1      41.407 -14.844   1.352  1.00  0.00     0.230 C 
BRANCH   4   5
HETATM    5  N   UNL     1      41.852 -16.028   2.039  1.00  0.00    -0.257 N 
HETATM    6  C   UNL     1      41.224 -17.223   1.959  1.00  0.00     0.327 A 
HETATM    7  O   UNL     1      40.209 -17.514   1.353  1.00  0.00    -0.247 OA
HETATM    8  N   UNL     1      41.849 -18.100   2.806  1.00  0.00    -0.324 N 
HETATM    9  C   UNL     1      42.935 -17.499   3.572  1.00  0.00     0.123 A 
HETATM   10  H   UNL     1      41.696 -19.093   2.668  1.00  0.00     0.165 HD
HETATM   11  C   UNL     1      42.845 -16.066   2.975  1.00  0.00     0.257 A 
HETATM   12  O   UNL     1      43.492 -15.104   3.359  1.00  0.00    -0.270 OA
BRANCH   9  13
HETATM   13  C   UNL     1      44.252 -18.198   3.147  1.00  0.00     0.080 C 
BRANCH  13  14
HETATM   14  C   UNL     1      44.314 -19.704   3.242  1.00  0.00    -0.052 A 
HETATM   15  C   UNL     1      44.723 -20.331   4.427  1.00  0.00     0.049 A 
HETATM   16  C   UNL     1      44.805 -21.719   4.493  1.00  0.00     0.116 A 
HETATM   17  F   UNL     1      45.200 -22.301   5.633  1.00  0.00    -0.206 F 
HETATM   18  C   UNL     1      44.492 -22.508   3.395  1.00  0.00     0.042 A 
HETATM   19  C   UNL     1      44.093 -21.900   2.208  1.00  0.00     0.003 A 
HETATM   20  C   UNL     1      44.008 -20.505   2.130  1.00  0.00     0.007 A 
ENDBRANCH  13  14
ENDBRANCH   9  13
BRANCH   9  21
HETATM   21  C   UNL     1      42.618 -17.560   5.118  1.00  0.00     0.027 C 
HETATM   22  C   UNL     1      41.326 -16.820   5.528  1.00  0.00     0.035 C 
HETATM   23  C   UNL     1      41.448 -15.294   5.619  1.00  0.00     0.235 C 
HETATM   24  N   UNL     1      42.652 -14.858   6.419  1.00  0.00    -0.067 N 
HETATM   25  H   UNL     1      42.429 -15.026   7.407  1.00  0.00     0.280 HD
HETATM   26  C   UNL     1      43.931 -15.596   6.111  1.00  0.00     0.235 C 
HETATM   27  C   UNL     1      43.714 -17.094   6.096  1.00  0.00     0.035 C 
BRANCH  24  28
HETATM   28  C   UNL     1      42.929 -13.359   6.285  1.00  0.00     0.273 C 
BRANCH  28  29
HETATM   29  C   UNL     1      41.917 -12.545   5.528  1.00  0.00    -0.030 A 
HETATM   30  C   UNL     1      40.932 -11.792   6.181  1.00  0.00     0.048 A 
HETATM   31  C   UNL     1      40.033 -11.019   5.443  1.00  0.00     0.102 A 
HETATM   32  C   UNL     1      40.108 -10.987   4.049  1.00  0.00     0.102 A 
HETATM   33  O   UNL     1      39.097 -10.321   6.161  1.00  0.00    -0.346 OA
HETATM   34  O   UNL     1      39.252 -10.262   3.265  1.00  0.00    -0.346 OA
HETATM   35  C   UNL     1      41.101 -11.703   3.392  1.00  0.00     0.040 A 
HETATM   36  C   UNL     1      38.092  -9.845   3.993  1.00  0.00     0.202 C 
HETATM   37  C   UNL     1      38.478  -9.303   5.361  1.00  0.00     0.202 C 
HETATM   38  C   UNL     1      41.998 -12.481   4.125  1.00  0.00     0.012 A 
ENDBRANCH  28  29
ENDBRANCH  24  28
ENDBRANCH   9  21
ENDBRANCH   4   5
ENDBRANCH   3   4
TORSDOF 7
ENDMDL
