MODEL 1
REMARK VINA RESULT:      -8.2      0.000      0.000
REMARK  10 active torsions:
REMARK  status: ('A' for Active; 'I' for Inactive)
REMARK    1  A    between atoms: C_2  and  O_3 
REMARK    2  A    between atoms: O_3  and  C_4 
REMARK    3  A    between atoms: C_4  and  C_5 
REMARK    4  A    between atoms: C_6  and  C_7 
REMARK    5  A    between atoms: C_14  and  C_15 
REMARK    6  A    between atoms: C_15  and  C_16 
REMARK       I    between atoms: C_16  and  N_17 
REMARK    7  A    between atoms: N_17  and  C_18 
REMARK    8  A    between atoms: C_18  and  C_19 
REMARK    9  A    between atoms: C_19  and  N_20 
REMARK   10  A    between atoms: C_31  and  C_32 
ROOT
HETATM    1  C   UNL     1      42.496 -15.296   4.925  1.00  0.00     0.071 C 
HETATM    2  C   UNL     1      41.900 -14.988   3.529  1.00  0.00     0.150 C 
HETATM    3  N   UNL     1      40.837 -14.027   3.459  1.00  0.00    -0.321 N 
HETATM    4  C   UNL     1      39.773 -13.821   2.756  1.00  0.00     0.011 C 
HETATM    5  C   UNL     1      41.353 -12.775   4.133  1.00  0.00     0.170 C 
HETATM    6  S   UNL     1      40.426 -11.381   3.712  1.00  0.00    -0.086 SA
HETATM    7  C   UNL     1      39.178 -12.436   2.903  1.00  0.00     0.135 C 
HETATM    8  N   UNL     1      42.414 -12.776   4.845  1.00  0.00    -0.223 NA
HETATM    9  C   UNL     1      42.947 -13.985   5.338  1.00  0.00     0.084 C 
ENDROOT
BRANCH   4  10
HETATM   10  C   UNL     1      39.300 -14.819   1.739  1.00  0.00     0.156 C 
BRANCH  10  11
HETATM   11  C   UNL     1      38.241 -14.336   0.763  1.00  0.00     0.223 C 
HETATM   12  N   UNL     1      38.764 -13.698  -0.333  1.00  0.00    -0.359 N 
HETATM   13  H   UNL     1      39.770 -13.549  -0.357  1.00  0.00     0.162 HD
HETATM   14  O   UNL     1      37.038 -14.492   0.944  1.00  0.00    -0.273 OA
BRANCH  12  15
HETATM   15  C   UNL     1      38.081 -13.293  -1.567  1.00  0.00     0.150 C 
BRANCH  15  16
HETATM   16  C   UNL     1      37.931 -14.281  -2.740  1.00  0.00     0.254 C 
BRANCH  16  17
HETATM   17  N   UNL     1      39.165 -14.379  -3.602  1.00  0.00    -0.070 N 
HETATM   18  H   UNL     1      38.812 -14.343  -4.576  1.00  0.00     0.279 HD
HETATM   19  C   UNL     1      39.892 -15.709  -3.452  1.00  0.00     0.235 C 
HETATM   20  C   UNL     1      41.259 -15.339  -2.909  1.00  0.00     0.029 C 
HETATM   21  C   UNL     1      41.527 -13.992  -3.546  1.00  0.00     0.029 C 
HETATM   22  C   UNL     1      40.194 -13.287  -3.403  1.00  0.00     0.235 C 
ENDBRANCH  16  17
ENDBRANCH  15  16
ENDBRANCH  12  15
ENDBRANCH  10  11
ENDBRANCH   4  10
BRANCH   2  23
HETATM   23  C   UNL     1      41.595 -16.357   3.777  1.00  0.00     0.037 C 
HETATM   24  C   UNL     1      43.314 -17.026   3.707  1.00  0.00    -0.009 C 
HETATM   25  C   UNL     1      43.960 -17.341   2.096  1.00  0.00    -0.003 C 
HETATM   26  C   UNL     1      42.951 -17.087   0.638  1.00  0.00    -0.001 C 
HETATM   27  C   UNL     1      41.216 -16.604   0.745  1.00  0.00    -0.003 C 
HETATM   28  C   UNL     1      40.460 -16.325   2.318  1.00  0.00    -0.009 C 
ENDBRANCH   2  23
BRANCH   1  29
HETATM   29  C   UNL     1      42.341 -17.385   5.367  1.00  0.00     0.293 C 
HETATM   30  O   UNL     1      41.324 -18.120   5.184  1.00  0.00    -0.259 OA
BRANCH  29  31
HETATM   31  O   UNL     1      43.376 -18.231   5.909  1.00  0.00    -0.318 OA
BRANCH  31  32
HETATM   32  C   UNL     1      44.179 -17.790   7.026  1.00  0.00     0.174 C 
HETATM   33  C   UNL     1      43.308 -17.073   8.038  1.00  0.00     0.034 C 
ENDBRANCH  31  32
ENDBRANCH  29  31
ENDBRANCH   1  29
BRANCH   9  34
HETATM   34  C   UNL     1      43.878 -13.547   6.438  1.00  0.00    -0.006 A 
HETATM   35  C   UNL     1      45.252 -13.820   6.351  1.00  0.00     0.014 A 
HETATM   36  C   UNL     1      46.125 -13.371   7.344  1.00  0.00     0.001 A 
HETATM   37  C   UNL     1      45.640 -12.623   8.416  1.00  0.00     0.000 A 
HETATM   38  C   UNL     1      44.284 -12.311   8.493  1.00  0.00     0.001 A 
HETATM   39  C   UNL     1      43.407 -12.759   7.503  1.00  0.00     0.014 A 
ENDBRANCH   9  34
TORSDOF 10
ENDMDL
MODEL 2
REMARK VINA RESULT:      -8.1      3.274      5.310
REMARK  10 active torsions:
REMARK  status: ('A' for Active; 'I' for Inactive)
REMARK    1  A    between atoms: C_2  and  O_3 
REMARK    2  A    between atoms: O_3  and  C_4 
REMARK    3  A    between atoms: C_4  and  C_5 
REMARK    4  A    between atoms: C_6  and  C_7 
REMARK    5  A    between atoms: C_14  and  C_15 
REMARK    6  A    between atoms: C_15  and  C_16 
REMARK       I    between atoms: C_16  and  N_17 
REMARK    7  A    between atoms: N_17  and  C_18 
REMARK    8  A    between atoms: C_18  and  C_19 
REMARK    9  A    between atoms: C_19  and  N_20 
REMARK   10  A    between atoms: C_31  and  C_32 
ROOT
HETATM    1  C   UNL     1      42.826 -15.698   3.557  1.00  0.00     0.071 C 
HETATM    2  C   UNL     1      41.724 -14.784   2.966  1.00  0.00     0.150 C 
HETATM    3  N   UNL     1      41.816 -14.448   1.574  1.00  0.00    -0.321 N 
HETATM    4  C   UNL     1      41.533 -13.448   0.806  1.00  0.00     0.011 C 
HETATM    5  C   UNL     1      41.911 -15.760   0.827  1.00  0.00     0.170 C 
HETATM    6  S   UNL     1      41.531 -15.584  -0.848  1.00  0.00    -0.086 SA
HETATM    7  C   UNL     1      41.538 -13.768  -0.674  1.00  0.00     0.135 C 
HETATM    8  N   UNL     1      42.153 -16.863   1.424  1.00  0.00    -0.223 NA
HETATM    9  C   UNL     1      42.698 -16.874   2.724  1.00  0.00     0.084 C 
ENDROOT
BRANCH   4  10
HETATM   10  C   UNL     1      41.051 -12.141   1.367  1.00  0.00     0.156 C 
BRANCH  10  11
HETATM   11  C   UNL     1      41.213 -10.924   0.471  1.00  0.00     0.223 C 
HETATM   12  N   UNL     1      42.467 -10.371   0.528  1.00  0.00    -0.359 N 
HETATM   13  H   UNL     1      43.128 -10.767   1.193  1.00  0.00     0.162 HD
HETATM   14  O   UNL     1      40.308 -10.477  -0.225  1.00  0.00    -0.273 OA
BRANCH  12  15
HETATM   15  C   UNL     1      43.051  -9.341  -0.337  1.00  0.00     0.150 C 
BRANCH  15  16
HETATM   16  C   UNL     1      43.497  -9.683  -1.772  1.00  0.00     0.254 C 
BRANCH  16  17
HETATM   17  N   UNL     1      42.347  -9.862  -2.731  1.00  0.00    -0.070 N 
HETATM   18  H   UNL     1      41.496  -9.761  -2.146  1.00  0.00     0.279 HD
HETATM   19  C   UNL     1      42.292 -11.257  -3.341  1.00  0.00     0.235 C 
HETATM   20  C   UNL     1      42.469 -11.031  -4.830  1.00  0.00     0.029 C 
HETATM   21  C   UNL     1      41.798  -9.693  -5.055  1.00  0.00     0.029 C 
HETATM   22  C   UNL     1      42.285  -8.875  -3.877  1.00  0.00     0.235 C 
ENDBRANCH  16  17
ENDBRANCH  15  16
ENDBRANCH  12  15
ENDBRANCH  10  11
ENDBRANCH   4  10
BRANCH   2  23
HETATM   23  C   UNL     1      42.404 -13.984   3.929  1.00  0.00     0.037 C 
HETATM   24  C   UNL     1      41.794 -14.830   5.451  1.00  0.00    -0.009 C 
HETATM   25  C   UNL     1      40.191 -14.355   6.016  1.00  0.00    -0.003 C 
HETATM   26  C   UNL     1      39.269 -13.068   5.179  1.00  0.00    -0.001 C 
HETATM   27  C   UNL     1      39.964 -12.132   3.801  1.00  0.00    -0.003 C 
HETATM   28  C   UNL     1      41.587 -12.492   3.203  1.00  0.00    -0.009 C 
ENDBRANCH   2  23
BRANCH   1  29
HETATM   29  C   UNL     1      43.804 -14.734   5.200  1.00  0.00     0.293 C 
HETATM   30  O   UNL     1      44.418 -13.625   5.166  1.00  0.00    -0.259 OA
BRANCH  29  31
HETATM   31  O   UNL     1      43.873 -15.209   6.560  1.00  0.00    -0.318 OA
BRANCH  31  32
HETATM   32  C   UNL     1      44.464 -16.492   6.864  1.00  0.00     0.174 C 
HETATM   33  C   UNL     1      43.482 -17.341   7.646  1.00  0.00     0.034 C 
ENDBRANCH  31  32
ENDBRANCH  29  31
ENDBRANCH   1  29
BRANCH   9  34
HETATM   34  C   UNL     1      43.224 -18.276   2.885  1.00  0.00    -0.006 A 
HETATM   35  C   UNL     1      43.096 -19.202   1.838  1.00  0.00     0.014 A 
HETATM   36  C   UNL     1      43.628 -20.487   1.965  1.00  0.00     0.001 A 
HETATM   37  C   UNL     1      44.314 -20.850   3.123  1.00  0.00     0.000 A 
HETATM   38  C   UNL     1      44.483 -19.927   4.153  1.00  0.00     0.001 A 
HETATM   39  C   UNL     1      43.952 -18.641   4.031  1.00  0.00     0.014 A 
ENDBRANCH   9  34
TORSDOF 10
ENDMDL
MODEL 3
REMARK VINA RESULT:      -8.0      3.029      5.321
REMARK  10 active torsions:
REMARK  status: ('A' for Active; 'I' for Inactive)
REMARK    1  A    between atoms: C_2  and  O_3 
REMARK    2  A    between atoms: O_3  and  C_4 
REMARK    3  A    between atoms: C_4  and  C_5 
REMARK    4  A    between atoms: C_6  and  C_7 
REMARK    5  A    between atoms: C_14  and  C_15 
REMARK    6  A    between atoms: C_15  and  C_16 
REMARK       I    between atoms: C_16  and  N_17 
REMARK    7  A    between atoms: N_17  and  C_18 
REMARK    8  A    between atoms: C_18  and  C_19 
REMARK    9  A    between atoms: C_19  and  N_20 
REMARK   10  A    between atoms: C_31  and  C_32 
ROOT
HETATM    1  C   UNL     1      42.975 -16.445   3.801  1.00  0.00     0.071 C 
HETATM    2  C   UNL     1      41.877 -15.476   3.295  1.00  0.00     0.150 C 
HETATM    3  N   UNL     1      41.974 -15.014   1.939  1.00  0.00    -0.321 N 
HETATM    4  C   UNL     1      41.696 -13.947   1.267  1.00  0.00     0.011 C 
HETATM    5  C   UNL     1      42.066 -16.252   1.075  1.00  0.00     0.170 C 
HETATM    6  S   UNL     1      41.690 -15.920  -0.577  1.00  0.00    -0.086 SA
HETATM    7  C   UNL     1      41.704 -14.129  -0.237  1.00  0.00     0.135 C 
HETATM    8  N   UNL     1      42.302 -17.407   1.568  1.00  0.00    -0.223 NA
HETATM    9  C   UNL     1      42.844 -17.539   2.863  1.00  0.00     0.084 C 
ENDROOT
BRANCH   4  10
HETATM   10  C   UNL     1      41.217 -12.695   1.944  1.00  0.00     0.156 C 
BRANCH  10  11
HETATM   11  C   UNL     1      41.069 -11.467   1.062  1.00  0.00     0.223 C 
HETATM   12  N   UNL     1      42.269 -10.903   0.711  1.00  0.00    -0.359 N 
HETATM   13  H   UNL     1      43.114 -11.301   1.116  1.00  0.00     0.162 HD
HETATM   14  O   UNL     1      39.983 -11.020   0.709  1.00  0.00    -0.273 OA
BRANCH  12  15
HETATM   15  C   UNL     1      42.530  -9.858  -0.284  1.00  0.00     0.150 C 
BRANCH  15  16
HETATM   16  C   UNL     1      43.405 -10.152  -1.519  1.00  0.00     0.254 C 
BRANCH  16  17
HETATM   17  N   UNL     1      42.607 -10.517  -2.745  1.00  0.00    -0.070 N 
HETATM   18  H   UNL     1      43.019  -9.949  -3.509  1.00  0.00     0.279 HD
HETATM   19  C   UNL     1      41.142 -10.112  -2.645  1.00  0.00     0.235 C 
HETATM   20  C   UNL     1      40.377 -11.419  -2.722  1.00  0.00     0.029 C 
HETATM   21  C   UNL     1      41.236 -12.264  -3.639  1.00  0.00     0.029 C 
HETATM   22  C   UNL     1      42.637 -11.979  -3.138  1.00  0.00     0.235 C 
ENDBRANCH  16  17
ENDBRANCH  15  16
ENDBRANCH  12  15
ENDBRANCH  10  11
ENDBRANCH   4  10
BRANCH   2  23
HETATM   23  C   UNL     1      42.557 -14.771   4.328  1.00  0.00     0.037 C 
HETATM   24  C   UNL     1      41.944 -15.754   5.765  1.00  0.00    -0.009 C 
HETATM   25  C   UNL     1      40.341 -15.331   6.369  1.00  0.00    -0.003 C 
HETATM   26  C   UNL     1      39.422 -13.970   5.655  1.00  0.00    -0.001 C 
HETATM   27  C   UNL     1      40.120 -12.911   4.372  1.00  0.00    -0.003 C 
HETATM   28  C   UNL     1      41.744 -13.216   3.745  1.00  0.00    -0.009 C 
ENDBRANCH   2  23
BRANCH   1  29
HETATM   29  C   UNL     1      43.951 -15.641   5.528  1.00  0.00     0.293 C 
HETATM   30  O   UNL     1      44.348 -16.292   6.541  1.00  0.00    -0.259 OA
BRANCH  29  31
HETATM   31  O   UNL     1      44.304 -14.260   5.755  1.00  0.00    -0.318 OA
BRANCH  31  32
HETATM   32  C   UNL     1      45.291 -13.905   6.748  1.00  0.00     0.174 C 
HETATM   33  C   UNL     1      44.622 -13.211   7.917  1.00  0.00     0.034 C 
ENDBRANCH  31  32
ENDBRANCH  29  31
ENDBRANCH   1  29
BRANCH   9  34
HETATM   34  C   UNL     1      43.364 -18.952   2.895  1.00  0.00    -0.006 A 
HETATM   35  C   UNL     1      43.099 -19.827   1.830  1.00  0.00     0.014 A 
HETATM   36  C   UNL     1      43.623 -21.121   1.833  1.00  0.00     0.001 A 
HETATM   37  C   UNL     1      44.438 -21.544   2.882  1.00  0.00     0.000 A 
HETATM   38  C   UNL     1      44.742 -20.672   3.925  1.00  0.00     0.001 A 
HETATM   39  C   UNL     1      44.219 -19.377   3.927  1.00  0.00     0.014 A 
ENDBRANCH   9  34
TORSDOF 10
ENDMDL
MODEL 4
REMARK VINA RESULT:      -7.8      3.139      9.366
REMARK  10 active torsions:
REMARK  status: ('A' for Active; 'I' for Inactive)
REMARK    1  A    between atoms: C_2  and  O_3 
REMARK    2  A    between atoms: O_3  and  C_4 
REMARK    3  A    between atoms: C_4  and  C_5 
REMARK    4  A    between atoms: C_6  and  C_7 
REMARK    5  A    between atoms: C_14  and  C_15 
REMARK    6  A    between atoms: C_15  and  C_16 
REMARK       I    between atoms: C_16  and  N_17 
REMARK    7  A    between atoms: N_17  and  C_18 
REMARK    8  A    between atoms: C_18  and  C_19 
REMARK    9  A    between atoms: C_19  and  N_20 
REMARK   10  A    between atoms: C_31  and  C_32 
ROOT
HETATM    1  C   UNL     1      41.417 -14.492   3.626  1.00  0.00     0.071 C 
HETATM    2  C   UNL     1      41.807 -14.476   5.126  1.00  0.00     0.150 C 
HETATM    3  N   UNL     1      42.085 -13.201   5.724  1.00  0.00    -0.321 N 
HETATM    4  C   UNL     1      42.860 -12.718   6.638  1.00  0.00     0.011 C 
HETATM    5  C   UNL     1      40.877 -12.332   5.453  1.00  0.00     0.170 C 
HETATM    6  S   UNL     1      40.812 -10.962   6.502  1.00  0.00    -0.086 SA
HETATM    7  C   UNL     1      42.496 -11.323   7.101  1.00  0.00     0.135 C 
HETATM    8  N   UNL     1      39.981 -12.663   4.603  1.00  0.00    -0.223 NA
HETATM    9  C   UNL     1      40.244 -13.645   3.627  1.00  0.00     0.084 C 
ENDROOT
BRANCH   4  10
HETATM   10  C   UNL     1      43.906 -13.564   7.306  1.00  0.00     0.156 C 
BRANCH  10  11
HETATM   11  C   UNL     1      44.754 -12.875   8.362  1.00  0.00     0.223 C 
HETATM   12  N   UNL     1      44.077 -12.638   9.531  1.00  0.00    -0.359 N 
HETATM   13  H   UNL     1      43.087 -12.871   9.559  1.00  0.00     0.162 HD
HETATM   14  O   UNL     1      45.924 -12.555   8.182  1.00  0.00    -0.273 OA
BRANCH  12  15
HETATM   15  C   UNL     1      44.613 -12.197  10.824  1.00  0.00     0.150 C 
BRANCH  15  16
HETATM   16  C   UNL     1      43.736 -12.237  12.091  1.00  0.00     0.254 C 
BRANCH  16  17
HETATM   17  N   UNL     1      42.841 -11.032  12.238  1.00  0.00    -0.070 N 
HETATM   18  H   UNL     1      42.736 -10.660  11.276  1.00  0.00     0.279 HD
HETATM   19  C   UNL     1      43.470  -9.921  13.068  1.00  0.00     0.235 C 
HETATM   20  C   UNL     1      42.551  -9.769  14.265  1.00  0.00     0.029 C 
HETATM   21  C   UNL     1      41.187 -10.090  13.692  1.00  0.00     0.029 C 
HETATM   22  C   UNL     1      41.470 -11.299  12.822  1.00  0.00     0.235 C 
ENDBRANCH  16  17
ENDBRANCH  15  16
ENDBRANCH  12  15
ENDBRANCH  10  11
ENDBRANCH   4  10
BRANCH   2  23
HETATM   23  C   UNL     1      42.851 -15.188   4.471  1.00  0.00     0.037 C 
HETATM   24  C   UNL     1      41.910 -16.723   4.067  1.00  0.00    -0.009 C 
HETATM   25  C   UNL     1      41.759 -17.907   5.367  1.00  0.00    -0.003 C 
HETATM   26  C   UNL     1      42.550 -17.635   6.950  1.00  0.00    -0.001 C 
HETATM   27  C   UNL     1      43.614 -16.211   7.258  1.00  0.00    -0.003 C 
HETATM   28  C   UNL     1      43.878 -15.001   5.997  1.00  0.00    -0.009 C 
ENDBRANCH   2  23
BRANCH   1  29
HETATM   29  C   UNL     1      42.760 -15.732   2.513  1.00  0.00     0.293 C 
HETATM   30  O   UNL     1      44.024 -15.632   2.476  1.00  0.00    -0.259 OA
BRANCH  29  31
HETATM   31  O   UNL     1      42.407 -16.855   1.678  1.00  0.00    -0.318 OA
BRANCH  31  32
HETATM   32  C   UNL     1      43.430 -17.647   1.035  1.00  0.00     0.174 C 
HETATM   33  C   UNL     1      43.543 -18.996   1.715  1.00  0.00     0.034 C 
ENDBRANCH  31  32
ENDBRANCH  29  31
ENDBRANCH   1  29
BRANCH   9  34
HETATM   34  C   UNL     1      39.162 -13.434   2.601  1.00  0.00    -0.006 A 
HETATM   35  C   UNL     1      38.646 -12.149   2.374  1.00  0.00     0.014 A 
HETATM   36  C   UNL     1      37.679 -11.941   1.388  1.00  0.00     0.001 A 
HETATM   37  C   UNL     1      37.241 -13.006   0.602  1.00  0.00     0.000 A 
HETATM   38  C   UNL     1      37.775 -14.279   0.790  1.00  0.00     0.001 A 
HETATM   39  C   UNL     1      38.741 -14.492   1.776  1.00  0.00     0.014 A 
ENDBRANCH   9  34
TORSDOF 10
ENDMDL
MODEL 5
REMARK VINA RESULT:      -7.7      3.062      8.220
REMARK  10 active torsions:
REMARK  status: ('A' for Active; 'I' for Inactive)
REMARK    1  A    between atoms: C_2  and  O_3 
REMARK    2  A    between atoms: O_3  and  C_4 
REMARK    3  A    between atoms: C_4  and  C_5 
REMARK    4  A    between atoms: C_6  and  C_7 
REMARK    5  A    between atoms: C_14  and  C_15 
REMARK    6  A    between atoms: C_15  and  C_16 
REMARK       I    between atoms: C_16  and  N_17 
REMARK    7  A    between atoms: N_17  and  C_18 
REMARK    8  A    between atoms: C_18  and  C_19 
REMARK    9  A    between atoms: C_19  and  N_20 
REMARK   10  A    between atoms: C_31  and  C_32 
ROOT
HETATM    1  C   UNL     1      40.351 -12.509   1.759  1.00  0.00     0.071 C 
HETATM    2  C   UNL     1      41.029 -13.385   2.841  1.00  0.00     0.150 C 
HETATM    3  N   UNL     1      41.271 -12.786   4.123  1.00  0.00    -0.321 N 
HETATM    4  C   UNL     1      42.152 -12.858   5.065  1.00  0.00     0.011 C 
HETATM    5  C   UNL     1      39.940 -12.246   4.597  1.00  0.00     0.170 C 
HETATM    6  S   UNL     1      39.928 -11.946   6.297  1.00  0.00    -0.086 SA
HETATM    7  C   UNL     1      41.729 -12.225   6.374  1.00  0.00     0.135 C 
HETATM    8  N   UNL     1      38.937 -12.132   3.813  1.00  0.00    -0.223 NA
HETATM    9  C   UNL     1      39.112 -12.153   2.414  1.00  0.00     0.084 C 
ENDROOT
BRANCH   4  10
HETATM   10  C   UNL     1      43.402 -13.675   4.909  1.00  0.00     0.156 C 
BRANCH  10  11
HETATM   11  C   UNL     1      43.953 -14.310   6.175  1.00  0.00     0.223 C 
HETATM   12  N   UNL     1      43.224 -15.392   6.600  1.00  0.00    -0.359 N 
HETATM   13  H   UNL     1      42.373 -15.618   6.090  1.00  0.00     0.162 HD
HETATM   14  O   UNL     1      44.944 -13.891   6.762  1.00  0.00    -0.273 OA
BRANCH  12  15
HETATM   15  C   UNL     1      43.563 -16.371   7.638  1.00  0.00     0.150 C 
BRANCH  15  16
HETATM   16  C   UNL     1      43.100 -17.836   7.516  1.00  0.00     0.254 C 
BRANCH  16  17
HETATM   17  N   UNL     1      44.165 -18.758   6.979  1.00  0.00    -0.070 N 
HETATM   18  H   UNL     1      44.934 -18.709   7.673  1.00  0.00     0.279 HD
HETATM   19  C   UNL     1      44.747 -18.288   5.652  1.00  0.00     0.235 C 
HETATM   20  C   UNL     1      44.406 -19.393   4.671  1.00  0.00     0.029 C 
HETATM   21  C   UNL     1      44.460 -20.639   5.527  1.00  0.00     0.029 C 
HETATM   22  C   UNL     1      43.752 -20.203   6.794  1.00  0.00     0.235 C 
ENDBRANCH  16  17
ENDBRANCH  15  16
ENDBRANCH  12  15
ENDBRANCH  10  11
ENDBRANCH   4  10
BRANCH   2  23
HETATM   23  C   UNL     1      41.997 -13.246   1.806  1.00  0.00     0.037 C 
HETATM   24  C   UNL     1      41.128 -14.220   0.501  1.00  0.00    -0.009 C 
HETATM   25  C   UNL     1      41.305 -15.974   0.593  1.00  0.00    -0.003 C 
HETATM   26  C   UNL     1      42.338 -16.726   1.847  1.00  0.00    -0.001 C 
HETATM   27  C   UNL     1      43.320 -15.742   2.998  1.00  0.00    -0.003 C 
HETATM   28  C   UNL     1      43.257 -13.976   2.945  1.00  0.00    -0.009 C 
ENDBRANCH   2  23
BRANCH   1  29
HETATM   29  C   UNL     1      41.579 -12.390   0.009  1.00  0.00     0.293 C 
HETATM   30  O   UNL     1      41.310 -12.868  -1.134  1.00  0.00    -0.259 OA
BRANCH  29  31
HETATM   31  O   UNL     1      42.859 -11.733  -0.104  1.00  0.00    -0.318 OA
BRANCH  31  32
HETATM   32  C   UNL     1      42.939 -10.317  -0.382  1.00  0.00     0.174 C 
HETATM   33  C   UNL     1      43.294 -10.096  -1.839  1.00  0.00     0.034 C 
ENDBRANCH  31  32
ENDBRANCH  29  31
ENDBRANCH   1  29
BRANCH   9  34
HETATM   34  C   UNL     1      37.829 -11.572   1.881  1.00  0.00    -0.006 A 
HETATM   35  C   UNL     1      37.363 -10.335   2.354  1.00  0.00     0.014 A 
HETATM   36  C   UNL     1      36.201  -9.770   1.825  1.00  0.00     0.001 A 
HETATM   37  C   UNL     1      35.510 -10.417   0.802  1.00  0.00     0.000 A 
HETATM   38  C   UNL     1      35.984 -11.626   0.296  1.00  0.00     0.001 A 
HETATM   39  C   UNL     1      37.145 -12.196   0.823  1.00  0.00     0.014 A 
ENDBRANCH   9  34
TORSDOF 10
ENDMDL
MODEL 6
REMARK VINA RESULT:      -7.7      2.687      4.871
REMARK  10 active torsions:
REMARK  status: ('A' for Active; 'I' for Inactive)
REMARK    1  A    between atoms: C_2  and  O_3 
REMARK    2  A    between atoms: O_3  and  C_4 
REMARK    3  A    between atoms: C_4  and  C_5 
REMARK    4  A    between atoms: C_6  and  C_7 
REMARK    5  A    between atoms: C_14  and  C_15 
REMARK    6  A    between atoms: C_15  and  C_16 
REMARK       I    between atoms: C_16  and  N_17 
REMARK    7  A    between atoms: N_17  and  C_18 
REMARK    8  A    between atoms: C_18  and  C_19 
REMARK    9  A    between atoms: C_19  and  N_20 
REMARK   10  A    between atoms: C_31  and  C_32 
ROOT
HETATM    1  C   UNL     1      42.806 -15.753   3.531  1.00  0.00     0.071 C 
HETATM    2  C   UNL     1      41.679 -14.894   2.906  1.00  0.00     0.150 C 
HETATM    3  N   UNL     1      41.758 -14.617   1.500  1.00  0.00    -0.321 N 
HETATM    4  C   UNL     1      41.447 -13.659   0.691  1.00  0.00     0.011 C 
HETATM    5  C   UNL     1      41.883 -15.957   0.810  1.00  0.00     0.170 C 
HETATM    6  S   UNL     1      41.492 -15.864  -0.868  1.00  0.00    -0.086 SA
HETATM    7  C   UNL     1      41.455 -14.043  -0.774  1.00  0.00     0.135 C 
HETATM    8  N   UNL     1      42.155 -17.027   1.454  1.00  0.00    -0.223 NA
HETATM    9  C   UNL     1      42.704 -16.967   2.751  1.00  0.00     0.084 C 
ENDROOT
BRANCH   4  10
HETATM   10  C   UNL     1      40.934 -12.341   1.197  1.00  0.00     0.156 C 
BRANCH  10  11
HETATM   11  C   UNL     1      40.258 -11.445   0.173  1.00  0.00     0.223 C 
HETATM   12  N   UNL     1      38.956 -11.795  -0.079  1.00  0.00    -0.359 N 
HETATM   13  H   UNL     1      38.597 -12.635   0.372  1.00  0.00     0.162 HD
HETATM   14  O   UNL     1      40.823 -10.508  -0.379  1.00  0.00    -0.273 OA
BRANCH  12  15
HETATM   15  C   UNL     1      37.938 -11.052  -0.829  1.00  0.00     0.150 C 
BRANCH  15  16
HETATM   16  C   UNL     1      36.967 -11.787  -1.774  1.00  0.00     0.254 C 
BRANCH  16  17
HETATM   17  N   UNL     1      37.664 -12.662  -2.786  1.00  0.00    -0.070 N 
HETATM   18  H   UNL     1      38.561 -12.180  -2.980  1.00  0.00     0.279 HD
HETATM   19  C   UNL     1      36.920 -12.747  -4.112  1.00  0.00     0.235 C 
HETATM   20  C   UNL     1      36.564 -14.214  -4.258  1.00  0.00     0.029 C 
HETATM   21  C   UNL     1      37.726 -14.916  -3.590  1.00  0.00     0.029 C 
HETATM   22  C   UNL     1      37.946 -14.082  -2.344  1.00  0.00     0.235 C 
ENDBRANCH  16  17
ENDBRANCH  15  16
ENDBRANCH  12  15
ENDBRANCH  10  11
ENDBRANCH   4  10
BRANCH   2  23
HETATM   23  C   UNL     1      42.341 -14.036   3.830  1.00  0.00     0.037 C 
HETATM   24  C   UNL     1      41.773 -14.841   5.390  1.00  0.00    -0.009 C 
HETATM   25  C   UNL     1      40.161 -14.395   5.953  1.00  0.00    -0.003 C 
HETATM   26  C   UNL     1      39.191 -13.172   5.076  1.00  0.00    -0.001 C 
HETATM   27  C   UNL     1      39.843 -12.269   3.656  1.00  0.00    -0.003 C 
HETATM   28  C   UNL     1      41.471 -12.600   3.056  1.00  0.00    -0.009 C 
ENDBRANCH   2  23
BRANCH   1  29
HETATM   29  C   UNL     1      43.765 -14.695   5.126  1.00  0.00     0.293 C 
HETATM   30  O   UNL     1      44.359 -13.579   5.039  1.00  0.00    -0.259 OA
BRANCH  29  31
HETATM   31  O   UNL     1      43.840 -15.102   6.508  1.00  0.00    -0.318 OA
BRANCH  31  32
HETATM   32  C   UNL     1      44.474 -16.348   6.876  1.00  0.00     0.174 C 
HETATM   33  C   UNL     1      43.523 -17.183   7.710  1.00  0.00     0.034 C 
ENDBRANCH  31  32
ENDBRANCH  29  31
ENDBRANCH   1  29
BRANCH   9  34
HETATM   34  C   UNL     1      43.266 -18.348   2.969  1.00  0.00    -0.006 A 
HETATM   35  C   UNL     1      43.215 -19.302   1.942  1.00  0.00     0.014 A 
HETATM   36  C   UNL     1      43.780 -20.566   2.125  1.00  0.00     0.001 A 
HETATM   37  C   UNL     1      44.425 -20.878   3.321  1.00  0.00     0.000 A 
HETATM   38  C   UNL     1      44.517 -19.926   4.333  1.00  0.00     0.001 A 
HETATM   39  C   UNL     1      43.952 -18.661   4.156  1.00  0.00     0.014 A 
ENDBRANCH   9  34
TORSDOF 10
ENDMDL
MODEL 7
REMARK VINA RESULT:      -7.3      4.072      7.670
REMARK  10 active torsions:
REMARK  status: ('A' for Active; 'I' for Inactive)
REMARK    1  A    between atoms: C_2  and  O_3 
REMARK    2  A    between atoms: O_3  and  C_4 
REMARK    3  A    between atoms: C_4  and  C_5 
REMARK    4  A    between atoms: C_6  and  C_7 
REMARK    5  A    between atoms: C_14  and  C_15 
REMARK    6  A    between atoms: C_15  and  C_16 
REMARK       I    between atoms: C_16  and  N_17 
REMARK    7  A    between atoms: N_17  and  C_18 
REMARK    8  A    between atoms: C_18  and  C_19 
REMARK    9  A    between atoms: C_19  and  N_20 
REMARK   10  A    between atoms: C_31  and  C_32 
ROOT
HETATM    1  C   UNL     1      41.035 -14.527   0.788  1.00  0.00     0.071 C 
HETATM    2  C   UNL     1      40.894 -13.065   1.280  1.00  0.00     0.150 C 
HETATM    3  N   UNL     1      40.083 -12.832   2.441  1.00  0.00    -0.321 N 
HETATM    4  C   UNL     1      39.298 -11.911   2.895  1.00  0.00     0.011 C 
HETATM    5  C   UNL     1      40.625 -13.735   3.526  1.00  0.00     0.170 C 
HETATM    6  S   UNL     1      40.115 -13.240   5.099  1.00  0.00    -0.086 SA
HETATM    7  C   UNL     1      38.951 -12.045   4.363  1.00  0.00     0.135 C 
HETATM    8  N   UNL     1      41.442 -14.684   3.272  1.00  0.00    -0.223 NA
HETATM    9  C   UNL     1      41.595 -15.169   1.957  1.00  0.00     0.084 C 
ENDROOT
BRANCH   4  10
HETATM   10  C   UNL     1      38.934 -10.713   2.066  1.00  0.00     0.156 C 
BRANCH  10  11
HETATM   11  C   UNL     1      38.145  -9.622   2.770  1.00  0.00     0.223 C 
HETATM   12  N   UNL     1      36.787  -9.749   2.616  1.00  0.00    -0.359 N 
HETATM   13  H   UNL     1      36.449 -10.492   2.008  1.00  0.00     0.162 HD
HETATM   14  O   UNL     1      38.670  -8.714   3.405  1.00  0.00    -0.273 OA
BRANCH  12  15
HETATM   15  C   UNL     1      35.718  -9.027   3.312  1.00  0.00     0.150 C 
BRANCH  15  16
HETATM   16  C   UNL     1      34.249  -9.188   2.874  1.00  0.00     0.254 C 
BRANCH  16  17
HETATM   17  N   UNL     1      33.353  -9.717   3.966  1.00  0.00    -0.070 N 
HETATM   18  H   UNL     1      33.599 -10.721   4.048  1.00  0.00     0.279 HD
HETATM   19  C   UNL     1      31.875  -9.660   3.604  1.00  0.00     0.235 C 
HETATM   20  C   UNL     1      31.262  -8.732   4.635  1.00  0.00     0.029 C 
HETATM   21  C   UNL     1      32.093  -8.999   5.872  1.00  0.00     0.029 C 
HETATM   22  C   UNL     1      33.503  -9.054   5.319  1.00  0.00     0.235 C 
ENDBRANCH  16  17
ENDBRANCH  15  16
ENDBRANCH  12  15
ENDBRANCH  10  11
ENDBRANCH   4  10
BRANCH   2  23
HETATM   23  C   UNL     1      40.288 -13.091  -0.008  1.00  0.00     0.037 C 
HETATM   24  C   UNL     1      41.814 -13.353  -1.012  1.00  0.00    -0.009 C 
HETATM   25  C   UNL     1      42.771 -11.912  -1.362  1.00  0.00    -0.003 C 
HETATM   26  C   UNL     1      42.223 -10.295  -0.824  1.00  0.00    -0.001 C 
HETATM   27  C   UNL     1      40.637 -10.045  -0.001  1.00  0.00    -0.003 C 
HETATM   28  C   UNL     1      39.578 -11.419   0.339  1.00  0.00    -0.009 C 
ENDBRANCH   2  23
BRANCH   1  29
HETATM   29  C   UNL     1      40.386 -14.703  -1.245  1.00  0.00     0.293 C 
HETATM   30  O   UNL     1      41.028 -15.242  -2.197  1.00  0.00    -0.259 OA
BRANCH  29  31
HETATM   31  O   UNL     1      39.129 -14.253  -1.791  1.00  0.00    -0.318 OA
BRANCH  31  32
HETATM   32  C   UNL     1      38.872 -14.330  -3.211  1.00  0.00     0.174 C 
HETATM   33  C   UNL     1      37.575 -15.073  -3.461  1.00  0.00     0.034 C 
ENDBRANCH  31  32
ENDBRANCH  29  31
ENDBRANCH   1  29
BRANCH   9  34
HETATM   34  C   UNL     1      42.268 -16.504   2.140  1.00  0.00    -0.006 A 
HETATM   35  C   UNL     1      43.164 -16.982   1.171  1.00  0.00     0.014 A 
HETATM   36  C   UNL     1      43.828 -18.195   1.362  1.00  0.00     0.001 A 
HETATM   37  C   UNL     1      43.627 -18.927   2.532  1.00  0.00     0.000 A 
HETATM   38  C   UNL     1      42.772 -18.443   3.519  1.00  0.00     0.001 A 
HETATM   39  C   UNL     1      42.104 -17.231   3.332  1.00  0.00     0.014 A 
ENDBRANCH   9  34
TORSDOF 10
ENDMDL
