MODEL 1
REMARK VINA RESULT:      -8.8      0.000      0.000
REMARK  6 active torsions:
REMARK  status: ('A' for Active; 'I' for Inactive)
REMARK    1  A    between atoms: C_3  and  N_4 
REMARK    2  A    between atoms: N_4  and  C_5 
REMARK    3  A    between atoms: C_12  and  C_13 
REMARK       I    between atoms: C_13  and  N_14 
REMARK    4  A    between atoms: N_14  and  C_15 
REMARK    5  A    between atoms: C_15  and  C_16 
REMARK    6  A    between atoms: C_16  and  C_17 
ROOT
HETATM    1  C   UNL     1      43.624 -14.955   6.412  1.00  0.00     0.251 C 
HETATM    2  N   UNL     1      42.319 -14.535   6.229  1.00  0.00    -0.357 N 
HETATM    3  O   UNL     1      44.587 -14.201   6.310  1.00  0.00    -0.268 OA
HETATM    4  H   UNL     1      41.608 -15.234   6.052  1.00  0.00     0.162 HD
ENDROOT
BRANCH   1   5
HETATM    5  C   UNL     1      43.840 -16.400   6.704  1.00  0.00     0.034 A 
HETATM    6  C   UNL     1      44.438 -17.274   5.782  1.00  0.00     0.047 A 
HETATM    7  C   UNL     1      44.630 -18.627   6.089  1.00  0.00     0.050 A 
HETATM    8  C   UNL     1      44.187 -19.089   7.340  1.00  0.00     0.030 A 
HETATM    9  C   UNL     1      43.576 -18.233   8.257  1.00  0.00     0.003 A 
HETATM   10  C   UNL     1      43.402 -16.891   7.939  1.00  0.00     0.017 A 
BRANCH   7  11
HETATM   11  N   UNL     1      45.223 -19.549   5.217  1.00  0.00    -0.188 N 
HETATM   12  H   UNL     1      46.211 -19.721   5.331  1.00  0.00     0.184 HD
BRANCH  11  13
HETATM   13  C   UNL     1      44.769 -20.290   4.132  1.00  0.00     0.726 A 
HETATM   14  N   UNL     1      44.249 -19.711   3.040  1.00  0.00    -0.075 NA
HETATM   15  C   UNL     1      43.833 -20.522   2.049  1.00  0.00     0.138 A 
HETATM   16  C   UNL     1      43.923 -21.890   2.098  1.00  0.00     0.040 A 
HETATM   17  C   UNL     1      44.469 -22.393   3.250  1.00  0.00     0.138 A 
HETATM   18  N   UNL     1      44.892 -21.622   4.270  1.00  0.00    -0.075 NA
ENDBRANCH  11  13
ENDBRANCH   7  11
ENDBRANCH   1   5
BRANCH   2  19
HETATM   19  C   UNL     1      42.052 -13.184   5.766  1.00  0.00     0.127 C 
BRANCH  19  20
HETATM   20  C   UNL     1      42.069 -13.053   4.243  1.00  0.00     0.060 C 
BRANCH  20  21
HETATM   21  C   UNL     1      41.275 -14.106   3.528  1.00  0.00    -0.029 A 
HETATM   22  C   UNL     1      41.789 -15.176   2.724  1.00  0.00     0.001 A 
HETATM   23  C   UNL     1      40.699 -15.935   2.288  1.00  0.00     0.043 A 
HETATM   24  C   UNL     1      43.082 -15.577   2.334  1.00  0.00     0.056 A 
HETATM   25  C   UNL     1      40.834 -17.074   1.485  1.00  0.00     0.033 A 
HETATM   26  N   UNL     1      39.567 -15.346   2.799  1.00  0.00    -0.365 N 
HETATM   27  C   UNL     1      42.128 -17.453   1.115  1.00  0.00     0.044 A 
HETATM   28  C   UNL     1      43.223 -16.713   1.536  1.00  0.00     0.117 A 
HETATM   29  F   UNL     1      44.451 -17.092   1.155  1.00  0.00    -0.206 F 
HETATM   30  H   UNL     1      38.626 -15.684   2.650  1.00  0.00     0.165 HD
HETATM   31  C   UNL     1      39.901 -14.255   3.554  1.00  0.00     0.096 A 
ENDBRANCH  20  21
ENDBRANCH  19  20
ENDBRANCH   2  19
TORSDOF 6
ENDMDL
MODEL 2
REMARK VINA RESULT:      -8.6      3.053      6.233
REMARK  6 active torsions:
REMARK  status: ('A' for Active; 'I' for Inactive)
REMARK    1  A    between atoms: C_3  and  N_4 
REMARK    2  A    between atoms: N_4  and  C_5 
REMARK    3  A    between atoms: C_12  and  C_13 
REMARK       I    between atoms: C_13  and  N_14 
REMARK    4  A    between atoms: N_14  and  C_15 
REMARK    5  A    between atoms: C_15  and  C_16 
REMARK    6  A    between atoms: C_16  and  C_17 
ROOT
HETATM    1  C   UNL     1      41.549 -13.985   4.326  1.00  0.00     0.251 C 
HETATM    2  N   UNL     1      40.357 -14.663   4.146  1.00  0.00    -0.357 N 
HETATM    3  O   UNL     1      41.881 -13.027   3.635  1.00  0.00    -0.268 OA
HETATM    4  H   UNL     1      40.264 -15.590   4.543  1.00  0.00     0.162 HD
ENDROOT
BRANCH   1   5
HETATM    5  C   UNL     1      42.468 -14.491   5.384  1.00  0.00     0.034 A 
HETATM    6  C   UNL     1      43.391 -13.662   6.040  1.00  0.00     0.047 A 
HETATM    7  C   UNL     1      44.239 -14.168   7.033  1.00  0.00     0.050 A 
HETATM    8  C   UNL     1      44.152 -15.537   7.339  1.00  0.00     0.030 A 
HETATM    9  C   UNL     1      43.250 -16.374   6.682  1.00  0.00     0.003 A 
HETATM   10  C   UNL     1      42.409 -15.852   5.705  1.00  0.00     0.017 A 
BRANCH   7  11
HETATM   11  N   UNL     1      45.178 -13.395   7.727  1.00  0.00    -0.188 N 
HETATM   12  H   UNL     1      46.138 -13.451   7.421  1.00  0.00     0.184 HD
BRANCH  11  13
HETATM   13  C   UNL     1      45.118 -12.560   8.838  1.00  0.00     0.726 A 
HETATM   14  N   UNL     1      45.687 -11.346   8.849  1.00  0.00    -0.075 NA
HETATM   15  C   UNL     1      45.577 -10.621   9.978  1.00  0.00     0.138 A 
HETATM   16  C   UNL     1      44.912 -11.055  11.097  1.00  0.00     0.040 A 
HETATM   17  C   UNL     1      44.360 -12.305  10.994  1.00  0.00     0.138 A 
HETATM   18  N   UNL     1      44.451 -13.069   9.889  1.00  0.00    -0.075 NA
ENDBRANCH  11  13
ENDBRANCH   7  11
ENDBRANCH   1   5
BRANCH   2  19
HETATM   19  C   UNL     1      39.502 -14.336   3.018  1.00  0.00     0.127 C 
BRANCH  19  20
HETATM   20  C   UNL     1      39.326 -15.495   2.037  1.00  0.00     0.060 C 
BRANCH  20  21
HETATM   21  C   UNL     1      40.582 -15.886   1.318  1.00  0.00    -0.029 A 
HETATM   22  C   UNL     1      41.582 -16.809   1.768  1.00  0.00     0.001 A 
HETATM   23  C   UNL     1      42.554 -16.899   0.768  1.00  0.00     0.043 A 
HETATM   24  C   UNL     1      41.747 -17.586   2.932  1.00  0.00     0.056 A 
HETATM   25  C   UNL     1      43.679 -17.727   0.868  1.00  0.00     0.033 A 
HETATM   26  N   UNL     1      42.165 -16.059  -0.249  1.00  0.00    -0.365 N 
HETATM   27  C   UNL     1      43.818 -18.489   2.031  1.00  0.00     0.044 A 
HETATM   28  C   UNL     1      42.865 -18.414   3.037  1.00  0.00     0.117 A 
HETATM   29  F   UNL     1      43.030 -19.148   4.147  1.00  0.00    -0.206 F 
HETATM   30  H   UNL     1      42.677 -15.923  -1.110  1.00  0.00     0.165 HD
HETATM   31  C   UNL     1      40.978 -15.455   0.065  1.00  0.00     0.096 A 
ENDBRANCH  20  21
ENDBRANCH  19  20
ENDBRANCH   2  19
TORSDOF 6
ENDMDL
MODEL 3
REMARK VINA RESULT:      -8.2      4.507      8.437
REMARK  6 active torsions:
REMARK  status: ('A' for Active; 'I' for Inactive)
REMARK    1  A    between atoms: C_3  and  N_4 
REMARK    2  A    between atoms: N_4  and  C_5 
REMARK    3  A    between atoms: C_12  and  C_13 
REMARK       I    between atoms: C_13  and  N_14 
REMARK    4  A    between atoms: N_14  and  C_15 
REMARK    5  A    between atoms: C_15  and  C_16 
REMARK    6  A    between atoms: C_16  and  C_17 
ROOT
HETATM    1  C   UNL     1      44.890 -13.616   7.530  1.00  0.00     0.251 C 
HETATM    2  N   UNL     1      44.000 -14.674   7.563  1.00  0.00    -0.357 N 
HETATM    3  O   UNL     1      45.840 -13.569   6.755  1.00  0.00    -0.268 OA
HETATM    4  H   UNL     1      43.420 -14.791   8.384  1.00  0.00     0.162 HD
ENDROOT
BRANCH   1   5
HETATM    5  C   UNL     1      44.685 -12.522   8.520  1.00  0.00     0.034 A 
HETATM    6  C   UNL     1      43.521 -11.738   8.547  1.00  0.00     0.047 A 
HETATM    7  C   UNL     1      43.357 -10.718   9.493  1.00  0.00     0.050 A 
HETATM    8  C   UNL     1      44.404 -10.489  10.402  1.00  0.00     0.030 A 
HETATM    9  C   UNL     1      45.574 -11.250  10.373  1.00  0.00     0.003 A 
HETATM   10  C   UNL     1      45.714 -12.265   9.433  1.00  0.00     0.017 A 
BRANCH   7  11
HETATM   11  N   UNL     1      42.221  -9.905   9.576  1.00  0.00    -0.188 N 
HETATM   12  H   UNL     1      41.992  -9.348   8.766  1.00  0.00     0.184 HD
BRANCH  11  13
HETATM   13  C   UNL     1      41.305  -9.616  10.582  1.00  0.00     0.726 A 
HETATM   14  N   UNL     1      40.946  -8.358  10.880  1.00  0.00    -0.075 NA
HETATM   15  C   UNL     1      40.057  -8.189  11.877  1.00  0.00     0.138 A 
HETATM   16  C   UNL     1      39.501  -9.225  12.583  1.00  0.00     0.040 A 
HETATM   17  C   UNL     1      39.924 -10.473  12.208  1.00  0.00     0.138 A 
HETATM   18  N   UNL     1      40.816 -10.692  11.224  1.00  0.00    -0.075 NA
ENDBRANCH  11  13
ENDBRANCH   7  11
ENDBRANCH   1   5
BRANCH   2  19
HETATM   19  C   UNL     1      44.247 -15.853   6.751  1.00  0.00     0.127 C 
BRANCH  19  20
HETATM   20  C   UNL     1      42.981 -16.656   6.451  1.00  0.00     0.060 C 
BRANCH  20  21
HETATM   21  C   UNL     1      42.897 -17.165   5.042  1.00  0.00    -0.029 A 
HETATM   22  C   UNL     1      43.507 -18.351   4.516  1.00  0.00     0.001 A 
HETATM   23  C   UNL     1      43.133 -18.456   3.173  1.00  0.00     0.043 A 
HETATM   24  C   UNL     1      44.336 -19.353   5.060  1.00  0.00     0.056 A 
HETATM   25  C   UNL     1      43.542 -19.511   2.347  1.00  0.00     0.033 A 
HETATM   26  N   UNL     1      42.334 -17.374   2.891  1.00  0.00    -0.365 N 
HETATM   27  C   UNL     1      44.361 -20.493   2.912  1.00  0.00     0.044 A 
HETATM   28  C   UNL     1      44.745 -20.407   4.242  1.00  0.00     0.117 A 
HETATM   29  F   UNL     1      45.541 -21.356   4.754  1.00  0.00    -0.206 F 
HETATM   30  H   UNL     1      41.912 -17.191   1.991  1.00  0.00     0.165 HD
HETATM   31  C   UNL     1      42.176 -16.599   4.008  1.00  0.00     0.096 A 
ENDBRANCH  20  21
ENDBRANCH  19  20
ENDBRANCH   2  19
TORSDOF 6
ENDMDL
MODEL 4
REMARK VINA RESULT:      -8.2      4.495      8.763
REMARK  6 active torsions:
REMARK  status: ('A' for Active; 'I' for Inactive)
REMARK    1  A    between atoms: C_3  and  N_4 
REMARK    2  A    between atoms: N_4  and  C_5 
REMARK    3  A    between atoms: C_12  and  C_13 
REMARK       I    between atoms: C_13  and  N_14 
REMARK    4  A    between atoms: N_14  and  C_15 
REMARK    5  A    between atoms: C_15  and  C_16 
REMARK    6  A    between atoms: C_16  and  C_17 
ROOT
HETATM    1  C   UNL     1      44.888 -13.451   7.691  1.00  0.00     0.251 C 
HETATM    2  N   UNL     1      43.966 -14.477   7.602  1.00  0.00    -0.357 N 
HETATM    3  O   UNL     1      45.905 -13.408   7.005  1.00  0.00    -0.268 OA
HETATM    4  H   UNL     1      43.312 -14.606   8.364  1.00  0.00     0.162 HD
ENDROOT
BRANCH   1   5
HETATM    5  C   UNL     1      44.630 -12.388   8.703  1.00  0.00     0.034 A 
HETATM    6  C   UNL     1      43.457 -11.616   8.703  1.00  0.00     0.047 A 
HETATM    7  C   UNL     1      43.243 -10.627   9.671  1.00  0.00     0.050 A 
HETATM    8  C   UNL     1      44.249 -10.415  10.630  1.00  0.00     0.030 A 
HETATM    9  C   UNL     1      45.426 -11.164  10.629  1.00  0.00     0.003 A 
HETATM   10  C   UNL     1      45.617 -12.149   9.666  1.00  0.00     0.017 A 
BRANCH   7  11
HETATM   11  N   UNL     1      42.096  -9.827   9.729  1.00  0.00    -0.188 N 
HETATM   12  H   UNL     1      41.846  -9.318   8.894  1.00  0.00     0.184 HD
BRANCH  11  13
HETATM   13  C   UNL     1      41.192  -9.497  10.733  1.00  0.00     0.726 A 
HETATM   14  N   UNL     1      40.331 -10.393  11.239  1.00  0.00    -0.075 NA
HETATM   15  C   UNL     1      39.492  -9.967  12.203  1.00  0.00     0.138 A 
HETATM   16  C   UNL     1      39.484  -8.686  12.692  1.00  0.00     0.040 A 
HETATM   17  C   UNL     1      40.398  -7.842  12.118  1.00  0.00     0.138 A 
HETATM   18  N   UNL     1      41.251  -8.219  11.146  1.00  0.00    -0.075 NA
ENDBRANCH  11  13
ENDBRANCH   7  11
ENDBRANCH   1   5
BRANCH   2  19
HETATM   19  C   UNL     1      44.247 -15.633   6.767  1.00  0.00     0.127 C 
BRANCH  19  20
HETATM   20  C   UNL     1      43.157 -16.703   6.829  1.00  0.00     0.060 C 
BRANCH  20  21
HETATM   21  C   UNL     1      43.560 -18.024   6.243  1.00  0.00    -0.029 A 
HETATM   22  C   UNL     1      43.752 -18.329   4.856  1.00  0.00     0.001 A 
HETATM   23  C   UNL     1      44.160 -19.663   4.771  1.00  0.00     0.043 A 
HETATM   24  C   UNL     1      43.626 -17.592   3.662  1.00  0.00     0.056 A 
HETATM   25  C   UNL     1      44.452 -20.297   3.557  1.00  0.00     0.033 A 
HETATM   26  N   UNL     1      44.209 -20.153   6.055  1.00  0.00    -0.365 N 
HETATM   27  C   UNL     1      44.322 -19.543   2.388  1.00  0.00     0.044 A 
HETATM   28  C   UNL     1      43.917 -18.217   2.449  1.00  0.00     0.117 A 
HETATM   29  F   UNL     1      43.788 -17.522   1.311  1.00  0.00    -0.206 F 
HETATM   30  H   UNL     1      44.478 -21.095   6.301  1.00  0.00     0.165 HD
HETATM   31  C   UNL     1      43.861 -19.174   6.947  1.00  0.00     0.096 A 
ENDBRANCH  20  21
ENDBRANCH  19  20
ENDBRANCH   2  19
TORSDOF 6
ENDMDL
MODEL 5
REMARK VINA RESULT:      -8.1      4.890      7.099
REMARK  6 active torsions:
REMARK  status: ('A' for Active; 'I' for Inactive)
REMARK    1  A    between atoms: C_3  and  N_4 
REMARK    2  A    between atoms: N_4  and  C_5 
REMARK    3  A    between atoms: C_12  and  C_13 
REMARK       I    between atoms: C_13  and  N_14 
REMARK    4  A    between atoms: N_14  and  C_15 
REMARK    5  A    between atoms: C_15  and  C_16 
REMARK    6  A    between atoms: C_16  and  C_17 
ROOT
HETATM    1  C   UNL     1      44.195 -14.423   6.499  1.00  0.00     0.251 C 
HETATM    2  N   UNL     1      44.386 -14.068   7.822  1.00  0.00    -0.357 N 
HETATM    3  O   UNL     1      44.458 -13.675   5.563  1.00  0.00    -0.268 OA
HETATM    4  H   UNL     1      43.903 -14.597   8.538  1.00  0.00     0.162 HD
ENDROOT
BRANCH   1   5
HETATM    5  C   UNL     1      43.603 -15.765   6.233  1.00  0.00     0.034 A 
HETATM    6  C   UNL     1      44.389 -16.889   5.932  1.00  0.00     0.047 A 
HETATM    7  C   UNL     1      43.801 -18.137   5.690  1.00  0.00     0.050 A 
HETATM    8  C   UNL     1      42.399 -18.226   5.735  1.00  0.00     0.030 A 
HETATM    9  C   UNL     1      41.608 -17.111   6.015  1.00  0.00     0.003 A 
HETATM   10  C   UNL     1      42.209 -15.882   6.263  1.00  0.00     0.017 A 
BRANCH   7  11
HETATM   11  N   UNL     1      44.526 -19.297   5.390  1.00  0.00    -0.188 N 
HETATM   12  H   UNL     1      45.309 -19.518   5.988  1.00  0.00     0.184 HD
BRANCH  11  13
HETATM   13  C   UNL     1      44.464 -20.247   4.377  1.00  0.00     0.726 A 
HETATM   14  N   UNL     1      44.748 -21.540   4.592  1.00  0.00    -0.075 NA
HETATM   15  C   UNL     1      44.664 -22.375   3.540  1.00  0.00     0.138 A 
HETATM   16  C   UNL     1      44.297 -21.976   2.280  1.00  0.00     0.040 A 
HETATM   17  C   UNL     1      44.022 -20.639   2.154  1.00  0.00     0.138 A 
HETATM   18  N   UNL     1      44.100 -19.764   3.175  1.00  0.00    -0.075 NA
ENDBRANCH  11  13
ENDBRANCH   7  11
ENDBRANCH   1   5
BRANCH   2  19
HETATM   19  C   UNL     1      44.788 -12.712   8.156  1.00  0.00     0.127 C 
BRANCH  19  20
HETATM   20  C   UNL     1      44.445 -12.317   9.592  1.00  0.00     0.060 C 
BRANCH  20  21
HETATM   21  C   UNL     1      43.440 -11.209   9.701  1.00  0.00    -0.029 A 
HETATM   22  C   UNL     1      43.191 -10.378  10.842  1.00  0.00     0.001 A 
HETATM   23  C   UNL     1      42.202  -9.458  10.485  1.00  0.00     0.043 A 
HETATM   24  C   UNL     1      43.724 -10.316  12.145  1.00  0.00     0.056 A 
HETATM   25  C   UNL     1      41.719  -8.477  11.362  1.00  0.00     0.033 A 
HETATM   26  N   UNL     1      41.856  -9.722   9.181  1.00  0.00    -0.365 N 
HETATM   27  C   UNL     1      42.266  -8.435  12.647  1.00  0.00     0.044 A 
HETATM   28  C   UNL     1      43.249  -9.340  13.022  1.00  0.00     0.117 A 
HETATM   29  F   UNL     1      43.746  -9.284  14.265  1.00  0.00    -0.206 F 
HETATM   30  H   UNL     1      41.163  -9.208   8.655  1.00  0.00     0.165 HD
HETATM   31  C   UNL     1      42.600 -10.763   8.697  1.00  0.00     0.096 A 
ENDBRANCH  20  21
ENDBRANCH  19  20
ENDBRANCH   2  19
TORSDOF 6
ENDMDL
MODEL 6
REMARK VINA RESULT:      -8.1      2.893      6.625
REMARK  6 active torsions:
REMARK  status: ('A' for Active; 'I' for Inactive)
REMARK    1  A    between atoms: C_3  and  N_4 
REMARK    2  A    between atoms: N_4  and  C_5 
REMARK    3  A    between atoms: C_12  and  C_13 
REMARK       I    between atoms: C_13  and  N_14 
REMARK    4  A    between atoms: N_14  and  C_15 
REMARK    5  A    between atoms: C_15  and  C_16 
REMARK    6  A    between atoms: C_16  and  C_17 
ROOT
HETATM    1  C   UNL     1      41.166 -16.197   4.757  1.00  0.00     0.251 C 
HETATM    2  N   UNL     1      42.043 -15.554   5.612  1.00  0.00    -0.357 N 
HETATM    3  O   UNL     1      40.854 -17.376   4.887  1.00  0.00    -0.268 OA
HETATM    4  H   UNL     1      42.471 -14.690   5.303  1.00  0.00     0.162 HD
ENDROOT
BRANCH   1   5
HETATM    5  C   UNL     1      40.627 -15.408   3.613  1.00  0.00     0.034 A 
HETATM    6  C   UNL     1      40.784 -15.813   2.278  1.00  0.00     0.047 A 
HETATM    7  C   UNL     1      40.263 -15.051   1.225  1.00  0.00     0.050 A 
HETATM    8  C   UNL     1      39.595 -13.856   1.545  1.00  0.00     0.030 A 
HETATM    9  C   UNL     1      39.449 -13.434   2.868  1.00  0.00     0.003 A 
HETATM   10  C   UNL     1      39.965 -14.210   3.900  1.00  0.00     0.017 A 
BRANCH   7  11
HETATM   11  N   UNL     1      40.380 -15.400  -0.125  1.00  0.00    -0.188 N 
HETATM   12  H   UNL     1      40.253 -16.373  -0.362  1.00  0.00     0.184 HD
BRANCH  11  13
HETATM   13  C   UNL     1      40.703 -14.703  -1.284  1.00  0.00     0.726 A 
HETATM   14  N   UNL     1      39.969 -14.800  -2.403  1.00  0.00    -0.075 NA
HETATM   15  C   UNL     1      40.375 -14.089  -3.472  1.00  0.00     0.138 A 
HETATM   16  C   UNL     1      41.478 -13.274  -3.468  1.00  0.00     0.040 A 
HETATM   17  C   UNL     1      42.164 -13.234  -2.283  1.00  0.00     0.138 A 
HETATM   18  N   UNL     1      41.802 -13.934  -1.190  1.00  0.00    -0.075 NA
ENDBRANCH  11  13
ENDBRANCH   7  11
ENDBRANCH   1   5
BRANCH   2  19
HETATM   19  C   UNL     1      42.741 -16.311   6.636  1.00  0.00     0.127 C 
BRANCH  19  20
HETATM   20  C   UNL     1      44.151 -16.732   6.220  1.00  0.00     0.060 C 
BRANCH  20  21
HETATM   21  C   UNL     1      44.233 -18.113   5.639  1.00  0.00    -0.029 A 
HETATM   22  C   UNL     1      44.106 -18.477   4.258  1.00  0.00     0.001 A 
HETATM   23  C   UNL     1      44.288 -19.859   4.169  1.00  0.00     0.043 A 
HETATM   24  C   UNL     1      43.863 -17.756   3.072  1.00  0.00     0.056 A 
HETATM   25  C   UNL     1      44.242 -20.559   2.956  1.00  0.00     0.033 A 
HETATM   26  N   UNL     1      44.510 -20.321   5.445  1.00  0.00    -0.365 N 
HETATM   27  C   UNL     1      44.003 -19.821   1.795  1.00  0.00     0.044 A 
HETATM   28  C   UNL     1      43.819 -18.447   1.861  1.00  0.00     0.117 A 
HETATM   29  F   UNL     1      43.578 -17.766   0.732  1.00  0.00    -0.206 F 
HETATM   30  H   UNL     1      44.678 -21.288   5.685  1.00  0.00     0.165 HD
HETATM   31  C   UNL     1      44.490 -19.280   6.334  1.00  0.00     0.096 A 
ENDBRANCH  20  21
ENDBRANCH  19  20
ENDBRANCH   2  19
TORSDOF 6
ENDMDL
MODEL 7
REMARK VINA RESULT:      -8.0      4.214      8.356
REMARK  6 active torsions:
REMARK  status: ('A' for Active; 'I' for Inactive)
REMARK    1  A    between atoms: C_3  and  N_4 
REMARK    2  A    between atoms: N_4  and  C_5 
REMARK    3  A    between atoms: C_12  and  C_13 
REMARK       I    between atoms: C_13  and  N_14 
REMARK    4  A    between atoms: N_14  and  C_15 
REMARK    5  A    between atoms: C_15  and  C_16 
REMARK    6  A    between atoms: C_16  and  C_17 
ROOT
HETATM    1  C   UNL     1      40.353 -15.229   2.468  1.00  0.00     0.251 C 
HETATM    2  N   UNL     1      41.372 -16.136   2.242  1.00  0.00    -0.357 N 
HETATM    3  O   UNL     1      40.023 -14.864   3.592  1.00  0.00    -0.268 OA
HETATM    4  H   UNL     1      41.414 -16.602   1.344  1.00  0.00     0.162 HD
ENDROOT
BRANCH   1   5
HETATM    5  C   UNL     1      39.615 -14.723   1.276  1.00  0.00     0.034 A 
HETATM    6  C   UNL     1      40.215 -14.605   0.012  1.00  0.00     0.047 A 
HETATM    7  C   UNL     1      39.492 -14.128  -1.089  1.00  0.00     0.050 A 
HETATM    8  C   UNL     1      38.153 -13.752  -0.885  1.00  0.00     0.030 A 
HETATM    9  C   UNL     1      37.552 -13.849   0.370  1.00  0.00     0.003 A 
HETATM   10  C   UNL     1      38.282 -14.333   1.450  1.00  0.00     0.017 A 
BRANCH   7  11
HETATM   11  N   UNL     1      40.028 -13.990  -2.375  1.00  0.00    -0.188 N 
HETATM   12  H   UNL     1      40.032 -14.811  -2.963  1.00  0.00     0.184 HD
BRANCH  11  13
HETATM   13  C   UNL     1      40.643 -12.952  -3.065  1.00  0.00     0.726 A 
HETATM   14  N   UNL     1      39.959 -12.131  -3.877  1.00  0.00    -0.075 NA
HETATM   15  C   UNL     1      40.653 -11.162  -4.503  1.00  0.00     0.138 A 
HETATM   16  C   UNL     1      42.002 -10.970  -4.345  1.00  0.00     0.040 A 
HETATM   17  C   UNL     1      42.616 -11.852  -3.496  1.00  0.00     0.138 A 
HETATM   18  N   UNL     1      41.966 -12.842  -2.853  1.00  0.00    -0.075 NA
ENDBRANCH  11  13
ENDBRANCH   7  11
ENDBRANCH   1   5
BRANCH   2  19
HETATM   19  C   UNL     1      42.009 -16.802   3.365  1.00  0.00     0.127 C 
BRANCH  19  20
HETATM   20  C   UNL     1      43.463 -17.188   3.093  1.00  0.00     0.060 C 
BRANCH  20  21
HETATM   21  C   UNL     1      43.947 -18.361   3.894  1.00  0.00    -0.029 A 
HETATM   22  C   UNL     1      44.087 -19.715   3.443  1.00  0.00     0.001 A 
HETATM   23  C   UNL     1      44.605 -20.460   4.505  1.00  0.00     0.043 A 
HETATM   24  C   UNL     1      43.831 -20.375   2.224  1.00  0.00     0.056 A 
HETATM   25  C   UNL     1      44.883 -21.830   4.413  1.00  0.00     0.033 A 
HETATM   26  N   UNL     1      44.768 -19.597   5.563  1.00  0.00    -0.365 N 
HETATM   27  C   UNL     1      44.624 -22.460   3.193  1.00  0.00     0.044 A 
HETATM   28  C   UNL     1      44.108 -21.738   2.126  1.00  0.00     0.117 A 
HETATM   29  F   UNL     1      43.857 -22.372   0.972  1.00  0.00    -0.206 F 
HETATM   30  H   UNL     1      45.132 -19.860   6.469  1.00  0.00     0.165 HD
HETATM   31  C   UNL     1      44.386 -18.333   5.204  1.00  0.00     0.096 A 
ENDBRANCH  20  21
ENDBRANCH  19  20
ENDBRANCH   2  19
TORSDOF 6
ENDMDL
MODEL 8
REMARK VINA RESULT:      -7.9      3.050      8.158
REMARK  6 active torsions:
REMARK  status: ('A' for Active; 'I' for Inactive)
REMARK    1  A    between atoms: C_3  and  N_4 
REMARK    2  A    between atoms: N_4  and  C_5 
REMARK    3  A    between atoms: C_12  and  C_13 
REMARK       I    between atoms: C_13  and  N_14 
REMARK    4  A    between atoms: N_14  and  C_15 
REMARK    5  A    between atoms: C_15  and  C_16 
REMARK    6  A    between atoms: C_16  and  C_17 
ROOT
HETATM    1  C   UNL     1      40.301 -15.278   2.914  1.00  0.00     0.251 C 
HETATM    2  N   UNL     1      41.346 -15.971   3.497  1.00  0.00    -0.357 N 
HETATM    3  O   UNL     1      39.783 -15.621   1.855  1.00  0.00    -0.268 OA
HETATM    4  H   UNL     1      41.904 -15.502   4.199  1.00  0.00     0.162 HD
ENDROOT
BRANCH   1   5
HETATM    5  C   UNL     1      39.834 -14.042   3.602  1.00  0.00     0.034 A 
HETATM    6  C   UNL     1      39.886 -13.891   4.997  1.00  0.00     0.047 A 
HETATM    7  C   UNL     1      39.442 -12.715   5.614  1.00  0.00     0.050 A 
HETATM    8  C   UNL     1      38.922 -11.697   4.795  1.00  0.00     0.030 A 
HETATM    9  C   UNL     1      38.850 -11.843   3.409  1.00  0.00     0.003 A 
HETATM   10  C   UNL     1      39.305 -13.015   2.814  1.00  0.00     0.017 A 
BRANCH   7  11
HETATM   11  N   UNL     1      39.470 -12.499   6.997  1.00  0.00    -0.188 N 
HETATM   12  H   UNL     1      38.929 -13.128   7.573  1.00  0.00     0.184 HD
BRANCH  11  13
HETATM   13  C   UNL     1      40.051 -11.540   7.819  1.00  0.00     0.726 A 
HETATM   14  N   UNL     1      41.222 -10.959   7.520  1.00  0.00    -0.075 NA
HETATM   15  C   UNL     1      41.701 -10.048   8.388  1.00  0.00     0.138 A 
HETATM   16  C   UNL     1      41.051  -9.682   9.540  1.00  0.00     0.040 A 
HETATM   17  C   UNL     1      39.862 -10.325   9.762  1.00  0.00     0.138 A 
HETATM   18  N   UNL     1      39.347 -11.248   8.927  1.00  0.00    -0.075 NA
ENDBRANCH  11  13
ENDBRANCH   7  11
ENDBRANCH   1   5
BRANCH   2  19
HETATM   19  C   UNL     1      41.966 -17.077   2.788  1.00  0.00     0.127 C 
BRANCH  19  20
HETATM   20  C   UNL     1      43.479 -17.156   2.996  1.00  0.00     0.060 C 
BRANCH  20  21
HETATM   21  C   UNL     1      43.923 -18.320   3.831  1.00  0.00    -0.029 A 
HETATM   22  C   UNL     1      44.072 -19.681   3.404  1.00  0.00     0.001 A 
HETATM   23  C   UNL     1      44.544 -20.415   4.496  1.00  0.00     0.043 A 
HETATM   24  C   UNL     1      43.860 -20.356   2.186  1.00  0.00     0.056 A 
HETATM   25  C   UNL     1      44.817 -21.787   4.434  1.00  0.00     0.033 A 
HETATM   26  N   UNL     1      44.671 -19.538   5.548  1.00  0.00    -0.365 N 
HETATM   27  C   UNL     1      44.600 -22.433   3.214  1.00  0.00     0.044 A 
HETATM   28  C   UNL     1      44.131 -21.723   2.117  1.00  0.00     0.117 A 
HETATM   29  F   UNL     1      43.921 -22.371   0.963  1.00  0.00    -0.206 F 
HETATM   30  H   UNL     1      44.997 -19.790   6.470  1.00  0.00     0.165 HD
HETATM   31  C   UNL     1      44.311 -18.277   5.157  1.00  0.00     0.096 A 
ENDBRANCH  20  21
ENDBRANCH  19  20
ENDBRANCH   2  19
TORSDOF 6
ENDMDL
MODEL 9
REMARK VINA RESULT:      -7.8      3.085      7.883
REMARK  6 active torsions:
REMARK  status: ('A' for Active; 'I' for Inactive)
REMARK    1  A    between atoms: C_3  and  N_4 
REMARK    2  A    between atoms: N_4  and  C_5 
REMARK    3  A    between atoms: C_12  and  C_13 
REMARK       I    between atoms: C_13  and  N_14 
REMARK    4  A    between atoms: N_14  and  C_15 
REMARK    5  A    between atoms: C_15  and  C_16 
REMARK    6  A    between atoms: C_16  and  C_17 
ROOT
HETATM    1  C   UNL     1      41.006 -14.963   4.930  1.00  0.00     0.251 C 
HETATM    2  N   UNL     1      41.192 -15.316   3.607  1.00  0.00    -0.357 N 
HETATM    3  O   UNL     1      41.076 -15.771   5.851  1.00  0.00    -0.268 OA
HETATM    4  H   UNL     1      40.856 -14.687   2.888  1.00  0.00     0.162 HD
ENDROOT
BRANCH   1   5
HETATM    5  C   UNL     1      40.666 -13.540   5.216  1.00  0.00     0.034 A 
HETATM    6  C   UNL     1      41.413 -12.750   6.103  1.00  0.00     0.047 A 
HETATM    7  C   UNL     1      41.069 -11.414   6.347  1.00  0.00     0.050 A 
HETATM    8  C   UNL     1      39.938 -10.896   5.693  1.00  0.00     0.030 A 
HETATM    9  C   UNL     1      39.177 -11.678   4.822  1.00  0.00     0.003 A 
HETATM   10  C   UNL     1      39.540 -12.998   4.585  1.00  0.00     0.017 A 
BRANCH   7  11
HETATM   11  N   UNL     1      41.774 -10.572   7.214  1.00  0.00    -0.188 N 
HETATM   12  H   UNL     1      42.086  -9.686   6.844  1.00  0.00     0.184 HD
BRANCH  11  13
HETATM   13  C   UNL     1      42.225 -10.684   8.525  1.00  0.00     0.726 A 
HETATM   14  N   UNL     1      43.529 -10.775   8.824  1.00  0.00    -0.075 NA
HETATM   15  C   UNL     1      43.858 -10.889  10.125  1.00  0.00     0.138 A 
HETATM   16  C   UNL     1      42.939 -10.904  11.143  1.00  0.00     0.040 A 
HETATM   17  C   UNL     1      41.632 -10.804  10.743  1.00  0.00     0.138 A 
HETATM   18  N   UNL     1      41.254 -10.697   9.455  1.00  0.00    -0.075 NA
ENDBRANCH  11  13
ENDBRANCH   7  11
ENDBRANCH   1   5
BRANCH   2  19
HETATM   19  C   UNL     1      41.348 -16.714   3.245  1.00  0.00     0.127 C 
BRANCH  19  20
HETATM   20  C   UNL     1      42.761 -17.065   2.780  1.00  0.00     0.060 C 
BRANCH  20  21
HETATM   21  C   UNL     1      43.446 -18.098   3.625  1.00  0.00    -0.029 A 
HETATM   22  C   UNL     1      43.756 -19.448   3.256  1.00  0.00     0.001 A 
HETATM   23  C   UNL     1      44.427 -20.035   4.332  1.00  0.00     0.043 A 
HETATM   24  C   UNL     1      43.538 -20.223   2.100  1.00  0.00     0.056 A 
HETATM   25  C   UNL     1      44.894 -21.356   4.312  1.00  0.00     0.033 A 
HETATM   26  N   UNL     1      44.517 -19.084   5.320  1.00  0.00    -0.365 N 
HETATM   27  C   UNL     1      44.667 -22.103   3.153  1.00  0.00     0.044 A 
HETATM   28  C   UNL     1      44.001 -21.539   2.073  1.00  0.00     0.117 A 
HETATM   29  F   UNL     1      43.786 -22.283   0.979  1.00  0.00    -0.206 F 
HETATM   30  H   UNL     1      44.958 -19.227   6.218  1.00  0.00     0.165 HD
HETATM   31  C   UNL     1      43.941 -17.914   4.903  1.00  0.00     0.096 A 
ENDBRANCH  20  21
ENDBRANCH  19  20
ENDBRANCH   2  19
TORSDOF 6
ENDMDL
MODEL 10
REMARK VINA RESULT:      -7.8      4.287      6.469
REMARK  6 active torsions:
REMARK  status: ('A' for Active; 'I' for Inactive)
REMARK    1  A    between atoms: C_3  and  N_4 
REMARK    2  A    between atoms: N_4  and  C_5 
REMARK    3  A    between atoms: C_12  and  C_13 
REMARK       I    between atoms: C_13  and  N_14 
REMARK    4  A    between atoms: N_14  and  C_15 
REMARK    5  A    between atoms: C_15  and  C_16 
REMARK    6  A    between atoms: C_16  and  C_17 
ROOT
HETATM    1  C   UNL     1      42.207 -12.868   5.578  1.00  0.00     0.251 C 
HETATM    2  N   UNL     1      41.696 -12.202   6.676  1.00  0.00    -0.357 N 
HETATM    3  O   UNL     1      42.105 -12.441   4.432  1.00  0.00    -0.268 OA
HETATM    4  H   UNL     1      41.565 -12.719   7.537  1.00  0.00     0.162 HD
ENDROOT
BRANCH   1   5
HETATM    5  C   UNL     1      42.870 -14.181   5.824  1.00  0.00     0.034 A 
HETATM    6  C   UNL     1      42.409 -15.376   5.250  1.00  0.00     0.047 A 
HETATM    7  C   UNL     1      43.057 -16.593   5.499  1.00  0.00     0.050 A 
HETATM    8  C   UNL     1      44.169 -16.584   6.358  1.00  0.00     0.030 A 
HETATM    9  C   UNL     1      44.625 -15.404   6.947  1.00  0.00     0.003 A 
HETATM   10  C   UNL     1      43.976 -14.204   6.681  1.00  0.00     0.017 A 
BRANCH   7  11
HETATM   11  N   UNL     1      42.652 -17.819   4.956  1.00  0.00    -0.188 N 
HETATM   12  H   UNL     1      41.726 -18.143   5.190  1.00  0.00     0.184 HD
BRANCH  11  13
HETATM   13  C   UNL     1      43.271 -18.784   4.169  1.00  0.00     0.726 A 
HETATM   14  N   UNL     1      44.218 -19.600   4.655  1.00  0.00    -0.075 NA
HETATM   15  C   UNL     1      44.758 -20.495   3.806  1.00  0.00     0.138 A 
HETATM   16  C   UNL     1      44.384 -20.617   2.491  1.00  0.00     0.040 A 
HETATM   17  C   UNL     1      43.409 -19.744   2.084  1.00  0.00     0.138 A 
HETATM   18  N   UNL     1      42.845 -18.828   2.894  1.00  0.00    -0.075 NA
ENDBRANCH  11  13
ENDBRANCH   7  11
ENDBRANCH   1   5
BRANCH   2  19
HETATM   19  C   UNL     1      40.884 -11.012   6.487  1.00  0.00     0.127 C 
BRANCH  19  20
HETATM   20  C   UNL     1      41.121  -9.943   7.554  1.00  0.00     0.060 C 
BRANCH  20  21
HETATM   21  C   UNL     1      40.882 -10.414   8.958  1.00  0.00    -0.029 A 
HETATM   22  C   UNL     1      41.871 -10.648   9.970  1.00  0.00     0.001 A 
HETATM   23  C   UNL     1      41.199 -11.038  11.132  1.00  0.00     0.043 A 
HETATM   24  C   UNL     1      43.276 -10.555  10.008  1.00  0.00     0.056 A 
HETATM   25  C   UNL     1      41.859 -11.337  12.331  1.00  0.00     0.033 A 
HETATM   26  N   UNL     1      39.856 -11.047  10.838  1.00  0.00    -0.365 N 
HETATM   27  C   UNL     1      43.252 -11.235  12.344  1.00  0.00     0.044 A 
HETATM   28  C   UNL     1      43.938 -10.850  11.200  1.00  0.00     0.117 A 
HETATM   29  F   UNL     1      45.276 -10.773  11.238  1.00  0.00    -0.206 F 
HETATM   30  H   UNL     1      39.126 -11.288  11.495  1.00  0.00     0.165 HD
HETATM   31  C   UNL     1      39.654 -10.664   9.540  1.00  0.00     0.096 A 
ENDBRANCH  20  21
ENDBRANCH  19  20
ENDBRANCH   2  19
TORSDOF 6
ENDMDL
