MODEL 1
REMARK VINA RESULT:      -8.7      0.000      0.000
REMARK  3 active torsions:
REMARK  status: ('A' for Active; 'I' for Inactive)
REMARK    1  A    between atoms: C_6  and  N_7 
REMARK    2  A    between atoms: N_7  and  N_8 
REMARK    3  A    between atoms: C_9  and  C_10 
ROOT
HETATM    1  N   UNL     1      40.602 -16.039   0.626  1.00  0.00    -0.108 N 
HETATM    2  H   UNL     1      39.665 -15.874   0.990  1.00  0.00     0.208 HD
ENDROOT
BRANCH   1   3
HETATM    3  C   UNL     1      40.956 -15.185  -0.385  1.00  0.00     0.724 A 
HETATM    4  N   UNL     1      41.562 -14.061  -0.149  1.00  0.00    -0.062 NA
HETATM    5  C   UNL     1      41.870 -13.235  -1.245  1.00  0.00     0.091 A 
HETATM    6  C   UNL     1      41.562 -13.581  -2.565  1.00  0.00     0.062 A 
HETATM    7  C   UNL     1      42.503 -12.011  -1.010  1.00  0.00     0.033 A 
HETATM    8  C   UNL     1      41.874 -12.736  -3.634  1.00  0.00     0.019 A 
HETATM    9  C   UNL     1      40.888 -14.869  -2.786  1.00  0.00     0.272 A 
HETATM   10  C   UNL     1      42.505 -11.518  -3.383  1.00  0.00     0.001 A 
HETATM   11  C   UNL     1      42.819 -11.157  -2.072  1.00  0.00     0.002 A 
HETATM   12  N   UNL     1      40.626 -15.585  -1.651  1.00  0.00    -0.152 N 
HETATM   13  O   UNL     1      40.582 -15.261  -3.906  1.00  0.00    -0.267 OA
HETATM   14  H   UNL     1      40.155 -16.474  -1.731  1.00  0.00     0.187 HD
ENDBRANCH   1   3
BRANCH   1  15
HETATM   15  N   UNL     1      41.322 -17.141   0.983  1.00  0.00    -0.172 NA
HETATM   16  C   UNL     1      42.007 -17.023   2.078  1.00  0.00     0.152 C 
BRANCH  16  17
HETATM   17  C   UNL     1      42.809 -18.152   2.608  1.00  0.00     0.003 A 
HETATM   18  C   UNL     1      43.428 -18.105   3.878  1.00  0.00     0.025 A 
HETATM   19 BR   UNL     1      43.330 -16.596   5.028  1.00  0.00    -0.050 Br
HETATM   20  C   UNL     1      44.161 -19.204   4.352  1.00  0.00     0.059 A 
HETATM   21  C   UNL     1      44.253 -20.317   3.545  1.00  0.00     0.106 A 
HETATM   22  C   UNL     1      43.655 -20.365   2.310  1.00  0.00     0.106 A 
HETATM   23  O   UNL     1      44.913 -21.466   3.846  1.00  0.00    -0.323 OA
HETATM   24  O   UNL     1      43.863 -21.550   1.678  1.00  0.00    -0.323 OA
HETATM   25  C   UNL     1      42.930 -19.305   1.812  1.00  0.00     0.054 A 
HETATM   26  C   UNL     1      44.656 -22.249   2.660  1.00  0.00     0.352 A 
ENDBRANCH  16  17
ENDBRANCH   1  15
TORSDOF 3
ENDMDL
MODEL 2
REMARK VINA RESULT:      -8.4      2.192      2.916
REMARK  3 active torsions:
REMARK  status: ('A' for Active; 'I' for Inactive)
REMARK    1  A    between atoms: C_6  and  N_7 
REMARK    2  A    between atoms: N_7  and  N_8 
REMARK    3  A    between atoms: C_9  and  C_10 
ROOT
HETATM    1  N   UNL     1      40.742 -16.128   0.892  1.00  0.00    -0.108 N 
HETATM    2  H   UNL     1      39.903 -16.685   0.744  1.00  0.00     0.208 HD
ENDROOT
BRANCH   1   3
HETATM    3  C   UNL     1      41.049 -15.309  -0.163  1.00  0.00     0.724 A 
HETATM    4  N   UNL     1      41.613 -14.152   0.012  1.00  0.00    -0.062 NA
HETATM    5  C   UNL     1      41.875 -13.367  -1.125  1.00  0.00     0.091 A 
HETATM    6  C   UNL     1      41.566 -13.786  -2.423  1.00  0.00     0.062 A 
HETATM    7  C   UNL     1      42.461 -12.110  -0.956  1.00  0.00     0.033 A 
HETATM    8  C   UNL     1      41.831 -12.980  -3.535  1.00  0.00     0.019 A 
HETATM    9  C   UNL     1      40.940 -15.109  -2.575  1.00  0.00     0.272 A 
HETATM   10  C   UNL     1      42.415 -11.728  -3.348  1.00  0.00     0.001 A 
HETATM   11  C   UNL     1      42.730 -11.294  -2.060  1.00  0.00     0.002 A 
HETATM   12  N   UNL     1      40.721 -15.780  -1.404  1.00  0.00    -0.152 N 
HETATM   13  O   UNL     1      40.638 -15.565  -3.671  1.00  0.00    -0.267 OA
HETATM   14  H   UNL     1      40.286 -16.690  -1.436  1.00  0.00     0.187 HD
ENDBRANCH   1   3
BRANCH   1  15
HETATM   15  N   UNL     1      41.571 -16.353   1.951  1.00  0.00    -0.172 NA
HETATM   16  C   UNL     1      41.250 -17.362   2.700  1.00  0.00     0.152 C 
BRANCH  16  17
HETATM   17  C   UNL     1      42.080 -17.748   3.866  1.00  0.00     0.003 A 
HETATM   18  C   UNL     1      43.143 -18.674   3.760  1.00  0.00     0.025 A 
HETATM   19 BR   UNL     1      43.606 -19.546   2.136  1.00  0.00    -0.050 Br
HETATM   20  C   UNL     1      43.920 -18.996   4.884  1.00  0.00     0.059 A 
HETATM   21  C   UNL     1      43.612 -18.383   6.079  1.00  0.00     0.106 A 
HETATM   22  C   UNL     1      42.580 -17.485   6.187  1.00  0.00     0.106 A 
HETATM   23  O   UNL     1      44.261 -18.571   7.259  1.00  0.00    -0.323 OA
HETATM   24  O   UNL     1      42.448 -16.994   7.447  1.00  0.00    -0.323 OA
HETATM   25  C   UNL     1      41.796 -17.147   5.106  1.00  0.00     0.054 A 
HETATM   26  C   UNL     1      43.521 -17.681   8.124  1.00  0.00     0.352 A 
ENDBRANCH  16  17
ENDBRANCH   1  15
TORSDOF 3
ENDMDL
MODEL 3
REMARK VINA RESULT:      -8.3      3.035      8.596
REMARK  3 active torsions:
REMARK  status: ('A' for Active; 'I' for Inactive)
REMARK    1  A    between atoms: C_6  and  N_7 
REMARK    2  A    between atoms: N_7  and  N_8 
REMARK    3  A    between atoms: C_9  and  C_10 
ROOT
HETATM    1  N   UNL     1      40.202 -16.424   1.361  1.00  0.00    -0.108 N 
HETATM    2  H   UNL     1      39.276 -16.837   1.273  1.00  0.00     0.208 HD
ENDROOT
BRANCH   1   3
HETATM    3  C   UNL     1      40.997 -17.052   2.284  1.00  0.00     0.724 A 
HETATM    4  N   UNL     1      41.963 -17.843   1.927  1.00  0.00    -0.062 NA
HETATM    5  C   UNL     1      42.717 -18.463   2.941  1.00  0.00     0.091 A 
HETATM    6  C   UNL     1      42.473 -18.254   4.301  1.00  0.00     0.062 A 
HETATM    7  C   UNL     1      43.747 -19.335   2.577  1.00  0.00     0.033 A 
HETATM    8  C   UNL     1      43.234 -18.890   5.287  1.00  0.00     0.019 A 
HETATM    9  C   UNL     1      41.377 -17.340   4.659  1.00  0.00     0.272 A 
HETATM   10  C   UNL     1      44.258 -19.757   4.908  1.00  0.00     0.001 A 
HETATM   11  C   UNL     1      44.514 -19.979   3.555  1.00  0.00     0.002 A 
HETATM   12  N   UNL     1      40.705 -16.802   3.597  1.00  0.00    -0.152 N 
HETATM   13  O   UNL     1      41.091 -17.089   5.824  1.00  0.00    -0.267 OA
HETATM   14  H   UNL     1      39.935 -16.175   3.772  1.00  0.00     0.187 HD
ENDBRANCH   1   3
BRANCH   1  15
HETATM   15  N   UNL     1      40.515 -15.238   0.765  1.00  0.00    -0.172 NA
HETATM   16  C   UNL     1      41.121 -15.336  -0.378  1.00  0.00     0.152 C 
BRANCH  16  17
HETATM   17  C   UNL     1      41.490 -14.130  -1.157  1.00  0.00     0.003 A 
HETATM   18  C   UNL     1      41.076 -13.943  -2.496  1.00  0.00     0.025 A 
HETATM   19 BR   UNL     1      40.036 -15.215  -3.451  1.00  0.00    -0.050 Br
HETATM   20  C   UNL     1      41.429 -12.777  -3.192  1.00  0.00     0.059 A 
HETATM   21  C   UNL     1      42.183 -11.832  -2.531  1.00  0.00     0.106 A 
HETATM   22  C   UNL     1      42.588 -12.010  -1.232  1.00  0.00     0.106 A 
HETATM   23  O   UNL     1      42.605 -10.648  -3.048  1.00  0.00    -0.323 OA
HETATM   24  O   UNL     1      43.317 -10.962  -0.767  1.00  0.00    -0.323 OA
HETATM   25  C   UNL     1      42.262 -13.143  -0.519  1.00  0.00     0.054 A 
HETATM   26  C   UNL     1      43.320 -10.096  -1.920  1.00  0.00     0.352 A 
ENDBRANCH  16  17
ENDBRANCH   1  15
TORSDOF 3
ENDMDL
MODEL 4
REMARK VINA RESULT:      -8.2      2.866      8.550
REMARK  3 active torsions:
REMARK  status: ('A' for Active; 'I' for Inactive)
REMARK    1  A    between atoms: C_6  and  N_7 
REMARK    2  A    between atoms: N_7  and  N_8 
REMARK    3  A    between atoms: C_9  and  C_10 
ROOT
HETATM    1  N   UNL     1      43.277 -16.335   2.914  1.00  0.00    -0.108 N 
HETATM    2  H   UNL     1      43.588 -15.592   3.537  1.00  0.00     0.208 HD
ENDROOT
BRANCH   1   3
HETATM    3  C   UNL     1      43.662 -17.586   3.317  1.00  0.00     0.724 A 
HETATM    4  N   UNL     1      43.644 -18.601   2.507  1.00  0.00    -0.062 NA
HETATM    5  C   UNL     1      44.036 -19.855   3.010  1.00  0.00     0.091 A 
HETATM    6  C   UNL     1      44.450 -20.044   4.332  1.00  0.00     0.062 A 
HETATM    7  C   UNL     1      44.004 -20.963   2.160  1.00  0.00     0.033 A 
HETATM    8  C   UNL     1      44.827 -21.304   4.807  1.00  0.00     0.019 A 
HETATM    9  C   UNL     1      44.467 -18.865   5.211  1.00  0.00     0.272 A 
HETATM   10  C   UNL     1      44.789 -22.400   3.946  1.00  0.00     0.001 A 
HETATM   11  C   UNL     1      44.377 -22.229   2.624  1.00  0.00     0.002 A 
HETATM   12  N   UNL     1      44.056 -17.701   4.622  1.00  0.00    -0.152 N 
HETATM   13  O   UNL     1      44.819 -18.930   6.383  1.00  0.00    -0.267 OA
HETATM   14  H   UNL     1      44.034 -16.856   5.172  1.00  0.00     0.187 HD
ENDBRANCH   1   3
BRANCH   1  15
HETATM   15  N   UNL     1      42.721 -16.061   1.699  1.00  0.00    -0.172 NA
HETATM   16  C   UNL     1      41.581 -15.444   1.738  1.00  0.00     0.152 C 
BRANCH  16  17
HETATM   17  C   UNL     1      40.878 -15.049   0.494  1.00  0.00     0.003 A 
HETATM   18  C   UNL     1      39.828 -14.103   0.491  1.00  0.00     0.025 A 
HETATM   19 BR   UNL     1      39.184 -13.258   2.067  1.00  0.00    -0.050 Br
HETATM   20  C   UNL     1      39.202 -13.741  -0.712  1.00  0.00     0.059 A 
HETATM   21  C   UNL     1      39.643 -14.333  -1.875  1.00  0.00     0.106 A 
HETATM   22  C   UNL     1      40.661 -15.255  -1.875  1.00  0.00     0.106 A 
HETATM   23  O   UNL     1      39.158 -14.096  -3.122  1.00  0.00    -0.323 OA
HETATM   24  O   UNL     1      40.945 -15.714  -3.122  1.00  0.00    -0.323 OA
HETATM   25  C   UNL     1      41.297 -15.635  -0.714  1.00  0.00     0.054 A 
HETATM   26  C   UNL     1      39.994 -14.971  -3.912  1.00  0.00     0.352 A 
ENDBRANCH  16  17
ENDBRANCH   1  15
TORSDOF 3
ENDMDL
MODEL 5
REMARK VINA RESULT:      -8.2      4.228      8.828
REMARK  3 active torsions:
REMARK  status: ('A' for Active; 'I' for Inactive)
REMARK    1  A    between atoms: C_6  and  N_7 
REMARK    2  A    between atoms: N_7  and  N_8 
REMARK    3  A    between atoms: C_9  and  C_10 
ROOT
HETATM    1  N   UNL     1      43.356 -16.602   2.286  1.00  0.00    -0.108 N 
HETATM    2  H   UNL     1      43.425 -16.627   1.271  1.00  0.00     0.208 HD
ENDROOT
BRANCH   1   3
HETATM    3  C   UNL     1      43.722 -17.777   2.889  1.00  0.00     0.724 A 
HETATM    4  N   UNL     1      43.757 -18.898   2.236  1.00  0.00    -0.062 NA
HETATM    5  C   UNL     1      44.124 -20.061   2.938  1.00  0.00     0.091 A 
HETATM    6  C   UNL     1      44.459 -20.051   4.295  1.00  0.00     0.062 A 
HETATM    7  C   UNL     1      44.147 -21.281   2.257  1.00  0.00     0.033 A 
HETATM    8  C   UNL     1      44.813 -21.224   4.970  1.00  0.00     0.019 A 
HETATM    9  C   UNL     1      44.419 -18.757   4.993  1.00  0.00     0.272 A 
HETATM   10  C   UNL     1      44.830 -22.433   4.276  1.00  0.00     0.001 A 
HETATM   11  C   UNL     1      44.497 -22.462   2.922  1.00  0.00     0.002 A 
HETATM   12  N   UNL     1      44.038 -17.696   4.218  1.00  0.00    -0.152 N 
HETATM   13  O   UNL     1      44.701 -18.646   6.180  1.00  0.00    -0.267 OA
HETATM   14  H   UNL     1      43.980 -16.780   4.636  1.00  0.00     0.187 HD
ENDBRANCH   1   3
BRANCH   1  15
HETATM   15  N   UNL     1      42.756 -15.564   2.936  1.00  0.00    -0.172 NA
HETATM   16  C   UNL     1      41.459 -15.590   2.941  1.00  0.00     0.152 C 
BRANCH  16  17
HETATM   17  C   UNL     1      40.673 -14.546   3.640  1.00  0.00     0.003 A 
HETATM   18  C   UNL     1      40.359 -14.635   5.016  1.00  0.00     0.025 A 
HETATM   19 BR   UNL     1      40.878 -16.101   6.109  1.00  0.00    -0.050 Br
HETATM   20  C   UNL     1      39.631 -13.614   5.646  1.00  0.00     0.059 A 
HETATM   21  C   UNL     1      39.238 -12.535   4.884  1.00  0.00     0.106 A 
HETATM   22  C   UNL     1      39.539 -12.446   3.547  1.00  0.00     0.106 A 
HETATM   23  O   UNL     1      38.536 -11.460   5.330  1.00  0.00    -0.323 OA
HETATM   24  O   UNL     1      39.064 -11.305   2.983  1.00  0.00    -0.323 OA
HETATM   25  C   UNL     1      40.250 -13.430   2.896  1.00  0.00     0.054 A 
HETATM   26  C   UNL     1      38.434 -10.678   4.119  1.00  0.00     0.352 A 
ENDBRANCH  16  17
ENDBRANCH   1  15
TORSDOF 3
ENDMDL
MODEL 6
REMARK VINA RESULT:      -8.1      1.696      2.440
REMARK  3 active torsions:
REMARK  status: ('A' for Active; 'I' for Inactive)
REMARK    1  A    between atoms: C_6  and  N_7 
REMARK    2  A    between atoms: N_7  and  N_8 
REMARK    3  A    between atoms: C_9  and  C_10 
ROOT
HETATM    1  N   UNL     1      41.049 -15.758   2.681  1.00  0.00    -0.108 N 
HETATM    2  H   UNL     1      40.367 -15.289   3.274  1.00  0.00     0.208 HD
ENDROOT
BRANCH   1   3
HETATM    3  C   UNL     1      41.252 -15.132   1.479  1.00  0.00     0.724 A 
HETATM    4  N   UNL     1      40.972 -15.712   0.351  1.00  0.00    -0.062 NA
HETATM    5  C   UNL     1      41.230 -15.004  -0.837  1.00  0.00     0.091 A 
HETATM    6  C   UNL     1      41.760 -13.710  -0.848  1.00  0.00     0.062 A 
HETATM    7  C   UNL     1      40.956 -15.619  -2.062  1.00  0.00     0.033 A 
HETATM    8  C   UNL     1      42.013 -13.033  -2.045  1.00  0.00     0.019 A 
HETATM    9  C   UNL     1      42.049 -13.087   0.453  1.00  0.00     0.272 A 
HETATM   10  C   UNL     1      41.735 -13.661  -3.258  1.00  0.00     0.001 A 
HETATM   11  C   UNL     1      41.207 -14.953  -3.266  1.00  0.00     0.002 A 
HETATM   12  N   UNL     1      41.771 -13.868   1.541  1.00  0.00    -0.152 N 
HETATM   13  O   UNL     1      42.509 -11.955   0.546  1.00  0.00    -0.267 OA
HETATM   14  H   UNL     1      41.955 -13.505   2.464  1.00  0.00     0.187 HD
ENDBRANCH   1   3
BRANCH   1  15
HETATM   15  N   UNL     1      41.533 -16.995   2.989  1.00  0.00    -0.172 NA
HETATM   16  C   UNL     1      42.793 -17.036   3.295  1.00  0.00     0.152 C 
BRANCH  16  17
HETATM   17  C   UNL     1      43.447 -18.307   3.687  1.00  0.00     0.003 A 
HETATM   18  C   UNL     1      44.044 -18.486   4.957  1.00  0.00     0.025 A 
HETATM   19 BR   UNL     1      44.103 -17.124   6.280  1.00  0.00    -0.050 Br
HETATM   20  C   UNL     1      44.635 -19.713   5.296  1.00  0.00     0.059 A 
HETATM   21  C   UNL     1      44.611 -20.724   4.361  1.00  0.00     0.106 A 
HETATM   22  C   UNL     1      44.034 -20.553   3.127  1.00  0.00     0.106 A 
HETATM   23  O   UNL     1      45.126 -21.971   4.524  1.00  0.00    -0.323 OA
HETATM   24  O   UNL     1      44.114 -21.670   2.357  1.00  0.00    -0.323 OA
HETATM   25  C   UNL     1      43.447 -19.362   2.758  1.00  0.00     0.054 A 
HETATM   26  C   UNL     1      44.802 -22.570   3.250  1.00  0.00     0.352 A 
ENDBRANCH  16  17
ENDBRANCH   1  15
TORSDOF 3
ENDMDL
MODEL 7
REMARK VINA RESULT:      -7.9      8.403     10.066
REMARK  3 active torsions:
REMARK  status: ('A' for Active; 'I' for Inactive)
REMARK    1  A    between atoms: C_6  and  N_7 
REMARK    2  A    between atoms: N_7  and  N_8 
REMARK    3  A    between atoms: C_9  and  C_10 
ROOT
HETATM    1  N   UNL     1      44.980 -12.623   8.855  1.00  0.00    -0.108 N 
HETATM    2  H   UNL     1      45.974 -12.415   8.934  1.00  0.00     0.208 HD
ENDROOT
BRANCH   1   3
HETATM    3  C   UNL     1      44.179 -11.721   9.504  1.00  0.00     0.724 A 
HETATM    4  N   UNL     1      44.436 -11.326  10.714  1.00  0.00    -0.062 NA
HETATM    5  C   UNL     1      43.549 -10.413  11.313  1.00  0.00     0.091 A 
HETATM    6  C   UNL     1      42.420  -9.913  10.657  1.00  0.00     0.062 A 
HETATM    7  C   UNL     1      43.797  -9.992  12.622  1.00  0.00     0.033 A 
HETATM    8  C   UNL     1      41.551  -9.012  11.281  1.00  0.00     0.019 A 
HETATM    9  C   UNL     1      42.174 -10.378   9.284  1.00  0.00     0.272 A 
HETATM   10  C   UNL     1      41.812  -8.603  12.588  1.00  0.00     0.001 A 
HETATM   11  C   UNL     1      42.934  -9.093  13.258  1.00  0.00     0.002 A 
HETATM   12  N   UNL     1      43.092 -11.272   8.805  1.00  0.00    -0.152 N 
HETATM   13  O   UNL     1      41.215  -9.993   8.626  1.00  0.00    -0.267 OA
HETATM   14  H   UNL     1      42.978 -11.639   7.872  1.00  0.00     0.187 HD
ENDBRANCH   1   3
BRANCH   1  15
HETATM   15  N   UNL     1      44.537 -13.802   8.331  1.00  0.00    -0.172 NA
HETATM   16  C   UNL     1      44.602 -13.893   7.039  1.00  0.00     0.152 C 
BRANCH  16  17
HETATM   17  C   UNL     1      44.188 -15.130   6.335  1.00  0.00     0.003 A 
HETATM   18  C   UNL     1      43.463 -15.099   5.121  1.00  0.00     0.025 A 
HETATM   19 BR   UNL     1      42.916 -13.486   4.278  1.00  0.00    -0.050 Br
HETATM   20  C   UNL     1      43.109 -16.293   4.475  1.00  0.00     0.059 A 
HETATM   21  C   UNL     1      43.490 -17.482   5.058  1.00  0.00     0.106 A 
HETATM   22  C   UNL     1      44.192 -17.516   6.237  1.00  0.00     0.106 A 
HETATM   23  O   UNL     1      43.239 -18.724   4.568  1.00  0.00    -0.323 OA
HETATM   24  O   UNL     1      44.471 -18.784   6.638  1.00  0.00    -0.323 OA
HETATM   25  C   UNL     1      44.555 -16.365   6.900  1.00  0.00     0.054 A 
HETATM   26  C   UNL     1      43.870 -19.548   5.573  1.00  0.00     0.352 A 
ENDBRANCH  16  17
ENDBRANCH   1  15
TORSDOF 3
ENDMDL
MODEL 8
REMARK VINA RESULT:      -7.9      3.275      8.906
REMARK  3 active torsions:
REMARK  status: ('A' for Active; 'I' for Inactive)
REMARK    1  A    between atoms: C_6  and  N_7 
REMARK    2  A    between atoms: N_7  and  N_8 
REMARK    3  A    between atoms: C_9  and  C_10 
ROOT
HETATM    1  N   UNL     1      43.177 -17.605   0.807  1.00  0.00    -0.108 N 
HETATM    2  H   UNL     1      43.618 -17.813  -0.087  1.00  0.00     0.208 HD
ENDROOT
BRANCH   1   3
HETATM    3  C   UNL     1      43.579 -18.434   1.822  1.00  0.00     0.724 A 
HETATM    4  N   UNL     1      43.751 -19.708   1.636  1.00  0.00    -0.062 NA
HETATM    5  C   UNL     1      44.146 -20.488   2.738  1.00  0.00     0.091 A 
HETATM    6  C   UNL     1      44.369 -19.948   4.008  1.00  0.00     0.062 A 
HETATM    7  C   UNL     1      44.314 -21.865   2.563  1.00  0.00     0.033 A 
HETATM    8  C   UNL     1      44.754 -20.750   5.087  1.00  0.00     0.019 A 
HETATM    9  C   UNL     1      44.176 -18.498   4.169  1.00  0.00     0.272 A 
HETATM   10  C   UNL     1      44.917 -22.121   4.896  1.00  0.00     0.001 A 
HETATM   11  C   UNL     1      44.697 -22.678   3.636  1.00  0.00     0.002 A 
HETATM   12  N   UNL     1      43.781 -17.840   3.037  1.00  0.00    -0.152 N 
HETATM   13  O   UNL     1      44.353 -17.932   5.242  1.00  0.00    -0.267 OA
HETATM   14  H   UNL     1      43.621 -16.845   3.081  1.00  0.00     0.187 HD
ENDBRANCH   1   3
BRANCH   1  15
HETATM   15  N   UNL     1      42.139 -16.726   0.905  1.00  0.00    -0.172 NA
HETATM   16  C   UNL     1      41.977 -15.945  -0.118  1.00  0.00     0.152 C 
BRANCH  16  17
HETATM   17  C   UNL     1      40.867 -14.964  -0.166  1.00  0.00     0.003 A 
HETATM   18  C   UNL     1      40.262 -14.571  -1.382  1.00  0.00     0.025 A 
HETATM   19 BR   UNL     1      40.815 -15.227  -3.078  1.00  0.00    -0.050 Br
HETATM   20  C   UNL     1      39.199 -13.656  -1.383  1.00  0.00     0.059 A 
HETATM   21  C   UNL     1      38.771 -13.159  -0.171  1.00  0.00     0.106 A 
HETATM   22  C   UNL     1      39.358 -13.536   1.012  1.00  0.00     0.106 A 
HETATM   23  O   UNL     1      37.756 -12.275   0.013  1.00  0.00    -0.323 OA
HETATM   24  O   UNL     1      38.787 -12.936   2.088  1.00  0.00    -0.323 OA
HETATM   25  C   UNL     1      40.404 -14.431   1.050  1.00  0.00     0.054 A 
HETATM   26  C   UNL     1      37.766 -12.141   1.451  1.00  0.00     0.352 A 
ENDBRANCH  16  17
ENDBRANCH   1  15
TORSDOF 3
ENDMDL
MODEL 9
REMARK VINA RESULT:      -7.9      7.775      9.534
REMARK  3 active torsions:
REMARK  status: ('A' for Active; 'I' for Inactive)
REMARK    1  A    between atoms: C_6  and  N_7 
REMARK    2  A    between atoms: N_7  and  N_8 
REMARK    3  A    between atoms: C_9  and  C_10 
ROOT
HETATM    1  N   UNL     1      45.032 -13.306   7.916  1.00  0.00    -0.108 N 
HETATM    2  H   UNL     1      45.871 -13.642   8.385  1.00  0.00     0.208 HD
ENDROOT
BRANCH   1   3
HETATM    3  C   UNL     1      44.344 -12.363   8.634  1.00  0.00     0.724 A 
HETATM    4  N   UNL     1      44.684 -12.045   9.846  1.00  0.00    -0.062 NA
HETATM    5  C   UNL     1      43.910 -11.081  10.517  1.00  0.00     0.091 A 
HETATM    6  C   UNL     1      42.808 -10.451   9.930  1.00  0.00     0.062 A 
HETATM    7  C   UNL     1      44.247 -10.741  11.830  1.00  0.00     0.033 A 
HETATM    8  C   UNL     1      42.052  -9.501  10.624  1.00  0.00     0.019 A 
HETATM    9  C   UNL     1      42.467 -10.833   8.551  1.00  0.00     0.272 A 
HETATM   10  C   UNL     1      42.401  -9.174  11.934  1.00  0.00     0.001 A 
HETATM   11  C   UNL     1      43.497  -9.793  12.536  1.00  0.00     0.002 A 
HETATM   12  N   UNL     1      43.278 -11.786   7.999  1.00  0.00    -0.152 N 
HETATM   13  O   UNL     1      41.523 -10.333   7.950  1.00  0.00    -0.267 OA
HETATM   14  H   UNL     1      43.094 -12.101   7.059  1.00  0.00     0.187 HD
ENDBRANCH   1   3
BRANCH   1  15
HETATM   15  N   UNL     1      44.554 -13.907   6.789  1.00  0.00    -0.172 NA
HETATM   16  C   UNL     1      44.044 -15.087   6.965  1.00  0.00     0.152 C 
BRANCH  16  17
HETATM   17  C   UNL     1      43.454 -15.845   5.836  1.00  0.00     0.003 A 
HETATM   18  C   UNL     1      43.816 -17.182   5.555  1.00  0.00     0.025 A 
HETATM   19 BR   UNL     1      45.110 -18.143   6.562  1.00  0.00    -0.050 Br
HETATM   20  C   UNL     1      43.217 -17.871   4.489  1.00  0.00     0.059 A 
HETATM   21  C   UNL     1      42.274 -17.206   3.736  1.00  0.00     0.106 A 
HETATM   22  C   UNL     1      41.921 -15.906   4.005  1.00  0.00     0.106 A 
HETATM   23  O   UNL     1      41.593 -17.720   2.678  1.00  0.00    -0.323 OA
HETATM   24  O   UNL     1      40.975 -15.439   3.150  1.00  0.00    -0.323 OA
HETATM   25  C   UNL     1      42.489 -15.199   5.041  1.00  0.00     0.054 A 
HETATM   26  C   UNL     1      40.764 -16.595   2.313  1.00  0.00     0.352 A 
ENDBRANCH  16  17
ENDBRANCH   1  15
TORSDOF 3
ENDMDL
MODEL 10
REMARK VINA RESULT:      -7.9      3.934      4.562
REMARK  3 active torsions:
REMARK  status: ('A' for Active; 'I' for Inactive)
REMARK    1  A    between atoms: C_6  and  N_7 
REMARK    2  A    between atoms: N_7  and  N_8 
REMARK    3  A    between atoms: C_9  and  C_10 
ROOT
HETATM    1  N   UNL     1      41.502 -15.311   5.190  1.00  0.00    -0.108 N 
HETATM    2  H   UNL     1      41.669 -14.879   6.096  1.00  0.00     0.208 HD
ENDROOT
BRANCH   1   3
HETATM    3  C   UNL     1      40.705 -14.563   4.364  1.00  0.00     0.724 A 
HETATM    4  N   UNL     1      40.027 -15.102   3.396  1.00  0.00    -0.062 NA
HETATM    5  C   UNL     1      39.249 -14.256   2.584  1.00  0.00     0.091 A 
HETATM    6  C   UNL     1      39.172 -12.875   2.784  1.00  0.00     0.062 A 
HETATM    7  C   UNL     1      38.530 -14.815   1.524  1.00  0.00     0.033 A 
HETATM    8  C   UNL     1      38.397 -12.057   1.956  1.00  0.00     0.019 A 
HETATM    9  C   UNL     1      39.946 -12.309   3.900  1.00  0.00     0.272 A 
HETATM   10  C   UNL     1      37.685 -12.630   0.903  1.00  0.00     0.001 A 
HETATM   11  C   UNL     1      37.752 -14.007   0.687  1.00  0.00     0.002 A 
HETATM   12  N   UNL     1      40.674 -13.219   4.616  1.00  0.00    -0.152 N 
HETATM   13  O   UNL     1      39.938 -11.111   4.158  1.00  0.00    -0.267 OA
HETATM   14  H   UNL     1      41.236 -12.896   5.389  1.00  0.00     0.187 HD
ENDBRANCH   1   3
BRANCH   1  15
HETATM   15  N   UNL     1      41.871 -16.599   4.934  1.00  0.00    -0.172 NA
HETATM   16  C   UNL     1      43.066 -16.747   4.452  1.00  0.00     0.152 C 
BRANCH  16  17
HETATM   17  C   UNL     1      43.615 -18.092   4.160  1.00  0.00     0.003 A 
HETATM   18  C   UNL     1      44.496 -18.755   5.046  1.00  0.00     0.025 A 
HETATM   19 BR   UNL     1      45.095 -17.993   6.680  1.00  0.00    -0.050 Br
HETATM   20  C   UNL     1      44.977 -20.038   4.742  1.00  0.00     0.059 A 
HETATM   21  C   UNL     1      44.564 -20.621   3.564  1.00  0.00     0.106 A 
HETATM   22  C   UNL     1      43.710 -19.981   2.701  1.00  0.00     0.106 A 
HETATM   23  O   UNL     1      44.923 -21.854   3.119  1.00  0.00    -0.323 OA
HETATM   24  O   UNL     1      43.425 -20.728   1.603  1.00  0.00    -0.323 OA
HETATM   25  C   UNL     1      43.220 -18.721   2.965  1.00  0.00     0.054 A 
HETATM   26  C   UNL     1      44.191 -21.920   1.875  1.00  0.00     0.352 A 
ENDBRANCH  16  17
ENDBRANCH   1  15
TORSDOF 3
ENDMDL
