MODEL 1
REMARK VINA RESULT:      -8.4      0.000      0.000
REMARK  5 active torsions:
REMARK  status: ('A' for Active; 'I' for Inactive)
REMARK    1  A    between atoms: C_4  and  N_5 
REMARK    2  A    between atoms: N_5  and  C_6 
REMARK    3  A    between atoms: C_6  and  C_7 
REMARK       I    between atoms: C_7  and  N_8 
REMARK    4  A    between atoms: N_8  and  N_9 
REMARK    5  A    between atoms: C_10  and  C_11 
ROOT
HETATM    1  C   UNL     1      45.415 -13.276   7.493  1.00  0.00     0.250 C 
HETATM    2  N   UNL     1      44.203 -13.954   7.394  1.00  0.00    -0.246 N 
HETATM    3  O   UNL     1      46.302 -13.235   6.643  1.00  0.00    -0.270 OA
HETATM    4  H   UNL     1      43.469 -13.669   8.041  1.00  0.00     0.192 HD
ENDROOT
BRANCH   2   5
HETATM    5  N   UNL     1      43.745 -14.670   6.315  1.00  0.00    -0.184 NA
HETATM    6  C   UNL     1      43.859 -15.960   6.312  1.00  0.00     0.152 C 
BRANCH   6   7
HETATM    7  C   UNL     1      43.409 -16.713   5.156  1.00  0.00     0.011 A 
HETATM    8  C   UNL     1      43.882 -17.997   4.731  1.00  0.00     0.004 A 
HETATM    9  C   UNL     1      43.173 -18.345   3.581  1.00  0.00     0.043 A 
HETATM   10  C   UNL     1      44.859 -18.895   5.213  1.00  0.00     0.014 A 
HETATM   11  C   UNL     1      43.387 -19.545   2.891  1.00  0.00     0.030 A 
HETATM   12  N   UNL     1      42.302 -17.314   3.316  1.00  0.00    -0.364 N 
HETATM   13  C   UNL     1      44.361 -20.415   3.390  1.00  0.00     0.002 A 
HETATM   14  C   UNL     1      45.089 -20.097   4.534  1.00  0.00     0.001 A 
HETATM   15  H   UNL     1      41.659 -17.293   2.536  1.00  0.00     0.165 HD
HETATM   16  C   UNL     1      42.439 -16.325   4.251  1.00  0.00     0.102 A 
ENDBRANCH   6   7
ENDBRANCH   2   5
BRANCH   1  17
HETATM   17  C   UNL     1      45.550 -12.533   8.825  1.00  0.00     0.197 C 
BRANCH  17  18
HETATM   18  N   UNL     1      44.348 -12.750   9.644  1.00  0.00    -0.284 NA
HETATM   19  H   UNL     1      43.662 -13.314   9.139  1.00  0.00     0.128 HD
BRANCH  18  20
HETATM   20  C   UNL     1      43.722 -11.600  10.164  1.00  0.00     0.009 A 
HETATM   21  C   UNL     1      43.893 -11.161  11.484  1.00  0.00     0.030 A 
HETATM   22  C   UNL     1      43.203 -10.042  11.981  1.00  0.00    -0.060 A 
HETATM   23  C   UNL     1      43.441  -9.557  13.380  1.00  0.00     0.048 C 
HETATM   24  C   UNL     1      42.319  -9.358  11.143  1.00  0.00     0.007 A 
HETATM   25  C   UNL     1      42.097  -9.810   9.845  1.00  0.00     0.002 A 
HETATM   26  C   UNL     1      42.779 -10.934   9.370  1.00  0.00     0.023 A 
ENDBRANCH  18  20
ENDBRANCH  17  18
ENDBRANCH   1  17
TORSDOF 5
ENDMDL
MODEL 2
REMARK VINA RESULT:      -8.4      6.847      9.173
REMARK  5 active torsions:
REMARK  status: ('A' for Active; 'I' for Inactive)
REMARK    1  A    between atoms: C_4  and  N_5 
REMARK    2  A    between atoms: N_5  and  C_6 
REMARK    3  A    between atoms: C_6  and  C_7 
REMARK       I    between atoms: C_7  and  N_8 
REMARK    4  A    between atoms: N_8  and  N_9 
REMARK    5  A    between atoms: C_10  and  C_11 
ROOT
HETATM    1  C   UNL     1      40.928 -15.144   0.094  1.00  0.00     0.250 C 
HETATM    2  N   UNL     1      42.201 -15.706   0.154  1.00  0.00    -0.246 N 
HETATM    3  O   UNL     1      40.094 -15.129   0.996  1.00  0.00    -0.270 OA
HETATM    4  H   UNL     1      42.867 -15.399  -0.554  1.00  0.00     0.192 HD
ENDROOT
BRANCH   2   5
HETATM    5  N   UNL     1      42.785 -16.311   1.241  1.00  0.00    -0.184 NA
HETATM    6  C   UNL     1      42.823 -17.603   1.306  1.00  0.00     0.152 C 
BRANCH   6   7
HETATM    7  C   UNL     1      43.407 -18.241   2.471  1.00  0.00     0.011 A 
HETATM    8  C   UNL     1      43.769 -19.622   2.602  1.00  0.00     0.004 A 
HETATM    9  C   UNL     1      44.297 -19.797   3.882  1.00  0.00     0.043 A 
HETATM   10  C   UNL     1      43.688 -20.746   1.752  1.00  0.00     0.014 A 
HETATM   11  C   UNL     1      44.749 -21.035   4.353  1.00  0.00     0.030 A 
HETATM   12  N   UNL     1      44.258 -18.572   4.506  1.00  0.00    -0.364 N 
HETATM   13  C   UNL     1      44.656 -22.131   3.492  1.00  0.00     0.002 A 
HETATM   14  C   UNL     1      44.133 -21.992   2.208  1.00  0.00     0.001 A 
HETATM   15  H   UNL     1      44.577 -18.399   5.449  1.00  0.00     0.165 HD
HETATM   16  C   UNL     1      43.720 -17.631   3.671  1.00  0.00     0.102 A 
ENDBRANCH   6   7
ENDBRANCH   2   5
BRANCH   1  17
HETATM   17  C   UNL     1      40.648 -14.501  -1.266  1.00  0.00     0.197 C 
BRANCH  17  18
HETATM   18  N   UNL     1      41.908 -14.320  -2.004  1.00  0.00    -0.284 NA
HETATM   19  H   UNL     1      42.695 -14.704  -1.478  1.00  0.00     0.128 HD
BRANCH  18  20
HETATM   20  C   UNL     1      42.213 -13.010  -2.421  1.00  0.00     0.009 A 
HETATM   21  C   UNL     1      42.816 -12.058  -1.587  1.00  0.00     0.030 A 
HETATM   22  C   UNL     1      43.048 -10.742  -2.023  1.00  0.00    -0.060 A 
HETATM   23  C   UNL     1      43.743  -9.754  -1.134  1.00  0.00     0.048 C 
HETATM   24  C   UNL     1      42.661 -10.372  -3.314  1.00  0.00     0.007 A 
HETATM   25  C   UNL     1      42.014 -11.289  -4.138  1.00  0.00     0.002 A 
HETATM   26  C   UNL     1      41.776 -12.589  -3.684  1.00  0.00     0.023 A 
ENDBRANCH  18  20
ENDBRANCH  17  18
ENDBRANCH   1  17
TORSDOF 5
ENDMDL
MODEL 3
REMARK VINA RESULT:      -8.3      1.268      1.765
REMARK  5 active torsions:
REMARK  status: ('A' for Active; 'I' for Inactive)
REMARK    1  A    between atoms: C_4  and  N_5 
REMARK    2  A    between atoms: N_5  and  C_6 
REMARK    3  A    between atoms: C_6  and  C_7 
REMARK       I    between atoms: C_7  and  N_8 
REMARK    4  A    between atoms: N_8  and  N_9 
REMARK    5  A    between atoms: C_10  and  C_11 
ROOT
HETATM    1  C   UNL     1      44.780 -13.336   7.772  1.00  0.00     0.250 C 
HETATM    2  N   UNL     1      43.977 -14.466   7.642  1.00  0.00    -0.246 N 
HETATM    3  O   UNL     1      45.967 -13.244   7.466  1.00  0.00    -0.270 OA
HETATM    4  H   UNL     1      42.970 -14.313   7.669  1.00  0.00     0.192 HD
ENDROOT
BRANCH   2   5
HETATM    5  N   UNL     1      44.340 -15.679   7.109  1.00  0.00    -0.184 NA
HETATM    6  C   UNL     1      43.482 -16.349   6.409  1.00  0.00     0.152 C 
BRANCH   6   7
HETATM    7  C   UNL     1      43.854 -17.647   5.877  1.00  0.00     0.011 A 
HETATM    8  C   UNL     1      43.805 -18.057   4.504  1.00  0.00     0.004 A 
HETATM    9  C   UNL     1      44.255 -19.377   4.446  1.00  0.00     0.043 A 
HETATM   10  C   UNL     1      43.410 -17.431   3.303  1.00  0.00     0.014 A 
HETATM   11  C   UNL     1      44.333 -20.100   3.249  1.00  0.00     0.030 A 
HETATM   12  N   UNL     1      44.565 -19.756   5.731  1.00  0.00    -0.364 N 
HETATM   13  C   UNL     1      43.934 -19.456   2.075  1.00  0.00     0.002 A 
HETATM   14  C   UNL     1      43.478 -18.140   2.098  1.00  0.00     0.001 A 
HETATM   15  H   UNL     1      44.916 -20.667   5.991  1.00  0.00     0.165 HD
HETATM   16  C   UNL     1      44.322 -18.727   6.600  1.00  0.00     0.102 A 
ENDBRANCH   6   7
ENDBRANCH   2   5
BRANCH   1  17
HETATM   17  C   UNL     1      44.009 -12.148   8.352  1.00  0.00     0.197 C 
BRANCH  17  18
HETATM   18  N   UNL     1      43.945 -12.259   9.818  1.00  0.00    -0.284 NA
HETATM   19  H   UNL     1      43.522 -13.147  10.095  1.00  0.00     0.128 HD
BRANCH  18  20
HETATM   20  C   UNL     1      43.317 -11.202  10.504  1.00  0.00     0.009 A 
HETATM   21  C   UNL     1      43.678 -10.803  11.799  1.00  0.00     0.030 A 
HETATM   22  C   UNL     1      42.986  -9.782  12.472  1.00  0.00    -0.060 A 
HETATM   23  C   UNL     1      43.422  -9.334  13.836  1.00  0.00     0.048 C 
HETATM   24  C   UNL     1      41.907  -9.157  11.841  1.00  0.00     0.007 A 
HETATM   25  C   UNL     1      41.502  -9.575  10.577  1.00  0.00     0.002 A 
HETATM   26  C   UNL     1      42.190 -10.602   9.926  1.00  0.00     0.023 A 
ENDBRANCH  18  20
ENDBRANCH  17  18
ENDBRANCH   1  17
TORSDOF 5
ENDMDL
MODEL 4
REMARK VINA RESULT:      -8.2      6.524      9.629
REMARK  5 active torsions:
REMARK  status: ('A' for Active; 'I' for Inactive)
REMARK    1  A    between atoms: C_4  and  N_5 
REMARK    2  A    between atoms: N_5  and  C_6 
REMARK    3  A    between atoms: C_6  and  C_7 
REMARK       I    between atoms: C_7  and  N_8 
REMARK    4  A    between atoms: N_8  and  N_9 
REMARK    5  A    between atoms: C_10  and  C_11 
ROOT
HETATM    1  C   UNL     1      39.693 -15.037   2.253  1.00  0.00     0.250 C 
HETATM    2  N   UNL     1      40.298 -16.232   1.871  1.00  0.00    -0.246 N 
HETATM    3  O   UNL     1      39.725 -14.526   3.370  1.00  0.00    -0.270 OA
HETATM    4  H   UNL     1      40.421 -16.379   0.870  1.00  0.00     0.192 HD
ENDROOT
BRANCH   2   5
HETATM    5  N   UNL     1      41.084 -17.044   2.653  1.00  0.00    -0.184 NA
HETATM    6  C   UNL     1      42.345 -17.162   2.383  1.00  0.00     0.152 C 
BRANCH   6   7
HETATM    7  C   UNL     1      43.166 -18.048   3.185  1.00  0.00     0.011 A 
HETATM    8  C   UNL     1      43.518 -19.404   2.879  1.00  0.00     0.004 A 
HETATM    9  C   UNL     1      44.322 -19.873   3.920  1.00  0.00     0.043 A 
HETATM   10  C   UNL     1      43.219 -20.282   1.816  1.00  0.00     0.014 A 
HETATM   11  C   UNL     1      44.843 -21.172   3.948  1.00  0.00     0.030 A 
HETATM   12  N   UNL     1      44.454 -18.845   4.823  1.00  0.00    -0.364 N 
HETATM   13  C   UNL     1      44.530 -22.021   2.884  1.00  0.00     0.002 A 
HETATM   14  C   UNL     1      43.729 -21.586   1.831  1.00  0.00     0.001 A 
HETATM   15  H   UNL     1      44.985 -18.900   5.681  1.00  0.00     0.165 HD
HETATM   16  C   UNL     1      43.760 -17.745   4.396  1.00  0.00     0.102 A 
ENDBRANCH   6   7
ENDBRANCH   2   5
BRANCH   1  17
HETATM   17  C   UNL     1      38.949 -14.375   1.091  1.00  0.00     0.197 C 
BRANCH  17  18
HETATM   18  N   UNL     1      39.912 -13.888   0.091  1.00  0.00    -0.284 NA
HETATM   19  H   UNL     1      39.922 -12.866   0.065  1.00  0.00     0.128 HD
BRANCH  18  20
HETATM   20  C   UNL     1      39.776 -14.393  -1.216  1.00  0.00     0.009 A 
HETATM   21  C   UNL     1      38.605 -14.257  -1.975  1.00  0.00     0.030 A 
HETATM   22  C   UNL     1      38.489 -14.830  -3.253  1.00  0.00    -0.060 A 
HETATM   23  C   UNL     1      37.248 -14.627  -4.071  1.00  0.00     0.048 C 
HETATM   24  C   UNL     1      39.561 -15.558  -3.775  1.00  0.00     0.007 A 
HETATM   25  C   UNL     1      40.711 -15.748  -3.015  1.00  0.00     0.002 A 
HETATM   26  C   UNL     1      40.806 -15.185  -1.739  1.00  0.00     0.023 A 
ENDBRANCH  18  20
ENDBRANCH  17  18
ENDBRANCH   1  17
TORSDOF 5
ENDMDL
MODEL 5
REMARK VINA RESULT:      -8.2      1.505      2.384
REMARK  5 active torsions:
REMARK  status: ('A' for Active; 'I' for Inactive)
REMARK    1  A    between atoms: C_4  and  N_5 
REMARK    2  A    between atoms: N_5  and  C_6 
REMARK    3  A    between atoms: C_6  and  C_7 
REMARK       I    between atoms: C_7  and  N_8 
REMARK    4  A    between atoms: N_8  and  N_9 
REMARK    5  A    between atoms: C_10  and  C_11 
ROOT
HETATM    1  C   UNL     1      45.210 -12.643   8.387  1.00  0.00     0.250 C 
HETATM    2  N   UNL     1      44.371 -13.708   8.072  1.00  0.00    -0.246 N 
HETATM    3  O   UNL     1      46.392 -12.526   8.073  1.00  0.00    -0.270 OA
HETATM    4  H   UNL     1      43.370 -13.537   8.153  1.00  0.00     0.192 HD
ENDROOT
BRANCH   2   5
HETATM    5  N   UNL     1      44.687 -14.810   7.314  1.00  0.00    -0.184 NA
HETATM    6  C   UNL     1      43.792 -15.725   7.116  1.00  0.00     0.152 C 
BRANCH   6   7
HETATM    7  C   UNL     1      44.138 -16.905   6.347  1.00  0.00     0.011 A 
HETATM    8  C   UNL     1      43.564 -17.314   5.098  1.00  0.00     0.004 A 
HETATM    9  C   UNL     1      44.193 -18.500   4.717  1.00  0.00     0.043 A 
HETATM   10  C   UNL     1      42.558 -16.790   4.259  1.00  0.00     0.014 A 
HETATM   11  C   UNL     1      43.871 -19.185   3.539  1.00  0.00     0.030 A 
HETATM   12  N   UNL     1      45.114 -18.802   5.693  1.00  0.00    -0.364 N 
HETATM   13  C   UNL     1      42.870 -18.645   2.727  1.00  0.00     0.002 A 
HETATM   14  C   UNL     1      42.220 -17.464   3.079  1.00  0.00     0.001 A 
HETATM   15  H   UNL     1      45.718 -19.611   5.681  1.00  0.00     0.165 HD
HETATM   16  C   UNL     1      45.085 -17.855   6.681  1.00  0.00     0.102 A 
ENDBRANCH   6   7
ENDBRANCH   2   5
BRANCH   1  17
HETATM   17  C   UNL     1      44.487 -11.564   9.197  1.00  0.00     0.197 C 
BRANCH  17  18
HETATM   18  N   UNL     1      43.561 -12.190  10.153  1.00  0.00    -0.284 NA
HETATM   19  H   UNL     1      42.814 -12.685   9.663  1.00  0.00     0.128 HD
BRANCH  18  20
HETATM   20  C   UNL     1      43.004 -11.349  11.136  1.00  0.00     0.009 A 
HETATM   21  C   UNL     1      41.629 -11.097  11.244  1.00  0.00     0.030 A 
HETATM   22  C   UNL     1      41.120 -10.203  12.202  1.00  0.00    -0.060 A 
HETATM   23  C   UNL     1      39.641  -9.988  12.336  1.00  0.00     0.048 C 
HETATM   24  C   UNL     1      42.005  -9.544  13.059  1.00  0.00     0.007 A 
HETATM   25  C   UNL     1      43.377  -9.743  12.933  1.00  0.00     0.002 A 
HETATM   26  C   UNL     1      43.869 -10.623  11.965  1.00  0.00     0.023 A 
ENDBRANCH  18  20
ENDBRANCH  17  18
ENDBRANCH   1  17
TORSDOF 5
ENDMDL
MODEL 6
REMARK VINA RESULT:      -8.2      5.797      8.337
REMARK  5 active torsions:
REMARK  status: ('A' for Active; 'I' for Inactive)
REMARK    1  A    between atoms: C_4  and  N_5 
REMARK    2  A    between atoms: N_5  and  C_6 
REMARK    3  A    between atoms: C_6  and  C_7 
REMARK       I    between atoms: C_7  and  N_8 
REMARK    4  A    between atoms: N_8  and  N_9 
REMARK    5  A    between atoms: C_10  and  C_11 
ROOT
HETATM    1  C   UNL     1      42.676 -13.704   2.780  1.00  0.00     0.250 C 
HETATM    2  N   UNL     1      42.260 -15.030   2.869  1.00  0.00    -0.246 N 
HETATM    3  O   UNL     1      43.684 -13.218   3.288  1.00  0.00    -0.270 OA
HETATM    4  H   UNL     1      41.577 -15.339   2.179  1.00  0.00     0.192 HD
ENDROOT
BRANCH   2   5
HETATM    5  N   UNL     1      42.917 -16.059   3.501  1.00  0.00    -0.184 NA
HETATM    6  C   UNL     1      43.010 -17.209   2.915  1.00  0.00     0.152 C 
BRANCH   6   7
HETATM    7  C   UNL     1      43.670 -18.306   3.599  1.00  0.00     0.011 A 
HETATM    8  C   UNL     1      43.842 -19.643   3.111  1.00  0.00     0.004 A 
HETATM    9  C   UNL     1      44.533 -20.360   4.088  1.00  0.00     0.043 A 
HETATM   10  C   UNL     1      43.462 -20.315   1.929  1.00  0.00     0.014 A 
HETATM   11  C   UNL     1      44.868 -21.712   3.942  1.00  0.00     0.030 A 
HETATM   12  N   UNL     1      44.774 -19.495   5.129  1.00  0.00    -0.364 N 
HETATM   13  C   UNL     1      44.479 -22.353   2.763  1.00  0.00     0.002 A 
HETATM   14  C   UNL     1      43.786 -21.668   1.768  1.00  0.00     0.001 A 
HETATM   15  H   UNL     1      45.261 -19.743   5.980  1.00  0.00     0.165 HD
HETATM   16  C   UNL     1      44.255 -18.260   4.850  1.00  0.00     0.102 A 
ENDBRANCH   6   7
ENDBRANCH   2   5
BRANCH   1  17
HETATM   17  C   UNL     1      41.718 -12.858   1.937  1.00  0.00     0.197 C 
BRANCH  17  18
HETATM   18  N   UNL     1      42.479 -12.044   0.978  1.00  0.00    -0.284 NA
HETATM   19  H   UNL     1      42.318 -11.048   1.140  1.00  0.00     0.128 HD
BRANCH  18  20
HETATM   20  C   UNL     1      42.292 -12.336  -0.387  1.00  0.00     0.009 A 
HETATM   21  C   UNL     1      41.761 -13.549  -0.848  1.00  0.00     0.030 A 
HETATM   22  C   UNL     1      41.648 -13.826  -2.221  1.00  0.00    -0.060 A 
HETATM   23  C   UNL     1      41.027 -15.107  -2.694  1.00  0.00     0.048 C 
HETATM   24  C   UNL     1      42.082 -12.874  -3.148  1.00  0.00     0.007 A 
HETATM   25  C   UNL     1      42.660 -11.686  -2.709  1.00  0.00     0.002 A 
HETATM   26  C   UNL     1      42.781 -11.432  -1.340  1.00  0.00     0.023 A 
ENDBRANCH  18  20
ENDBRANCH  17  18
ENDBRANCH   1  17
TORSDOF 5
ENDMDL
MODEL 7
REMARK VINA RESULT:      -8.0      6.572      8.748
REMARK  5 active torsions:
REMARK  status: ('A' for Active; 'I' for Inactive)
REMARK    1  A    between atoms: C_4  and  N_5 
REMARK    2  A    between atoms: N_5  and  C_6 
REMARK    3  A    between atoms: C_6  and  C_7 
REMARK       I    between atoms: C_7  and  N_8 
REMARK    4  A    between atoms: N_8  and  N_9 
REMARK    5  A    between atoms: C_10  and  C_11 
ROOT
HETATM    1  C   UNL     1      40.394 -15.338   2.298  1.00  0.00     0.250 C 
HETATM    2  N   UNL     1      41.152 -16.422   1.863  1.00  0.00    -0.246 N 
HETATM    3  O   UNL     1      40.098 -15.074   3.461  1.00  0.00    -0.270 OA
HETATM    4  H   UNL     1      41.544 -16.354   0.924  1.00  0.00     0.192 HD
ENDROOT
BRANCH   2   5
HETATM    5  N   UNL     1      41.752 -17.377   2.648  1.00  0.00    -0.184 NA
HETATM    6  C   UNL     1      43.038 -17.362   2.796  1.00  0.00     0.152 C 
BRANCH   6   7
HETATM    7  C   UNL     1      43.675 -18.392   3.595  1.00  0.00     0.011 A 
HETATM    8  C   UNL     1      43.904 -19.756   3.215  1.00  0.00     0.004 A 
HETATM    9  C   UNL     1      44.546 -20.386   4.281  1.00  0.00     0.043 A 
HETATM   10  C   UNL     1      43.613 -20.517   2.063  1.00  0.00     0.014 A 
HETATM   11  C   UNL     1      44.915 -21.736   4.252  1.00  0.00     0.030 A 
HETATM   12  N   UNL     1      44.703 -19.445   5.272  1.00  0.00    -0.364 N 
HETATM   13  C   UNL     1      44.615 -22.467   3.100  1.00  0.00     0.002 A 
HETATM   14  C   UNL     1      43.973 -21.870   2.018  1.00  0.00     0.001 A 
HETATM   15  H   UNL     1      45.139 -19.622   6.166  1.00  0.00     0.165 HD
HETATM   16  C   UNL     1      44.179 -18.246   4.874  1.00  0.00     0.102 A 
ENDBRANCH   6   7
ENDBRANCH   2   5
BRANCH   1  17
HETATM   17  C   UNL     1      39.944 -14.449   1.136  1.00  0.00     0.197 C 
BRANCH  17  18
HETATM   18  N   UNL     1      40.268 -15.096  -0.145  1.00  0.00    -0.284 NA
HETATM   19  H   UNL     1      40.766 -15.974   0.009  1.00  0.00     0.128 HD
BRANCH  18  20
HETATM   20  C   UNL     1      40.965 -14.315  -1.088  1.00  0.00     0.009 A 
HETATM   21  C   UNL     1      41.694 -13.168  -0.747  1.00  0.00     0.030 A 
HETATM   22  C   UNL     1      42.325 -12.382  -1.727  1.00  0.00    -0.060 A 
HETATM   23  C   UNL     1      43.146 -11.188  -1.337  1.00  0.00     0.048 C 
HETATM   24  C   UNL     1      42.215 -12.748  -3.071  1.00  0.00     0.007 A 
HETATM   25  C   UNL     1      41.452 -13.855  -3.432  1.00  0.00     0.002 A 
HETATM   26  C   UNL     1      40.817 -14.617  -2.448  1.00  0.00     0.023 A 
ENDBRANCH  18  20
ENDBRANCH  17  18
ENDBRANCH   1  17
TORSDOF 5
ENDMDL
MODEL 8
REMARK VINA RESULT:      -8.0      1.637      2.714
REMARK  5 active torsions:
REMARK  status: ('A' for Active; 'I' for Inactive)
REMARK    1  A    between atoms: C_4  and  N_5 
REMARK    2  A    between atoms: N_5  and  C_6 
REMARK    3  A    between atoms: C_6  and  C_7 
REMARK       I    between atoms: C_7  and  N_8 
REMARK    4  A    between atoms: N_8  and  N_9 
REMARK    5  A    between atoms: C_10  and  C_11 
ROOT
HETATM    1  C   UNL     1      43.490 -14.158   5.291  1.00  0.00     0.250 C 
HETATM    2  N   UNL     1      42.973 -15.435   5.490  1.00  0.00    -0.246 N 
HETATM    3  O   UNL     1      44.072 -13.753   4.288  1.00  0.00    -0.270 OA
HETATM    4  H   UNL     1      42.285 -15.536   6.236  1.00  0.00     0.192 HD
ENDROOT
BRANCH   2   5
HETATM    5  N   UNL     1      42.973 -16.474   4.590  1.00  0.00    -0.184 NA
HETATM    6  C   UNL     1      43.893 -17.381   4.665  1.00  0.00     0.152 C 
BRANCH   6   7
HETATM    7  C   UNL     1      43.914 -18.457   3.692  1.00  0.00     0.011 A 
HETATM    8  C   UNL     1      44.222 -19.835   3.942  1.00  0.00     0.004 A 
HETATM    9  C   UNL     1      44.119 -20.514   2.728  1.00  0.00     0.043 A 
HETATM   10  C   UNL     1      44.591 -20.567   5.091  1.00  0.00     0.014 A 
HETATM   11  C   UNL     1      44.361 -21.888   2.604  1.00  0.00     0.030 A 
HETATM   12  N   UNL     1      43.762 -19.588   1.776  1.00  0.00    -0.364 N 
HETATM   13  C   UNL     1      44.725 -22.589   3.757  1.00  0.00     0.002 A 
HETATM   14  C   UNL     1      44.840 -21.941   4.984  1.00  0.00     0.001 A 
HETATM   15  H   UNL     1      43.616 -19.798   0.798  1.00  0.00     0.165 HD
HETATM   16  C   UNL     1      43.642 -18.348   2.342  1.00  0.00     0.102 A 
ENDBRANCH   6   7
ENDBRANCH   2   5
BRANCH   1  17
HETATM   17  C   UNL     1      43.247 -13.247   6.497  1.00  0.00     0.197 C 
BRANCH  17  18
HETATM   18  N   UNL     1      44.252 -13.513   7.538  1.00  0.00    -0.284 NA
HETATM   19  H   UNL     1      44.065 -14.404   8.002  1.00  0.00     0.128 HD
BRANCH  18  20
HETATM   20  C   UNL     1      44.442 -12.507   8.505  1.00  0.00     0.009 A 
HETATM   21  C   UNL     1      43.399 -11.718   9.010  1.00  0.00     0.030 A 
HETATM   22  C   UNL     1      43.641 -10.683   9.929  1.00  0.00    -0.060 A 
HETATM   23  C   UNL     1      42.504  -9.887  10.499  1.00  0.00     0.048 C 
HETATM   24  C   UNL     1      44.951 -10.428  10.341  1.00  0.00     0.007 A 
HETATM   25  C   UNL     1      46.005 -11.166   9.811  1.00  0.00     0.002 A 
HETATM   26  C   UNL     1      45.751 -12.182   8.886  1.00  0.00     0.023 A 
ENDBRANCH  18  20
ENDBRANCH  17  18
ENDBRANCH   1  17
TORSDOF 5
ENDMDL
MODEL 9
REMARK VINA RESULT:      -7.8      1.591      2.016
REMARK  5 active torsions:
REMARK  status: ('A' for Active; 'I' for Inactive)
REMARK    1  A    between atoms: C_4  and  N_5 
REMARK    2  A    between atoms: N_5  and  C_6 
REMARK    3  A    between atoms: C_6  and  C_7 
REMARK       I    between atoms: C_7  and  N_8 
REMARK    4  A    between atoms: N_8  and  N_9 
REMARK    5  A    between atoms: C_10  and  C_11 
ROOT
HETATM    1  C   UNL     1      44.253 -11.999   8.932  1.00  0.00     0.250 C 
HETATM    2  N   UNL     1      44.584 -13.272   8.473  1.00  0.00    -0.246 N 
HETATM    3  O   UNL     1      43.588 -11.157   8.333  1.00  0.00    -0.270 OA
HETATM    4  H   UNL     1      44.889 -13.943   9.176  1.00  0.00     0.192 HD
ENDROOT
BRANCH   2   5
HETATM    5  N   UNL     1      44.197 -13.847   7.286  1.00  0.00    -0.184 NA
HETATM    6  C   UNL     1      44.156 -15.137   7.187  1.00  0.00     0.152 C 
BRANCH   6   7
HETATM    7  C   UNL     1      43.783 -15.744   5.923  1.00  0.00     0.011 A 
HETATM    8  C   UNL     1      44.030 -17.095   5.514  1.00  0.00     0.004 A 
HETATM    9  C   UNL     1      43.499 -17.248   4.233  1.00  0.00     0.043 A 
HETATM   10  C   UNL     1      44.667 -18.204   6.112  1.00  0.00     0.014 A 
HETATM   11  C   UNL     1      43.569 -18.453   3.522  1.00  0.00     0.030 A 
HETATM   12  N   UNL     1      42.950 -16.039   3.875  1.00  0.00    -0.364 N 
HETATM   13  C   UNL     1      44.207 -19.533   4.137  1.00  0.00     0.002 A 
HETATM   14  C   UNL     1      44.749 -19.414   5.414  1.00  0.00     0.001 A 
HETATM   15  H   UNL     1      42.493 -15.855   2.993  1.00  0.00     0.165 HD
HETATM   16  C   UNL     1      43.120 -15.126   4.880  1.00  0.00     0.102 A 
ENDBRANCH   6   7
ENDBRANCH   2   5
BRANCH   1  17
HETATM   17  C   UNL     1      44.812 -11.731  10.331  1.00  0.00     0.197 C 
BRANCH  17  18
HETATM   18  N   UNL     1      44.345 -10.423  10.816  1.00  0.00    -0.284 NA
HETATM   19  H   UNL     1      45.130  -9.854  11.136  1.00  0.00     0.128 HD
BRANCH  18  20
HETATM   20  C   UNL     1      43.338 -10.438  11.801  1.00  0.00     0.009 A 
HETATM   21  C   UNL     1      43.466  -9.796  13.041  1.00  0.00     0.030 A 
HETATM   22  C   UNL     1      42.462  -9.887  14.021  1.00  0.00    -0.060 A 
HETATM   23  C   UNL     1      42.595  -9.149  15.320  1.00  0.00     0.048 C 
HETATM   24  C   UNL     1      41.316 -10.641  13.756  1.00  0.00     0.007 A 
HETATM   25  C   UNL     1      41.195 -11.327  12.552  1.00  0.00     0.002 A 
HETATM   26  C   UNL     1      42.209 -11.240  11.593  1.00  0.00     0.023 A 
ENDBRANCH  18  20
ENDBRANCH  17  18
ENDBRANCH   1  17
TORSDOF 5
ENDMDL
MODEL 10
REMARK VINA RESULT:      -7.6      7.025     10.649
REMARK  5 active torsions:
REMARK  status: ('A' for Active; 'I' for Inactive)
REMARK    1  A    between atoms: C_4  and  N_5 
REMARK    2  A    between atoms: N_5  and  C_6 
REMARK    3  A    between atoms: C_6  and  C_7 
REMARK       I    between atoms: C_7  and  N_8 
REMARK    4  A    between atoms: N_8  and  N_9 
REMARK    5  A    between atoms: C_10  and  C_11 
ROOT
HETATM    1  C   UNL     1      41.827 -16.356   0.963  1.00  0.00     0.250 C 
HETATM    2  N   UNL     1      41.128 -16.361  -0.241  1.00  0.00    -0.246 N 
HETATM    3  O   UNL     1      42.643 -15.515   1.332  1.00  0.00    -0.270 OA
HETATM    4  H   UNL     1      40.298 -16.951  -0.283  1.00  0.00     0.192 HD
ENDROOT
BRANCH   2   5
HETATM    5  N   UNL     1      41.182 -15.406  -1.229  1.00  0.00    -0.184 NA
HETATM    6  C   UNL     1      40.350 -14.415  -1.201  1.00  0.00     0.152 C 
BRANCH   6   7
HETATM    7  C   UNL     1      40.382 -13.427  -2.264  1.00  0.00     0.011 A 
HETATM    8  C   UNL     1      41.286 -12.320  -2.380  1.00  0.00     0.004 A 
HETATM    9  C   UNL     1      40.962 -11.637  -3.553  1.00  0.00     0.043 A 
HETATM   10  C   UNL     1      42.345 -11.827  -1.588  1.00  0.00     0.014 A 
HETATM   11  C   UNL     1      41.646 -10.491  -3.976  1.00  0.00     0.030 A 
HETATM   12  N   UNL     1      39.905 -12.301  -4.129  1.00  0.00    -0.364 N 
HETATM   13  C   UNL     1      42.689 -10.024  -3.172  1.00  0.00     0.002 A 
HETATM   14  C   UNL     1      43.037 -10.680  -1.994  1.00  0.00     0.001 A 
HETATM   15  H   UNL     1      39.459 -12.028  -4.994  1.00  0.00     0.165 HD
HETATM   16  C   UNL     1      39.544 -13.375  -3.361  1.00  0.00     0.102 A 
ENDBRANCH   6   7
ENDBRANCH   2   5
BRANCH   1  17
HETATM   17  C   UNL     1      41.460 -17.554   1.843  1.00  0.00     0.197 C 
BRANCH  17  18
HETATM   18  N   UNL     1      42.299 -17.565   3.051  1.00  0.00    -0.284 NA
HETATM   19  H   UNL     1      42.826 -16.693   3.134  1.00  0.00     0.128 HD
BRANCH  18  20
HETATM   20  C   UNL     1      43.171 -18.660   3.205  1.00  0.00     0.009 A 
HETATM   21  C   UNL     1      43.237 -19.725   2.295  1.00  0.00     0.030 A 
HETATM   22  C   UNL     1      44.078 -20.829   2.517  1.00  0.00    -0.060 A 
HETATM   23  C   UNL     1      44.173 -21.931   1.504  1.00  0.00     0.048 C 
HETATM   24  C   UNL     1      44.858 -20.871   3.675  1.00  0.00     0.007 A 
HETATM   25  C   UNL     1      44.767 -19.848   4.615  1.00  0.00     0.002 A 
HETATM   26  C   UNL     1      43.915 -18.764   4.388  1.00  0.00     0.023 A 
ENDBRANCH  18  20
ENDBRANCH  17  18
ENDBRANCH   1  17
TORSDOF 5
ENDMDL
