MODEL 1
REMARK VINA RESULT:      -8.7      0.000      0.000
REMARK  6 active torsions:
REMARK  status: ('A' for Active; 'I' for Inactive)
REMARK    1  A    between atoms: C_2  and  C_3 
REMARK    2  A    between atoms: C_3  and  N_4 
REMARK    3  A    between atoms: C_5  and  S_6 
REMARK    4  A    between atoms: S_6  and  C_7 
REMARK    5  A    between atoms: C_7  and  C_8 
REMARK       I    between atoms: C_8  and  N_9 
REMARK    6  A    between atoms: N_9  and  C_10 
ROOT
HETATM    1  C   UNL     1      42.496 -13.727   2.421  1.00  0.00     0.231 C 
HETATM    2  N   UNL     1      41.539 -14.673   2.077  1.00  0.00    -0.325 N 
HETATM    3  O   UNL     1      42.776 -12.744   1.737  1.00  0.00    -0.272 OA
HETATM    4  H   UNL     1      41.092 -15.089   2.887  1.00  0.00     0.169 HD
ENDROOT
BRANCH   1   5
HETATM    5  C   UNL     1      43.218 -13.981   3.737  1.00  0.00     0.185 C 
BRANCH   5   6
HETATM    6  S   UNL     1      42.235 -14.986   4.899  1.00  0.00    -0.083 SA
BRANCH   6   7
HETATM    7  C   UNL     1      42.819 -16.573   4.504  1.00  0.00     0.170 A 
HETATM    8  N   UNL     1      43.721 -17.269   5.272  1.00  0.00    -0.324 N 
HETATM    9  C   UNL     1      44.025 -18.434   4.594  1.00  0.00     0.065 A 
HETATM   10  C   UNL     1      43.230 -18.380   3.450  1.00  0.00     0.088 A 
HETATM   11  C   UNL     1      44.889 -19.504   4.858  1.00  0.00     0.034 A 
HETATM   12  N   UNL     1      42.484 -17.233   3.422  1.00  0.00    -0.222 NA
HETATM   13  C   UNL     1      43.279 -19.424   2.515  1.00  0.00     0.057 A 
HETATM   14  C   UNL     1      44.141 -20.494   2.764  1.00  0.00     0.036 A 
HETATM   15 CL   UNL     1      44.232 -21.786   1.628  1.00  0.00    -0.084 Cl
HETATM   16  C   UNL     1      44.933 -20.536   3.913  1.00  0.00     0.026 A 
BRANCH   8  17
HETATM   17  C   UNL     1      44.289 -16.869   6.546  1.00  0.00     0.131 C 
BRANCH  17  18
HETATM   18  C   UNL     1      43.508 -17.372   7.763  1.00  0.00     0.016 C 
HETATM   19  C   UNL     1      44.123 -18.606   8.409  1.00  0.00     0.006 C 
ENDBRANCH  17  18
ENDBRANCH   8  17
ENDBRANCH   6   7
ENDBRANCH   5   6
ENDBRANCH   1   5
BRANCH   2  20
HETATM   20  C   UNL     1      40.759 -14.563   0.899  1.00  0.00     0.054 A 
HETATM   21  C   UNL     1      39.555 -13.802   0.814  1.00  0.00     0.040 A 
HETATM   22 BR   UNL     1      39.008 -12.585   2.178  1.00  0.00    -0.049 Br
HETATM   23  C   UNL     1      38.781 -13.791  -0.357  1.00  0.00     0.053 A 
HETATM   24  C   UNL     1      39.257 -14.521  -1.419  1.00  0.00     0.064 A 
HETATM   25  C   UNL     1      40.459 -15.221  -1.360  1.00  0.00     0.065 A 
HETATM   26  N   UNL     1      38.715 -14.702  -2.686  1.00  0.00    -0.306 N 
HETATM   27  N   UNL     1      40.656 -15.836  -2.591  1.00  0.00    -0.306 N 
HETATM   28  C   UNL     1      41.239 -15.250  -0.228  1.00  0.00     0.063 A 
HETATM   29  C   UNL     1      39.575 -15.526  -3.429  1.00  0.00     0.325 A 
HETATM   30  H   UNL     1      41.423 -16.425  -2.871  1.00  0.00     0.170 HD
HETATM   31  O   UNL     1      39.414 -15.899  -4.577  1.00  0.00    -0.247 OA
HETATM   32  H   UNL     1      37.850 -14.332  -3.042  1.00  0.00     0.170 HD
ENDBRANCH   2  20
TORSDOF 6
ENDMDL
MODEL 2
REMARK VINA RESULT:      -8.5      1.425      1.467
REMARK  6 active torsions:
REMARK  status: ('A' for Active; 'I' for Inactive)
REMARK    1  A    between atoms: C_2  and  C_3 
REMARK    2  A    between atoms: C_3  and  N_4 
REMARK    3  A    between atoms: C_5  and  S_6 
REMARK    4  A    between atoms: S_6  and  C_7 
REMARK    5  A    between atoms: C_7  and  C_8 
REMARK       I    between atoms: C_8  and  N_9 
REMARK    6  A    between atoms: N_9  and  C_10 
ROOT
HETATM    1  C   UNL     1      41.537 -14.088   2.060  1.00  0.00     0.231 C 
HETATM    2  N   UNL     1      42.236 -14.261   0.873  1.00  0.00    -0.325 N 
HETATM    3  O   UNL     1      40.340 -13.815   2.127  1.00  0.00    -0.272 OA
HETATM    4  H   UNL     1      43.000 -14.923   0.962  1.00  0.00     0.169 HD
ENDROOT
BRANCH   1   5
HETATM    5  C   UNL     1      42.362 -14.249   3.330  1.00  0.00     0.185 C 
BRANCH   5   6
HETATM    6  S   UNL     1      41.554 -15.322   4.565  1.00  0.00    -0.083 SA
BRANCH   6   7
HETATM    7  C   UNL     1      42.319 -16.838   4.204  1.00  0.00     0.170 A 
HETATM    8  N   UNL     1      43.304 -17.400   4.979  1.00  0.00    -0.324 N 
HETATM    9  C   UNL     1      43.739 -18.539   4.327  1.00  0.00     0.065 A 
HETATM   10  C   UNL     1      42.933 -18.612   3.192  1.00  0.00     0.088 A 
HETATM   11  C   UNL     1      44.727 -19.492   4.609  1.00  0.00     0.034 A 
HETATM   12  N   UNL     1      42.056 -17.562   3.143  1.00  0.00    -0.222 NA
HETATM   13  C   UNL     1      43.098 -19.666   2.284  1.00  0.00     0.057 A 
HETATM   14  C   UNL     1      44.084 -20.619   2.551  1.00  0.00     0.036 A 
HETATM   15 CL   UNL     1      44.318 -21.922   1.447  1.00  0.00    -0.084 Cl
HETATM   16  C   UNL     1      44.885 -20.536   3.690  1.00  0.00     0.026 A 
BRANCH   8  17
HETATM   17  C   UNL     1      43.832 -16.902   6.236  1.00  0.00     0.131 C 
BRANCH  17  18
HETATM   18  C   UNL     1      43.196 -17.537   7.475  1.00  0.00     0.016 C 
HETATM   19  C   UNL     1      44.083 -18.579   8.144  1.00  0.00     0.006 C 
ENDBRANCH  17  18
ENDBRANCH   8  17
ENDBRANCH   6   7
ENDBRANCH   5   6
ENDBRANCH   1   5
BRANCH   2  20
HETATM   20  C   UNL     1      41.606 -14.175  -0.393  1.00  0.00     0.054 A 
HETATM   21  C   UNL     1      41.428 -12.953  -1.109  1.00  0.00     0.040 A 
HETATM   22 BR   UNL     1      42.289 -11.329  -0.600  1.00  0.00    -0.049 Br
HETATM   23  C   UNL     1      40.727 -12.917  -2.324  1.00  0.00     0.053 A 
HETATM   24  C   UNL     1      40.253 -14.114  -2.801  1.00  0.00     0.064 A 
HETATM   25  C   UNL     1      40.472 -15.318  -2.136  1.00  0.00     0.065 A 
HETATM   26  N   UNL     1      39.530 -14.388  -3.956  1.00  0.00    -0.306 N 
HETATM   27  N   UNL     1      39.881 -16.332  -2.880  1.00  0.00    -0.306 N 
HETATM   28  C   UNL     1      41.156 -15.386  -0.944  1.00  0.00     0.063 A 
HETATM   29  C   UNL     1      39.285 -15.768  -4.018  1.00  0.00     0.325 A 
HETATM   30  H   UNL     1      39.849 -17.315  -2.668  1.00  0.00     0.170 HD
HETATM   31  O   UNL     1      38.674 -16.361  -4.888  1.00  0.00    -0.247 OA
HETATM   32  H   UNL     1      39.208 -13.731  -4.648  1.00  0.00     0.170 HD
ENDBRANCH   2  20
TORSDOF 6
ENDMDL
MODEL 3
REMARK VINA RESULT:      -7.9      3.595      7.338
REMARK  6 active torsions:
REMARK  status: ('A' for Active; 'I' for Inactive)
REMARK    1  A    between atoms: C_2  and  C_3 
REMARK    2  A    between atoms: C_3  and  N_4 
REMARK    3  A    between atoms: C_5  and  S_6 
REMARK    4  A    between atoms: S_6  and  C_7 
REMARK    5  A    between atoms: C_7  and  C_8 
REMARK       I    between atoms: C_8  and  N_9 
REMARK    6  A    between atoms: N_9  and  C_10 
ROOT
HETATM    1  C   UNL     1      41.587 -15.723   4.865  1.00  0.00     0.231 C 
HETATM    2  N   UNL     1      42.788 -16.018   4.233  1.00  0.00    -0.325 N 
HETATM    3  O   UNL     1      40.848 -16.564   5.376  1.00  0.00    -0.272 OA
HETATM    4  H   UNL     1      43.467 -15.268   4.316  1.00  0.00     0.169 HD
ENDROOT
BRANCH   1   5
HETATM    5  C   UNL     1      41.207 -14.249   4.888  1.00  0.00     0.185 C 
BRANCH   5   6
HETATM    6  S   UNL     1      42.373 -13.205   3.949  1.00  0.00    -0.083 SA
BRANCH   6   7
HETATM    7  C   UNL     1      41.802 -13.484   2.333  1.00  0.00     0.170 A 
HETATM    8  N   UNL     1      40.881 -12.684   1.700  1.00  0.00    -0.324 N 
HETATM    9  C   UNL     1      40.597 -13.272   0.482  1.00  0.00     0.065 A 
HETATM   10  C   UNL     1      41.423 -14.394   0.443  1.00  0.00     0.088 A 
HETATM   11  C   UNL     1      39.728 -12.943  -0.567  1.00  0.00     0.034 A 
HETATM   12  N   UNL     1      42.167 -14.498   1.587  1.00  0.00    -0.222 NA
HETATM   13  C   UNL     1      41.400 -15.241  -0.674  1.00  0.00     0.057 A 
HETATM   14  C   UNL     1      40.533 -14.927  -1.723  1.00  0.00     0.036 A 
HETATM   15 CL   UNL     1      40.475 -15.955  -3.105  1.00  0.00    -0.084 Cl
HETATM   16  C   UNL     1      39.711 -13.800  -1.673  1.00  0.00     0.026 A 
BRANCH   8  17
HETATM   17  C   UNL     1      40.279 -11.463   2.201  1.00  0.00     0.131 C 
BRANCH  17  18
HETATM   18  C   UNL     1      38.898 -11.662   2.831  1.00  0.00     0.016 C 
HETATM   19  C   UNL     1      38.857 -11.335   4.317  1.00  0.00     0.006 C 
ENDBRANCH  17  18
ENDBRANCH   8  17
ENDBRANCH   6   7
ENDBRANCH   5   6
ENDBRANCH   1   5
BRANCH   2  20
HETATM   20  C   UNL     1      43.296 -17.338   4.155  1.00  0.00     0.054 A 
HETATM   21  C   UNL     1      44.095 -17.941   5.171  1.00  0.00     0.040 A 
HETATM   22 BR   UNL     1      44.322 -17.164   6.899  1.00  0.00    -0.049 Br
HETATM   23  C   UNL     1      44.636 -19.226   5.006  1.00  0.00     0.053 A 
HETATM   24  C   UNL     1      44.331 -19.879   3.837  1.00  0.00     0.064 A 
HETATM   25  C   UNL     1      43.506 -19.319   2.866  1.00  0.00     0.065 A 
HETATM   26  N   UNL     1      44.718 -21.140   3.396  1.00  0.00    -0.306 N 
HETATM   27  N   UNL     1      43.388 -20.233   1.825  1.00  0.00    -0.306 N 
HETATM   28  C   UNL     1      42.960 -18.063   2.999  1.00  0.00     0.063 A 
HETATM   29  C   UNL     1      44.142 -21.373   2.138  1.00  0.00     0.325 A 
HETATM   30  H   UNL     1      42.872 -20.128   0.967  1.00  0.00     0.170 HD
HETATM   31  O   UNL     1      44.271 -22.370   1.452  1.00  0.00    -0.247 OA
HETATM   32  H   UNL     1      45.319 -21.796   3.866  1.00  0.00     0.170 HD
ENDBRANCH   2  20
TORSDOF 6
ENDMDL
MODEL 4
REMARK VINA RESULT:      -7.9      4.022      7.556
REMARK  6 active torsions:
REMARK  status: ('A' for Active; 'I' for Inactive)
REMARK    1  A    between atoms: C_2  and  C_3 
REMARK    2  A    between atoms: C_3  and  N_4 
REMARK    3  A    between atoms: C_5  and  S_6 
REMARK    4  A    between atoms: S_6  and  C_7 
REMARK    5  A    between atoms: C_7  and  C_8 
REMARK       I    between atoms: C_8  and  N_9 
REMARK    6  A    between atoms: N_9  and  C_10 
ROOT
HETATM    1  C   UNL     1      42.029 -15.872   5.060  1.00  0.00     0.231 C 
HETATM    2  N   UNL     1      43.257 -16.243   4.528  1.00  0.00    -0.325 N 
HETATM    3  O   UNL     1      41.154 -16.664   5.404  1.00  0.00    -0.272 OA
HETATM    4  H   UNL     1      43.997 -15.587   4.756  1.00  0.00     0.169 HD
ENDROOT
BRANCH   1   5
HETATM    5  C   UNL     1      41.805 -14.371   5.194  1.00  0.00     0.185 C 
BRANCH   5   6
HETATM    6  S   UNL     1      40.174 -13.842   4.573  1.00  0.00    -0.083 SA
BRANCH   6   7
HETATM    7  C   UNL     1      40.592 -13.397   2.948  1.00  0.00     0.170 A 
HETATM    8  N   UNL     1      40.256 -14.138   1.842  1.00  0.00    -0.324 N 
HETATM    9  C   UNL     1      40.844 -13.532   0.748  1.00  0.00     0.065 A 
HETATM   10  C   UNL     1      41.477 -12.409   1.278  1.00  0.00     0.088 A 
HETATM   11  C   UNL     1      40.883 -13.840  -0.619  1.00  0.00     0.034 A 
HETATM   12  N   UNL     1      41.297 -12.337   2.633  1.00  0.00    -0.222 NA
HETATM   13  C   UNL     1      42.185 -11.541   0.435  1.00  0.00     0.057 A 
HETATM   14  C   UNL     1      42.236 -11.842  -0.928  1.00  0.00     0.036 A 
HETATM   15 CL   UNL     1      43.108 -10.800  -1.989  1.00  0.00    -0.084 Cl
HETATM   16  C   UNL     1      41.599 -12.969  -1.448  1.00  0.00     0.026 A 
BRANCH   8  17
HETATM   17  C   UNL     1      39.460 -15.351   1.800  1.00  0.00     0.131 C 
BRANCH  17  18
HETATM   18  C   UNL     1      40.268 -16.635   2.004  1.00  0.00     0.016 C 
HETATM   19  C   UNL     1      41.033 -17.073   0.762  1.00  0.00     0.006 C 
ENDBRANCH  17  18
ENDBRANCH   8  17
ENDBRANCH   6   7
ENDBRANCH   5   6
ENDBRANCH   1   5
BRANCH   2  20
HETATM   20  C   UNL     1      43.631 -17.601   4.368  1.00  0.00     0.054 A 
HETATM   21  C   UNL     1      44.293 -18.365   5.374  1.00  0.00     0.040 A 
HETATM   22 BR   UNL     1      44.480 -17.754   7.173  1.00  0.00    -0.049 Br
HETATM   23  C   UNL     1      44.708 -19.684   5.133  1.00  0.00     0.053 A 
HETATM   24  C   UNL     1      44.418 -20.206   3.897  1.00  0.00     0.064 A 
HETATM   25  C   UNL     1      43.723 -19.485   2.930  1.00  0.00     0.065 A 
HETATM   26  N   UNL     1      44.702 -21.462   3.374  1.00  0.00    -0.306 N 
HETATM   27  N   UNL     1      43.583 -20.296   1.810  1.00  0.00    -0.306 N 
HETATM   28  C   UNL     1      43.302 -18.192   3.137  1.00  0.00     0.063 A 
HETATM   29  C   UNL     1      44.192 -21.533   2.069  1.00  0.00     0.325 A 
HETATM   30  H   UNL     1      43.140 -20.069   0.935  1.00  0.00     0.170 HD
HETATM   31  O   UNL     1      44.264 -22.481   1.308  1.00  0.00    -0.247 OA
HETATM   32  H   UNL     1      45.199 -22.215   3.821  1.00  0.00     0.170 HD
ENDBRANCH   2  20
TORSDOF 6
ENDMDL
MODEL 5
REMARK VINA RESULT:      -7.9      4.260      7.973
REMARK  6 active torsions:
REMARK  status: ('A' for Active; 'I' for Inactive)
REMARK    1  A    between atoms: C_2  and  C_3 
REMARK    2  A    between atoms: C_3  and  N_4 
REMARK    3  A    between atoms: C_5  and  S_6 
REMARK    4  A    between atoms: S_6  and  C_7 
REMARK    5  A    between atoms: C_7  and  C_8 
REMARK       I    between atoms: C_8  and  N_9 
REMARK    6  A    between atoms: N_9  and  C_10 
ROOT
HETATM    1  C   UNL     1      42.024 -15.826   5.224  1.00  0.00     0.231 C 
HETATM    2  N   UNL     1      43.213 -16.171   4.593  1.00  0.00    -0.325 N 
HETATM    3  O   UNL     1      41.194 -16.638   5.631  1.00  0.00    -0.272 OA
HETATM    4  H   UNL     1      43.955 -15.502   4.766  1.00  0.00     0.169 HD
ENDROOT
BRANCH   1   5
HETATM    5  C   UNL     1      41.783 -14.331   5.386  1.00  0.00     0.185 C 
BRANCH   5   6
HETATM    6  S   UNL     1      42.325 -13.367   3.935  1.00  0.00    -0.083 SA
BRANCH   6   7
HETATM    7  C   UNL     1      40.811 -13.179   3.107  1.00  0.00     0.170 A 
HETATM    8  N   UNL     1      40.281 -14.122   2.260  1.00  0.00    -0.324 N 
HETATM    9  C   UNL     1      39.133 -13.583   1.713  1.00  0.00     0.065 A 
HETATM   10  C   UNL     1      39.020 -12.332   2.318  1.00  0.00     0.088 A 
HETATM   11  C   UNL     1      38.200 -14.050   0.777  1.00  0.00     0.034 A 
HETATM   12  N   UNL     1      40.056 -12.110   3.184  1.00  0.00    -0.222 NA
HETATM   13  C   UNL     1      37.945 -11.493   1.995  1.00  0.00     0.057 A 
HETATM   14  C   UNL     1      37.012 -11.945   1.059  1.00  0.00     0.036 A 
HETATM   15 CL   UNL     1      35.685 -10.932   0.633  1.00  0.00    -0.084 Cl
HETATM   16  C   UNL     1      37.135 -13.200   0.459  1.00  0.00     0.026 A 
BRANCH   8  17
HETATM   17  C   UNL     1      40.818 -15.435   1.953  1.00  0.00     0.131 C 
BRANCH  17  18
HETATM   18  C   UNL     1      41.859 -15.436   0.830  1.00  0.00     0.016 C 
HETATM   19  C   UNL     1      41.268 -15.730  -0.543  1.00  0.00     0.006 C 
ENDBRANCH  17  18
ENDBRANCH   8  17
ENDBRANCH   6   7
ENDBRANCH   5   6
ENDBRANCH   1   5
BRANCH   2  20
HETATM   20  C   UNL     1      43.598 -17.520   4.394  1.00  0.00     0.054 A 
HETATM   21  C   UNL     1      44.344 -18.279   5.343  1.00  0.00     0.040 A 
HETATM   22 BR   UNL     1      44.650 -17.679   7.129  1.00  0.00    -0.049 Br
HETATM   23  C   UNL     1      44.764 -19.588   5.060  1.00  0.00     0.053 A 
HETATM   24  C   UNL     1      44.395 -20.106   3.844  1.00  0.00     0.064 A 
HETATM   25  C   UNL     1      43.620 -19.391   2.936  1.00  0.00     0.065 A 
HETATM   26  N   UNL     1      44.664 -21.353   3.290  1.00  0.00    -0.306 N 
HETATM   27  N   UNL     1      43.414 -20.196   1.821  1.00  0.00    -0.306 N 
HETATM   28  C   UNL     1      43.192 -18.107   3.184  1.00  0.00     0.063 A 
HETATM   29  C   UNL     1      44.063 -21.423   2.024  1.00  0.00     0.325 A 
HETATM   30  H   UNL     1      42.905 -19.970   0.983  1.00  0.00     0.170 HD
HETATM   31  O   UNL     1      44.096 -22.363   1.253  1.00  0.00    -0.247 OA
HETATM   32  H   UNL     1      45.205 -22.099   3.693  1.00  0.00     0.170 HD
ENDBRANCH   2  20
TORSDOF 6
ENDMDL
MODEL 6
REMARK VINA RESULT:      -7.7      2.636      3.152
REMARK  6 active torsions:
REMARK  status: ('A' for Active; 'I' for Inactive)
REMARK    1  A    between atoms: C_2  and  C_3 
REMARK    2  A    between atoms: C_3  and  N_4 
REMARK    3  A    between atoms: C_5  and  S_6 
REMARK    4  A    between atoms: S_6  and  C_7 
REMARK    5  A    between atoms: C_7  and  C_8 
REMARK       I    between atoms: C_8  and  N_9 
REMARK    6  A    between atoms: N_9  and  C_10 
ROOT
HETATM    1  C   UNL     1      42.581 -13.527   2.840  1.00  0.00     0.231 C 
HETATM    2  N   UNL     1      41.366 -14.000   3.320  1.00  0.00    -0.325 N 
HETATM    3  O   UNL     1      42.716 -12.901   1.790  1.00  0.00    -0.272 OA
HETATM    4  H   UNL     1      41.332 -14.032   4.333  1.00  0.00     0.169 HD
ENDROOT
BRANCH   1   5
HETATM    5  C   UNL     1      43.791 -13.842   3.709  1.00  0.00     0.185 C 
BRANCH   5   6
HETATM    6  S   UNL     1      43.348 -14.720   5.245  1.00  0.00    -0.083 SA
BRANCH   6   7
HETATM    7  C   UNL     1      43.574 -16.364   4.737  1.00  0.00     0.170 A 
HETATM    8  N   UNL     1      44.180 -17.326   5.509  1.00  0.00    -0.324 N 
HETATM    9  C   UNL     1      44.273 -18.470   4.740  1.00  0.00     0.065 A 
HETATM   10  C   UNL     1      43.658 -18.125   3.537  1.00  0.00     0.088 A 
HETATM   11  C   UNL     1      44.813 -19.743   4.968  1.00  0.00     0.034 A 
HETATM   12  N   UNL     1      43.222 -16.828   3.563  1.00  0.00    -0.222 NA
HETATM   13  C   UNL     1      43.566 -19.066   2.503  1.00  0.00     0.057 A 
HETATM   14  C   UNL     1      44.106 -20.336   2.716  1.00  0.00     0.036 A 
HETATM   15 CL   UNL     1      44.018 -21.512   1.460  1.00  0.00    -0.084 Cl
HETATM   16  C   UNL     1      44.720 -20.671   3.925  1.00  0.00     0.026 A 
BRANCH   8  17
HETATM   17  C   UNL     1      44.670 -17.189   6.868  1.00  0.00     0.131 C 
BRANCH  17  18
HETATM   18  C   UNL     1      43.619 -17.476   7.942  1.00  0.00     0.016 C 
HETATM   19  C   UNL     1      42.190 -17.431   7.418  1.00  0.00     0.006 C 
ENDBRANCH  17  18
ENDBRANCH   8  17
ENDBRANCH   6   7
ENDBRANCH   5   6
ENDBRANCH   1   5
BRANCH   2  20
HETATM   20  C   UNL     1      40.144 -13.762   2.644  1.00  0.00     0.054 A 
HETATM   21  C   UNL     1      39.467 -14.743   1.860  1.00  0.00     0.040 A 
HETATM   22 BR   UNL     1      39.955 -16.588   1.877  1.00  0.00    -0.049 Br
HETATM   23  C   UNL     1      38.299 -14.429   1.150  1.00  0.00     0.053 A 
HETATM   24  C   UNL     1      37.827 -13.145   1.272  1.00  0.00     0.064 A 
HETATM   25  C   UNL     1      38.452 -12.198   2.079  1.00  0.00     0.065 A 
HETATM   26  N   UNL     1      36.713 -12.548   0.693  1.00  0.00    -0.306 N 
HETATM   27  N   UNL     1      37.724 -11.017   1.994  1.00  0.00    -0.306 N 
HETATM   28  C   UNL     1      39.597 -12.476   2.788  1.00  0.00     0.063 A 
HETATM   29  C   UNL     1      36.638 -11.217   1.129  1.00  0.00     0.325 A 
HETATM   30  H   UNL     1      37.918 -10.139   2.447  1.00  0.00     0.170 HD
HETATM   31  O   UNL     1      35.795 -10.395   0.819  1.00  0.00    -0.247 OA
HETATM   32  H   UNL     1      36.057 -12.965   0.054  1.00  0.00     0.170 HD
ENDBRANCH   2  20
TORSDOF 6
ENDMDL
MODEL 7
REMARK VINA RESULT:      -7.6      1.678      2.133
REMARK  6 active torsions:
REMARK  status: ('A' for Active; 'I' for Inactive)
REMARK    1  A    between atoms: C_2  and  C_3 
REMARK    2  A    between atoms: C_3  and  N_4 
REMARK    3  A    between atoms: C_5  and  S_6 
REMARK    4  A    between atoms: S_6  and  C_7 
REMARK    5  A    between atoms: C_7  and  C_8 
REMARK       I    between atoms: C_8  and  N_9 
REMARK    6  A    between atoms: N_9  and  C_10 
ROOT
HETATM    1  C   UNL     1      41.833 -13.842   2.743  1.00  0.00     0.231 C 
HETATM    2  N   UNL     1      40.778 -14.557   2.190  1.00  0.00    -0.325 N 
HETATM    3  O   UNL     1      42.611 -13.142   2.096  1.00  0.00    -0.272 OA
HETATM    4  H   UNL     1      39.995 -14.654   2.828  1.00  0.00     0.169 HD
ENDROOT
BRANCH   1   5
HETATM    5  C   UNL     1      41.994 -13.981   4.251  1.00  0.00     0.185 C 
BRANCH   5   6
HETATM    6  S   UNL     1      40.850 -15.204   4.974  1.00  0.00    -0.083 SA
BRANCH   6   7
HETATM    7  C   UNL     1      41.762 -16.661   4.730  1.00  0.00     0.170 A 
HETATM    8  N   UNL     1      42.473 -17.292   5.722  1.00  0.00    -0.324 N 
HETATM    9  C   UNL     1      43.148 -18.346   5.136  1.00  0.00     0.065 A 
HETATM   10  C   UNL     1      42.751 -18.305   3.801  1.00  0.00     0.088 A 
HETATM   11  C   UNL     1      44.038 -19.311   5.626  1.00  0.00     0.034 A 
HETATM   12  N   UNL     1      41.887 -17.268   3.575  1.00  0.00    -0.222 NA
HETATM   13  C   UNL     1      43.248 -19.252   2.894  1.00  0.00     0.057 A 
HETATM   14  C   UNL     1      44.142 -20.215   3.369  1.00  0.00     0.036 A 
HETATM   15 CL   UNL     1      44.778 -21.386   2.277  1.00  0.00    -0.084 Cl
HETATM   16  C   UNL     1      44.531 -20.246   4.709  1.00  0.00     0.026 A 
BRANCH   8  17
HETATM   17  C   UNL     1      42.547 -16.927   7.125  1.00  0.00     0.131 C 
BRANCH  17  18
HETATM   18  C   UNL     1      43.913 -16.387   7.558  1.00  0.00     0.016 C 
HETATM   19  C   UNL     1      44.196 -14.980   7.048  1.00  0.00     0.006 C 
ENDBRANCH  17  18
ENDBRANCH   8  17
ENDBRANCH   6   7
ENDBRANCH   5   6
ENDBRANCH   1   5
BRANCH   2  20
HETATM   20  C   UNL     1      40.476 -14.508   0.807  1.00  0.00     0.054 A 
HETATM   21  C   UNL     1      41.165 -15.271  -0.183  1.00  0.00     0.040 A 
HETATM   22 BR   UNL     1      42.366 -16.685   0.262  1.00  0.00    -0.049 Br
HETATM   23  C   UNL     1      40.875 -15.125  -1.548  1.00  0.00     0.053 A 
HETATM   24  C   UNL     1      39.880 -14.238  -1.877  1.00  0.00     0.064 A 
HETATM   25  C   UNL     1      39.166 -13.531  -0.913  1.00  0.00     0.065 A 
HETATM   26  N   UNL     1      39.382 -13.883  -3.125  1.00  0.00    -0.306 N 
HETATM   27  N   UNL     1      38.231 -12.739  -1.568  1.00  0.00    -0.306 N 
HETATM   28  C   UNL     1      39.426 -13.654   0.433  1.00  0.00     0.063 A 
HETATM   29  C   UNL     1      38.356 -12.943  -2.950  1.00  0.00     0.325 A 
HETATM   30  H   UNL     1      37.568 -12.100  -1.160  1.00  0.00     0.170 HD
HETATM   31  O   UNL     1      37.700 -12.409  -3.826  1.00  0.00    -0.247 OA
HETATM   32  H   UNL     1      39.690 -14.213  -4.025  1.00  0.00     0.170 HD
ENDBRANCH   2  20
TORSDOF 6
ENDMDL
MODEL 8
REMARK VINA RESULT:      -7.5      5.817      7.983
REMARK  6 active torsions:
REMARK  status: ('A' for Active; 'I' for Inactive)
REMARK    1  A    between atoms: C_2  and  C_3 
REMARK    2  A    between atoms: C_3  and  N_4 
REMARK    3  A    between atoms: C_5  and  S_6 
REMARK    4  A    between atoms: S_6  and  C_7 
REMARK    5  A    between atoms: C_7  and  C_8 
REMARK       I    between atoms: C_8  and  N_9 
REMARK    6  A    between atoms: N_9  and  C_10 
ROOT
HETATM    1  C   UNL     1      39.634 -12.710   6.077  1.00  0.00     0.231 C 
HETATM    2  N   UNL     1      40.417 -12.136   7.070  1.00  0.00    -0.325 N 
HETATM    3  O   UNL     1      38.542 -12.273   5.715  1.00  0.00    -0.272 OA
HETATM    4  H   UNL     1      41.410 -12.277   6.915  1.00  0.00     0.169 HD
ENDROOT
BRANCH   1   5
HETATM    5  C   UNL     1      40.211 -13.966   5.438  1.00  0.00     0.185 C 
BRANCH   5   6
HETATM    6  S   UNL     1      41.819 -13.670   4.628  1.00  0.00    -0.083 SA
BRANCH   6   7
HETATM    7  C   UNL     1      42.366 -15.305   4.423  1.00  0.00     0.170 A 
HETATM    8  N   UNL     1      43.097 -15.989   5.363  1.00  0.00    -0.324 N 
HETATM    9  C   UNL     1      43.436 -17.210   4.810  1.00  0.00     0.065 A 
HETATM   10  C   UNL     1      42.830 -17.196   3.555  1.00  0.00     0.088 A 
HETATM   11  C   UNL     1      44.187 -18.300   5.270  1.00  0.00     0.034 A 
HETATM   12  N   UNL     1      42.165 -16.019   3.342  1.00  0.00    -0.222 NA
HETATM   13  C   UNL     1      42.964 -18.301   2.701  1.00  0.00     0.057 A 
HETATM   14  C   UNL     1      43.715 -19.391   3.146  1.00  0.00     0.036 A 
HETATM   15 CL   UNL     1      43.906 -20.759   2.116  1.00  0.00    -0.084 Cl
HETATM   16  C   UNL     1      44.317 -19.394   4.405  1.00  0.00     0.026 A 
BRANCH   8  17
HETATM   17  C   UNL     1      43.484 -15.533   6.685  1.00  0.00     0.131 C 
BRANCH  17  18
HETATM   18  C   UNL     1      44.760 -14.688   6.704  1.00  0.00     0.016 C 
HETATM   19  C   UNL     1      44.700 -13.522   7.683  1.00  0.00     0.006 C 
ENDBRANCH  17  18
ENDBRANCH   8  17
ENDBRANCH   6   7
ENDBRANCH   5   6
ENDBRANCH   1   5
BRANCH   2  20
HETATM   20  C   UNL     1      40.035 -10.947   7.740  1.00  0.00     0.054 A 
HETATM   21  C   UNL     1      40.400  -9.639   7.304  1.00  0.00     0.040 A 
HETATM   22 BR   UNL     1      41.182  -9.305   5.595  1.00  0.00    -0.049 Br
HETATM   23  C   UNL     1      40.057  -8.500   8.049  1.00  0.00     0.053 A 
HETATM   24  C   UNL     1      39.331  -8.708   9.196  1.00  0.00     0.064 A 
HETATM   25  C   UNL     1      38.924  -9.977   9.598  1.00  0.00     0.065 A 
HETATM   26  N   UNL     1      38.858  -7.790  10.127  1.00  0.00    -0.306 N 
HETATM   27  N   UNL     1      38.204  -9.841  10.779  1.00  0.00    -0.306 N 
HETATM   28  C   UNL     1      39.243 -11.112   8.888  1.00  0.00     0.063 A 
HETATM   29  C   UNL     1      38.157  -8.482  11.126  1.00  0.00     0.325 A 
HETATM   30  H   UNL     1      37.783 -10.569  11.333  1.00  0.00     0.170 HD
HETATM   31  O   UNL     1      37.613  -8.000  12.102  1.00  0.00    -0.247 OA
HETATM   32  H   UNL     1      38.989  -6.792  10.126  1.00  0.00     0.170 HD
ENDBRANCH   2  20
TORSDOF 6
ENDMDL
MODEL 9
REMARK VINA RESULT:      -7.5      4.278      8.005
REMARK  6 active torsions:
REMARK  status: ('A' for Active; 'I' for Inactive)
REMARK    1  A    between atoms: C_2  and  C_3 
REMARK    2  A    between atoms: C_3  and  N_4 
REMARK    3  A    between atoms: C_5  and  S_6 
REMARK    4  A    between atoms: S_6  and  C_7 
REMARK    5  A    between atoms: C_7  and  C_8 
REMARK       I    between atoms: C_8  and  N_9 
REMARK    6  A    between atoms: N_9  and  C_10 
ROOT
HETATM    1  C   UNL     1      42.641 -15.128   3.696  1.00  0.00     0.231 C 
HETATM    2  N   UNL     1      42.255 -16.280   4.370  1.00  0.00    -0.325 N 
HETATM    3  O   UNL     1      43.629 -15.048   2.969  1.00  0.00    -0.272 OA
HETATM    4  H   UNL     1      41.250 -16.343   4.494  1.00  0.00     0.169 HD
ENDROOT
BRANCH   1   5
HETATM    5  C   UNL     1      41.748 -13.915   3.919  1.00  0.00     0.185 C 
BRANCH   5   6
HETATM    6  S   UNL     1      40.320 -13.870   2.784  1.00  0.00    -0.083 SA
BRANCH   6   7
HETATM    7  C   UNL     1      40.983 -12.918   1.493  1.00  0.00     0.170 A 
HETATM    8  N   UNL     1      41.109 -13.365   0.200  1.00  0.00    -0.324 N 
HETATM    9  C   UNL     1      41.768 -12.381  -0.513  1.00  0.00     0.065 A 
HETATM   10  C   UNL     1      41.960 -11.359   0.415  1.00  0.00     0.088 A 
HETATM   11  C   UNL     1      42.200 -12.280  -1.841  1.00  0.00     0.034 A 
HETATM   12  N   UNL     1      41.457 -11.704   1.640  1.00  0.00    -0.222 NA
HETATM   13  C   UNL     1      42.608 -10.177   0.029  1.00  0.00     0.057 A 
HETATM   14  C   UNL     1      43.049 -10.067  -1.292  1.00  0.00     0.036 A 
HETATM   15 CL   UNL     1      43.858  -8.631  -1.794  1.00  0.00    -0.084 Cl
HETATM   16  C   UNL     1      42.851 -11.098  -2.212  1.00  0.00     0.026 A 
BRANCH   8  17
HETATM   17  C   UNL     1      40.671 -14.639  -0.340  1.00  0.00     0.131 C 
BRANCH  17  18
HETATM   18  C   UNL     1      41.689 -15.770  -0.176  1.00  0.00     0.016 C 
HETATM   19  C   UNL     1      41.145 -16.968   0.590  1.00  0.00     0.006 C 
ENDBRANCH  17  18
ENDBRANCH   8  17
ENDBRANCH   6   7
ENDBRANCH   5   6
ENDBRANCH   1   5
BRANCH   2  20
HETATM   20  C   UNL     1      42.962 -17.501   4.242  1.00  0.00     0.054 A 
HETATM   21  C   UNL     1      43.979 -17.927   5.148  1.00  0.00     0.040 A 
HETATM   22 BR   UNL     1      44.297 -17.061   6.818  1.00  0.00    -0.049 Br
HETATM   23  C   UNL     1      44.700 -19.111   4.929  1.00  0.00     0.053 A 
HETATM   24  C   UNL     1      44.359 -19.847   3.822  1.00  0.00     0.064 A 
HETATM   25  C   UNL     1      43.331 -19.466   2.964  1.00  0.00     0.065 A 
HETATM   26  N   UNL     1      44.891 -21.042   3.349  1.00  0.00    -0.306 N 
HETATM   27  N   UNL     1      43.232 -20.424   1.961  1.00  0.00    -0.306 N 
HETATM   28  C   UNL     1      42.604 -18.312   3.152  1.00  0.00     0.063 A 
HETATM   29  C   UNL     1      44.202 -21.412   2.185  1.00  0.00     0.325 A 
HETATM   30  H   UNL     1      42.597 -20.436   1.180  1.00  0.00     0.170 HD
HETATM   31  O   UNL     1      44.405 -22.399   1.501  1.00  0.00    -0.247 OA
HETATM   32  H   UNL     1      45.650 -21.573   3.742  1.00  0.00     0.170 HD
ENDBRANCH   2  20
TORSDOF 6
ENDMDL
MODEL 10
REMARK VINA RESULT:      -7.5      3.645      7.922
REMARK  6 active torsions:
REMARK  status: ('A' for Active; 'I' for Inactive)
REMARK    1  A    between atoms: C_2  and  C_3 
REMARK    2  A    between atoms: C_3  and  N_4 
REMARK    3  A    between atoms: C_5  and  S_6 
REMARK    4  A    between atoms: S_6  and  C_7 
REMARK    5  A    between atoms: C_7  and  C_8 
REMARK       I    between atoms: C_8  and  N_9 
REMARK    6  A    between atoms: N_9  and  C_10 
ROOT
HETATM    1  C   UNL     1      40.938 -14.774   3.587  1.00  0.00     0.231 C 
HETATM    2  N   UNL     1      40.626 -16.126   3.512  1.00  0.00    -0.325 N 
HETATM    3  O   UNL     1      42.076 -14.318   3.483  1.00  0.00    -0.272 OA
HETATM    4  H   UNL     1      39.701 -16.293   3.130  1.00  0.00     0.169 HD
ENDROOT
BRANCH   1   5
HETATM    5  C   UNL     1      39.755 -13.845   3.823  1.00  0.00     0.185 C 
BRANCH   5   6
HETATM    6  S   UNL     1      39.891 -12.278   2.898  1.00  0.00    -0.083 SA
BRANCH   6   7
HETATM    7  C   UNL     1      39.719 -12.864   1.273  1.00  0.00     0.170 A 
HETATM    8  N   UNL     1      40.712 -12.795   0.326  1.00  0.00    -0.324 N 
HETATM    9  C   UNL     1      40.179 -13.257  -0.863  1.00  0.00     0.065 A 
HETATM   10  C   UNL     1      38.876 -13.626  -0.532  1.00  0.00     0.088 A 
HETATM   11  C   UNL     1      40.691 -13.392  -2.160  1.00  0.00     0.034 A 
HETATM   12  N   UNL     1      38.618 -13.389   0.791  1.00  0.00    -0.222 NA
HETATM   13  C   UNL     1      38.027 -14.153  -1.516  1.00  0.00     0.057 A 
HETATM   14  C   UNL     1      38.524 -14.286  -2.814  1.00  0.00     0.036 A 
HETATM   15 CL   UNL     1      37.501 -14.920  -4.048  1.00  0.00    -0.084 Cl
HETATM   16  C   UNL     1      39.831 -13.913  -3.133  1.00  0.00     0.026 A 
BRANCH   8  17
HETATM   17  C   UNL     1      42.067 -12.305   0.501  1.00  0.00     0.131 C 
BRANCH  17  18
HETATM   18  C   UNL     1      42.270 -10.857   0.048  1.00  0.00     0.016 C 
HETATM   19  C   UNL     1      43.200 -10.723  -1.150  1.00  0.00     0.006 C 
ENDBRANCH  17  18
ENDBRANCH   8  17
ENDBRANCH   6   7
ENDBRANCH   5   6
ENDBRANCH   1   5
BRANCH   2  20
HETATM   20  C   UNL     1      41.610 -17.114   3.266  1.00  0.00     0.054 A 
HETATM   21  C   UNL     1      42.010 -17.527   1.960  1.00  0.00     0.040 A 
HETATM   22 BR   UNL     1      41.499 -16.584   0.382  1.00  0.00    -0.049 Br
HETATM   23  C   UNL     1      42.935 -18.567   1.776  1.00  0.00     0.053 A 
HETATM   24  C   UNL     1      43.455 -19.139   2.910  1.00  0.00     0.064 A 
HETATM   25  C   UNL     1      43.111 -18.704   4.187  1.00  0.00     0.065 A 
HETATM   26  N   UNL     1      44.373 -20.175   3.042  1.00  0.00    -0.306 N 
HETATM   27  N   UNL     1      43.815 -19.474   5.105  1.00  0.00    -0.306 N 
HETATM   28  C   UNL     1      42.209 -17.687   4.400  1.00  0.00     0.063 A 
HETATM   29  C   UNL     1      44.604 -20.401   4.408  1.00  0.00     0.325 A 
HETATM   30  H   UNL     1      43.782 -19.420   6.110  1.00  0.00     0.170 HD
HETATM   31  O   UNL     1      45.344 -21.236   4.893  1.00  0.00    -0.247 OA
HETATM   32  H   UNL     1      44.808 -20.706   2.307  1.00  0.00     0.170 HD
ENDBRANCH   2  20
TORSDOF 6
ENDMDL
