MODEL 1
REMARK VINA RESULT:      -8.7      0.000      0.000
REMARK  8 active torsions:
REMARK  status: ('A' for Active; 'I' for Inactive)
REMARK    1  A    between atoms: O_2  and  C_3 
REMARK    2  A    between atoms: C_5  and  N_6 
REMARK       I    between atoms: N_6  and  C_7 
REMARK    3  A    between atoms: C_7  and  C_8 
REMARK       I    between atoms: C_8  and  N_9 
REMARK    4  A    between atoms: N_9  and  C_10 
REMARK    5  A    between atoms: C_10  and  C_11 
REMARK    6  A    between atoms: C_11  and  S_12 
REMARK    7  A    between atoms: S_12  and  C_13 
REMARK    8  A    between atoms: C_26  and  O_27 
ROOT
HETATM    1  C   UNL     1      44.920 -13.571   7.420  1.00  0.00     0.309 C 
HETATM    2  N   UNL     1      43.898 -14.484   7.274  1.00  0.00    -0.351 N 
HETATM    3  O   UNL     1      45.858 -13.408   6.652  1.00  0.00    -0.262 OA
HETATM    4  H   UNL     1      43.275 -14.560   8.075  1.00  0.00     0.162 HD
ENDROOT
BRANCH   1   5
HETATM    5  C   UNL     1      44.819 -12.728   8.710  1.00  0.00     0.314 C 
HETATM    6  N   UNL     1      43.588 -12.133   8.843  1.00  0.00    -0.316 N 
HETATM    7  H   UNL     1      42.909 -12.350   8.112  1.00  0.00     0.169 HD
HETATM    8  O   UNL     1      45.791 -12.673   9.452  1.00  0.00    -0.262 OA
BRANCH   6   9
HETATM    9  C   UNL     1      43.126 -11.266   9.853  1.00  0.00     0.071 A 
HETATM   10  C   UNL     1      43.321 -11.506  11.218  1.00  0.00     0.069 A 
HETATM   11  C   UNL     1      42.854 -10.592  12.164  1.00  0.00     0.070 A 
HETATM   12  C   UNL     1      42.165  -9.454  11.741  1.00  0.00     0.039 A 
HETATM   13  C   UNL     1      41.966  -9.203  10.382  1.00  0.00     0.042 A 
HETATM   14  C   UNL     1      42.451 -10.100   9.431  1.00  0.00     0.095 A 
BRANCH  11  15
HETATM   15  O   UNL     1      42.995 -10.700  13.521  1.00  0.00    -0.356 OA
HETATM   16  C   UNL     1      42.805  -9.509  14.276  1.00  0.00     0.210 C 
ENDBRANCH  11  15
BRANCH  14  17
HETATM   17  O   UNL     1      42.324  -9.952   8.070  1.00  0.00    -0.354 OA
HETATM   18  C   UNL     1      41.395  -8.979   7.607  1.00  0.00     0.210 C 
ENDBRANCH  14  17
ENDBRANCH   6   9
ENDBRANCH   1   5
BRANCH   2  19
HETATM   19  C   UNL     1      43.940 -15.523   6.262  1.00  0.00     0.144 C 
BRANCH  19  20
HETATM   20  C   UNL     1      42.732 -15.552   5.270  1.00  0.00     0.033 C 
HETATM   21  C   UNL     1      41.755 -14.416   5.647  1.00  0.00     0.049 C 
HETATM   22  C   UNL     1      42.332 -13.042   5.309  1.00  0.00     0.169 C 
HETATM   23  O   UNL     1      42.714 -12.973   3.938  1.00  0.00    -0.391 OA
HETATM   24  C   UNL     1      43.705 -13.935   3.582  1.00  0.00     0.169 C 
HETATM   25  C   UNL     1      43.185 -15.351   3.810  1.00  0.00     0.049 C 
BRANCH  20  26
HETATM   26  S   UNL     1      41.942 -17.238   5.497  1.00  0.00    -0.118 SA
BRANCH  26  27
HETATM   27  C   UNL     1      42.884 -18.300   4.422  1.00  0.00     0.001 A 
HETATM   28  C   UNL     1      43.947 -19.055   4.925  1.00  0.00     0.018 A 
HETATM   29  C   UNL     1      44.664 -19.911   4.088  1.00  0.00     0.001 A 
HETATM   30  C   UNL     1      44.310 -20.032   2.744  1.00  0.00     0.000 A 
HETATM   31  C   UNL     1      43.232 -19.306   2.242  1.00  0.00     0.001 A 
HETATM   32  C   UNL     1      42.514 -18.451   3.081  1.00  0.00     0.018 A 
ENDBRANCH  26  27
ENDBRANCH  20  26
ENDBRANCH  19  20
ENDBRANCH   2  19
TORSDOF 8
ENDMDL
MODEL 2
REMARK VINA RESULT:      -8.5      5.192      9.096
REMARK  8 active torsions:
REMARK  status: ('A' for Active; 'I' for Inactive)
REMARK    1  A    between atoms: O_2  and  C_3 
REMARK    2  A    between atoms: C_5  and  N_6 
REMARK       I    between atoms: N_6  and  C_7 
REMARK    3  A    between atoms: C_7  and  C_8 
REMARK       I    between atoms: C_8  and  N_9 
REMARK    4  A    between atoms: N_9  and  C_10 
REMARK    5  A    between atoms: C_10  and  C_11 
REMARK    6  A    between atoms: C_11  and  S_12 
REMARK    7  A    between atoms: S_12  and  C_13 
REMARK    8  A    between atoms: C_26  and  O_27 
ROOT
HETATM    1  C   UNL     1      40.497 -14.466   2.912  1.00  0.00     0.309 C 
HETATM    2  N   UNL     1      41.843 -14.625   3.164  1.00  0.00    -0.351 N 
HETATM    3  O   UNL     1      39.600 -14.480   3.743  1.00  0.00    -0.262 OA
HETATM    4  H   UNL     1      42.427 -14.708   2.335  1.00  0.00     0.162 HD
ENDROOT
BRANCH   1   5
HETATM    5  C   UNL     1      40.164 -14.284   1.414  1.00  0.00     0.314 C 
HETATM    6  N   UNL     1      41.296 -14.173   0.644  1.00  0.00    -0.316 N 
HETATM    7  H   UNL     1      42.182 -14.260   1.143  1.00  0.00     0.169 HD
HETATM    8  O   UNL     1      38.989 -14.258   1.075  1.00  0.00    -0.262 OA
BRANCH   6   9
HETATM    9  C   UNL     1      41.406 -13.960  -0.744  1.00  0.00     0.071 A 
HETATM   10  C   UNL     1      40.850 -14.819  -1.698  1.00  0.00     0.069 A 
HETATM   11  C   UNL     1      40.981 -14.534  -3.059  1.00  0.00     0.070 A 
HETATM   12  C   UNL     1      41.697 -13.405  -3.461  1.00  0.00     0.039 A 
HETATM   13  C   UNL     1      42.255 -12.540  -2.518  1.00  0.00     0.042 A 
HETATM   14  C   UNL     1      42.108 -12.806  -1.156  1.00  0.00     0.095 A 
BRANCH  11  15
HETATM   15  O   UNL     1      40.470 -15.280  -4.087  1.00  0.00    -0.356 OA
HETATM   16  C   UNL     1      39.130 -15.734  -3.937  1.00  0.00     0.210 C 
ENDBRANCH  11  15
BRANCH  14  17
HETATM   17  O   UNL     1      42.604 -12.022  -0.141  1.00  0.00    -0.354 OA
HETATM   18  C   UNL     1      42.238 -10.648  -0.145  1.00  0.00     0.210 C 
ENDBRANCH  14  17
ENDBRANCH   6   9
ENDBRANCH   1   5
BRANCH   2  19
HETATM   19  C   UNL     1      42.332 -15.044   4.465  1.00  0.00     0.144 C 
BRANCH  19  20
HETATM   20  C   UNL     1      42.792 -16.534   4.569  1.00  0.00     0.033 C 
HETATM   21  C   UNL     1      43.852 -16.648   5.687  1.00  0.00     0.049 C 
HETATM   22  C   UNL     1      43.231 -16.475   7.072  1.00  0.00     0.169 C 
HETATM   23  O   UNL     1      42.159 -17.394   7.267  1.00  0.00    -0.391 OA
HETATM   24  C   UNL     1      41.105 -17.238   6.320  1.00  0.00     0.169 C 
HETATM   25  C   UNL     1      41.617 -17.475   4.903  1.00  0.00     0.049 C 
BRANCH  20  26
HETATM   26  S   UNL     1      43.521 -16.947   2.890  1.00  0.00    -0.118 SA
BRANCH  26  27
HETATM   27  C   UNL     1      43.809 -18.702   2.969  1.00  0.00     0.001 A 
HETATM   28  C   UNL     1      43.426 -19.531   1.911  1.00  0.00     0.018 A 
HETATM   29  C   UNL     1      43.681 -20.903   1.960  1.00  0.00     0.001 A 
HETATM   30  C   UNL     1      44.338 -21.451   3.061  1.00  0.00     0.000 A 
HETATM   31  C   UNL     1      44.750 -20.627   4.105  1.00  0.00     0.001 A 
HETATM   32  C   UNL     1      44.496 -19.254   4.055  1.00  0.00     0.018 A 
ENDBRANCH  26  27
ENDBRANCH  20  26
ENDBRANCH  19  20
ENDBRANCH   2  19
TORSDOF 8
ENDMDL
MODEL 3
REMARK VINA RESULT:      -8.5      1.747      3.100
REMARK  8 active torsions:
REMARK  status: ('A' for Active; 'I' for Inactive)
REMARK    1  A    between atoms: O_2  and  C_3 
REMARK    2  A    between atoms: C_5  and  N_6 
REMARK       I    between atoms: N_6  and  C_7 
REMARK    3  A    between atoms: C_7  and  C_8 
REMARK       I    between atoms: C_8  and  N_9 
REMARK    4  A    between atoms: N_9  and  C_10 
REMARK    5  A    between atoms: C_10  and  C_11 
REMARK    6  A    between atoms: C_11  and  S_12 
REMARK    7  A    between atoms: S_12  and  C_13 
REMARK    8  A    between atoms: C_26  and  O_27 
ROOT
HETATM    1  C   UNL     1      40.820 -11.443   6.249  1.00  0.00     0.309 C 
HETATM    2  N   UNL     1      40.929 -12.809   6.401  1.00  0.00    -0.351 N 
HETATM    3  O   UNL     1      40.144 -10.860   5.413  1.00  0.00    -0.262 OA
HETATM    4  H   UNL     1      41.633 -13.110   7.070  1.00  0.00     0.162 HD
ENDROOT
BRANCH   1   5
HETATM    5  C   UNL     1      41.682 -10.638   7.248  1.00  0.00     0.314 C 
HETATM    6  N   UNL     1      42.032 -11.386   8.346  1.00  0.00    -0.316 N 
HETATM    7  H   UNL     1      41.717 -12.356   8.340  1.00  0.00     0.169 HD
HETATM    8  O   UNL     1      41.957  -9.476   6.980  1.00  0.00    -0.262 OA
BRANCH   6   9
HETATM    9  C   UNL     1      42.772 -11.000   9.481  1.00  0.00     0.071 A 
HETATM   10  C   UNL     1      42.282 -10.120  10.453  1.00  0.00     0.069 A 
HETATM   11  C   UNL     1      43.064  -9.797  11.564  1.00  0.00     0.070 A 
HETATM   12  C   UNL     1      44.347 -10.333  11.682  1.00  0.00     0.039 A 
HETATM   13  C   UNL     1      44.846 -11.214  10.720  1.00  0.00     0.042 A 
HETATM   14  C   UNL     1      44.061 -11.559   9.620  1.00  0.00     0.095 A 
BRANCH  11  15
HETATM   15  O   UNL     1      42.697  -8.968  12.589  1.00  0.00    -0.356 OA
HETATM   16  C   UNL     1      43.228  -9.274  13.874  1.00  0.00     0.210 C 
ENDBRANCH  11  15
BRANCH  14  17
HETATM   17  O   UNL     1      44.441 -12.420   8.618  1.00  0.00    -0.354 OA
HETATM   18  C   UNL     1      45.835 -12.541   8.361  1.00  0.00     0.210 C 
ENDBRANCH  14  17
ENDBRANCH   6   9
ENDBRANCH   1   5
BRANCH   2  19
HETATM   19  C   UNL     1      40.391 -13.731   5.417  1.00  0.00     0.144 C 
BRANCH  19  20
HETATM   20  C   UNL     1      41.368 -14.850   4.932  1.00  0.00     0.033 C 
HETATM   21  C   UNL     1      40.888 -15.365   3.557  1.00  0.00     0.049 C 
HETATM   22  C   UNL     1      41.117 -14.330   2.457  1.00  0.00     0.169 C 
HETATM   23  O   UNL     1      42.482 -13.921   2.418  1.00  0.00    -0.391 OA
HETATM   24  C   UNL     1      42.927 -13.332   3.638  1.00  0.00     0.169 C 
HETATM   25  C   UNL     1      42.812 -14.327   4.788  1.00  0.00     0.049 C 
BRANCH  20  26
HETATM   26  S   UNL     1      41.273 -16.194   6.237  1.00  0.00    -0.118 SA
BRANCH  26  27
HETATM   27  C   UNL     1      42.727 -17.180   5.943  1.00  0.00     0.001 A 
HETATM   28  C   UNL     1      43.841 -17.065   6.778  1.00  0.00     0.018 A 
HETATM   29  C   UNL     1      44.968 -17.862   6.566  1.00  0.00     0.001 A 
HETATM   30  C   UNL     1      44.979 -18.791   5.527  1.00  0.00     0.000 A 
HETATM   31  C   UNL     1      43.861 -18.933   4.709  1.00  0.00     0.001 A 
HETATM   32  C   UNL     1      42.732 -18.137   4.923  1.00  0.00     0.018 A 
ENDBRANCH  26  27
ENDBRANCH  20  26
ENDBRANCH  19  20
ENDBRANCH   2  19
TORSDOF 8
ENDMDL
MODEL 4
REMARK VINA RESULT:      -8.5      5.643      9.272
REMARK  8 active torsions:
REMARK  status: ('A' for Active; 'I' for Inactive)
REMARK    1  A    between atoms: O_2  and  C_3 
REMARK    2  A    between atoms: C_5  and  N_6 
REMARK       I    between atoms: N_6  and  C_7 
REMARK    3  A    between atoms: C_7  and  C_8 
REMARK       I    between atoms: C_8  and  N_9 
REMARK    4  A    between atoms: N_9  and  C_10 
REMARK    5  A    between atoms: C_10  and  C_11 
REMARK    6  A    between atoms: C_11  and  S_12 
REMARK    7  A    between atoms: S_12  and  C_13 
REMARK    8  A    between atoms: C_26  and  O_27 
ROOT
HETATM    1  C   UNL     1      41.213 -15.948   0.635  1.00  0.00     0.309 C 
HETATM    2  N   UNL     1      40.659 -15.980   1.897  1.00  0.00    -0.351 N 
HETATM    3  O   UNL     1      41.875 -16.834   0.114  1.00  0.00    -0.262 OA
HETATM    4  H   UNL     1      40.247 -15.103   2.206  1.00  0.00     0.162 HD
ENDROOT
BRANCH   1   5
HETATM    5  C   UNL     1      40.954 -14.627  -0.123  1.00  0.00     0.314 C 
HETATM    6  N   UNL     1      41.932 -14.364  -1.051  1.00  0.00    -0.316 N 
HETATM    7  H   UNL     1      42.659 -15.074  -1.142  1.00  0.00     0.169 HD
HETATM    8  O   UNL     1      39.956 -13.976   0.159  1.00  0.00    -0.262 OA
BRANCH   6   9
HETATM    9  C   UNL     1      42.068 -13.250  -1.903  1.00  0.00     0.071 A 
HETATM   10  C   UNL     1      42.622 -12.033  -1.491  1.00  0.00     0.069 A 
HETATM   11  C   UNL     1      42.745 -10.977  -2.396  1.00  0.00     0.070 A 
HETATM   12  C   UNL     1      42.284 -11.133  -3.705  1.00  0.00     0.039 A 
HETATM   13  C   UNL     1      41.731 -12.344  -4.128  1.00  0.00     0.042 A 
HETATM   14  C   UNL     1      41.627 -13.411  -3.235  1.00  0.00     0.095 A 
BRANCH  11  15
HETATM   15  O   UNL     1      43.282  -9.747  -2.126  1.00  0.00    -0.356 OA
HETATM   16  C   UNL     1      43.611  -9.484  -0.767  1.00  0.00     0.210 C 
ENDBRANCH  11  15
BRANCH  14  17
HETATM   17  O   UNL     1      41.111 -14.648  -3.541  1.00  0.00    -0.354 OA
HETATM   18  C   UNL     1      39.698 -14.748  -3.672  1.00  0.00     0.210 C 
ENDBRANCH  14  17
ENDBRANCH   6   9
ENDBRANCH   1   5
BRANCH   2  19
HETATM   19  C   UNL     1      40.988 -17.026   2.849  1.00  0.00     0.144 C 
BRANCH  19  20
HETATM   20  C   UNL     1      42.053 -16.648   3.929  1.00  0.00     0.033 C 
HETATM   21  C   UNL     1      41.842 -15.173   4.337  1.00  0.00     0.049 C 
HETATM   22  C   UNL     1      40.568 -14.993   5.160  1.00  0.00     0.169 C 
HETATM   23  O   UNL     1      40.567 -15.858   6.293  1.00  0.00    -0.391 OA
HETATM   24  C   UNL     1      40.643 -17.239   5.946  1.00  0.00     0.169 C 
HETATM   25  C   UNL     1      41.933 -17.531   5.186  1.00  0.00     0.049 C 
BRANCH  20  26
HETATM   26  S   UNL     1      43.715 -16.896   3.096  1.00  0.00    -0.118 SA
BRANCH  26  27
HETATM   27  C   UNL     1      43.906 -18.666   3.040  1.00  0.00     0.001 A 
HETATM   28  C   UNL     1      43.456 -19.392   1.933  1.00  0.00     0.018 A 
HETATM   29  C   UNL     1      43.635 -20.776   1.876  1.00  0.00     0.001 A 
HETATM   30  C   UNL     1      44.280 -21.440   2.919  1.00  0.00     0.000 A 
HETATM   31  C   UNL     1      44.758 -20.719   4.011  1.00  0.00     0.001 A 
HETATM   32  C   UNL     1      44.581 -19.334   4.067  1.00  0.00     0.018 A 
ENDBRANCH  26  27
ENDBRANCH  20  26
ENDBRANCH  19  20
ENDBRANCH   2  19
TORSDOF 8
ENDMDL
MODEL 5
REMARK VINA RESULT:      -8.3      5.230      8.872
REMARK  8 active torsions:
REMARK  status: ('A' for Active; 'I' for Inactive)
REMARK    1  A    between atoms: O_2  and  C_3 
REMARK    2  A    between atoms: C_5  and  N_6 
REMARK       I    between atoms: N_6  and  C_7 
REMARK    3  A    between atoms: C_7  and  C_8 
REMARK       I    between atoms: C_8  and  N_9 
REMARK    4  A    between atoms: N_9  and  C_10 
REMARK    5  A    between atoms: C_10  and  C_11 
REMARK    6  A    between atoms: C_11  and  S_12 
REMARK    7  A    between atoms: S_12  and  C_13 
REMARK    8  A    between atoms: C_26  and  O_27 
ROOT
HETATM    1  C   UNL     1      41.942 -16.736   0.661  1.00  0.00     0.309 C 
HETATM    2  N   UNL     1      42.126 -15.441   0.223  1.00  0.00    -0.351 N 
HETATM    3  O   UNL     1      40.933 -17.411   0.514  1.00  0.00    -0.262 OA
HETATM    4  H   UNL     1      42.984 -14.999   0.544  1.00  0.00     0.162 HD
ENDROOT
BRANCH   1   5
HETATM    5  C   UNL     1      43.156 -17.311   1.423  1.00  0.00     0.314 C 
HETATM    6  N   UNL     1      42.775 -18.064   2.507  1.00  0.00    -0.316 N 
HETATM    7  H   UNL     1      41.769 -18.171   2.641  1.00  0.00     0.169 HD
HETATM    8  O   UNL     1      44.280 -17.057   1.011  1.00  0.00    -0.262 OA
BRANCH   6   9
HETATM    9  C   UNL     1      43.582 -18.715   3.461  1.00  0.00     0.071 A 
HETATM   10  C   UNL     1      43.942 -18.138   4.684  1.00  0.00     0.069 A 
HETATM   11  C   UNL     1      44.729 -18.850   5.591  1.00  0.00     0.070 A 
HETATM   12  C   UNL     1      45.178 -20.129   5.257  1.00  0.00     0.039 A 
HETATM   13  C   UNL     1      44.823 -20.717   4.041  1.00  0.00     0.042 A 
HETATM   14  C   UNL     1      44.018 -20.019   3.141  1.00  0.00     0.095 A 
BRANCH  11  15
HETATM   15  O   UNL     1      45.134 -18.408   6.822  1.00  0.00    -0.356 OA
HETATM   16  C   UNL     1      44.193 -18.534   7.882  1.00  0.00     0.210 C 
ENDBRANCH  11  15
BRANCH  14  17
HETATM   17  O   UNL     1      43.599 -20.499   1.922  1.00  0.00    -0.354 OA
HETATM   18  C   UNL     1      43.975 -21.829   1.584  1.00  0.00     0.210 C 
ENDBRANCH  14  17
ENDBRANCH   6   9
ENDBRANCH   1   5
BRANCH   2  19
HETATM   19  C   UNL     1      41.028 -14.648  -0.299  1.00  0.00     0.144 C 
BRANCH  19  20
HETATM   20  C   UNL     1      40.453 -13.566   0.672  1.00  0.00     0.033 C 
HETATM   21  C   UNL     1      39.365 -12.761  -0.073  1.00  0.00     0.049 C 
HETATM   22  C   UNL     1      38.106 -13.595  -0.303  1.00  0.00     0.169 C 
HETATM   23  O   UNL     1      37.617 -14.129   0.925  1.00  0.00    -0.391 OA
HETATM   24  C   UNL     1      38.557 -14.974   1.584  1.00  0.00     0.169 C 
HETATM   25  C   UNL     1      39.825 -14.200   1.929  1.00  0.00     0.049 C 
BRANCH  20  26
HETATM   26  S   UNL     1      41.914 -12.482   1.130  1.00  0.00    -0.118 SA
BRANCH  26  27
HETATM   27  C   UNL     1      42.259 -12.922   2.821  1.00  0.00     0.001 A 
HETATM   28  C   UNL     1      43.200 -13.913   3.117  1.00  0.00     0.018 A 
HETATM   29  C   UNL     1      43.493 -14.234   4.443  1.00  0.00     0.001 A 
HETATM   30  C   UNL     1      42.860 -13.554   5.483  1.00  0.00     0.000 A 
HETATM   31  C   UNL     1      41.944 -12.545   5.196  1.00  0.00     0.001 A 
HETATM   32  C   UNL     1      41.652 -12.222   3.868  1.00  0.00     0.018 A 
ENDBRANCH  26  27
ENDBRANCH  20  26
ENDBRANCH  19  20
ENDBRANCH   2  19
TORSDOF 8
ENDMDL
MODEL 6
REMARK VINA RESULT:      -8.2      5.657      9.113
REMARK  8 active torsions:
REMARK  status: ('A' for Active; 'I' for Inactive)
REMARK    1  A    between atoms: O_2  and  C_3 
REMARK    2  A    between atoms: C_5  and  N_6 
REMARK       I    between atoms: N_6  and  C_7 
REMARK    3  A    between atoms: C_7  and  C_8 
REMARK       I    between atoms: C_8  and  N_9 
REMARK    4  A    between atoms: N_9  and  C_10 
REMARK    5  A    between atoms: C_10  and  C_11 
REMARK    6  A    between atoms: C_11  and  S_12 
REMARK    7  A    between atoms: S_12  and  C_13 
REMARK    8  A    between atoms: C_26  and  O_27 
ROOT
HETATM    1  C   UNL     1      41.023 -15.915   0.492  1.00  0.00     0.309 C 
HETATM    2  N   UNL     1      40.588 -15.885   1.800  1.00  0.00    -0.351 N 
HETATM    3  O   UNL     1      41.547 -16.864  -0.074  1.00  0.00    -0.262 OA
HETATM    4  H   UNL     1      40.292 -14.970   2.131  1.00  0.00     0.162 HD
ENDROOT
BRANCH   1   5
HETATM    5  C   UNL     1      40.821 -14.580  -0.260  1.00  0.00     0.314 C 
HETATM    6  N   UNL     1      42.000 -14.089  -0.766  1.00  0.00    -0.316 N 
HETATM    7  H   UNL     1      42.824 -14.672  -0.615  1.00  0.00     0.169 HD
HETATM    8  O   UNL     1      39.692 -14.114  -0.331  1.00  0.00    -0.262 OA
BRANCH   6   9
HETATM    9  C   UNL     1      42.231 -12.892  -1.471  1.00  0.00     0.071 A 
HETATM   10  C   UNL     1      42.183 -12.801  -2.866  1.00  0.00     0.069 A 
HETATM   11  C   UNL     1      42.403 -11.576  -3.498  1.00  0.00     0.070 A 
HETATM   12  C   UNL     1      42.701 -10.449  -2.730  1.00  0.00     0.039 A 
HETATM   13  C   UNL     1      42.750 -10.526  -1.336  1.00  0.00     0.042 A 
HETATM   14  C   UNL     1      42.508 -11.743  -0.698  1.00  0.00     0.095 A 
BRANCH  11  15
HETATM   15  O   UNL     1      42.367 -11.351  -4.847  1.00  0.00    -0.356 OA
HETATM   16  C   UNL     1      42.603 -10.014  -5.275  1.00  0.00     0.210 C 
ENDBRANCH  11  15
BRANCH  14  17
HETATM   17  O   UNL     1      42.520 -11.936   0.663  1.00  0.00    -0.354 OA
HETATM   18  C   UNL     1      41.481 -11.318   1.414  1.00  0.00     0.210 C 
ENDBRANCH  14  17
ENDBRANCH   6   9
ENDBRANCH   1   5
BRANCH   2  19
HETATM   19  C   UNL     1      40.904 -16.950   2.734  1.00  0.00     0.144 C 
BRANCH  19  20
HETATM   20  C   UNL     1      42.011 -16.621   3.787  1.00  0.00     0.033 C 
HETATM   21  C   UNL     1      41.812 -15.169   4.277  1.00  0.00     0.049 C 
HETATM   22  C   UNL     1      40.572 -15.037   5.159  1.00  0.00     0.169 C 
HETATM   23  O   UNL     1      40.620 -15.957   6.247  1.00  0.00    -0.391 OA
HETATM   24  C   UNL     1      40.685 -17.318   5.828  1.00  0.00     0.169 C 
HETATM   25  C   UNL     1      41.944 -17.566   5.003  1.00  0.00     0.049 C 
BRANCH  20  26
HETATM   26  S   UNL     1      43.639 -16.819   2.877  1.00  0.00    -0.118 SA
BRANCH  26  27
HETATM   27  C   UNL     1      43.923 -18.577   2.888  1.00  0.00     0.001 A 
HETATM   28  C   UNL     1      44.558 -19.185   3.975  1.00  0.00     0.018 A 
HETATM   29  C   UNL     1      44.752 -20.567   3.996  1.00  0.00     0.001 A 
HETATM   30  C   UNL     1      44.296 -21.353   2.938  1.00  0.00     0.000 A 
HETATM   31  C   UNL     1      43.636 -20.758   1.865  1.00  0.00     0.001 A 
HETATM   32  C   UNL     1      43.440 -19.375   1.845  1.00  0.00     0.018 A 
ENDBRANCH  26  27
ENDBRANCH  20  26
ENDBRANCH  19  20
ENDBRANCH   2  19
TORSDOF 8
ENDMDL
MODEL 7
REMARK VINA RESULT:      -8.0      5.117      8.970
REMARK  8 active torsions:
REMARK  status: ('A' for Active; 'I' for Inactive)
REMARK    1  A    between atoms: O_2  and  C_3 
REMARK    2  A    between atoms: C_5  and  N_6 
REMARK       I    between atoms: N_6  and  C_7 
REMARK    3  A    between atoms: C_7  and  C_8 
REMARK       I    between atoms: C_8  and  N_9 
REMARK    4  A    between atoms: N_9  and  C_10 
REMARK    5  A    between atoms: C_10  and  C_11 
REMARK    6  A    between atoms: C_11  and  S_12 
REMARK    7  A    between atoms: S_12  and  C_13 
REMARK    8  A    between atoms: C_26  and  O_27 
ROOT
HETATM    1  C   UNL     1      40.435 -16.799   1.987  1.00  0.00     0.309 C 
HETATM    2  N   UNL     1      40.660 -16.696   3.344  1.00  0.00    -0.351 N 
HETATM    3  O   UNL     1      40.677 -17.771   1.286  1.00  0.00    -0.262 OA
HETATM    4  H   UNL     1      40.511 -15.768   3.733  1.00  0.00     0.162 HD
ENDROOT
BRANCH   1   5
HETATM    5  C   UNL     1      39.845 -15.517   1.358  1.00  0.00     0.314 C 
HETATM    6  N   UNL     1      40.412 -15.233   0.139  1.00  0.00    -0.316 N 
HETATM    7  H   UNL     1      41.101 -15.906  -0.198  1.00  0.00     0.169 HD
HETATM    8  O   UNL     1      38.976 -14.911   1.969  1.00  0.00    -0.262 OA
BRANCH   6   9
HETATM    9  C   UNL     1      40.171 -14.141  -0.718  1.00  0.00     0.071 A 
HETATM   10  C   UNL     1      39.177 -14.144  -1.703  1.00  0.00     0.069 A 
HETATM   11  C   UNL     1      38.980 -13.017  -2.504  1.00  0.00     0.070 A 
HETATM   12  C   UNL     1      39.801 -11.900  -2.335  1.00  0.00     0.039 A 
HETATM   13  C   UNL     1      40.795 -11.885  -1.355  1.00  0.00     0.042 A 
HETATM   14  C   UNL     1      40.981 -12.999  -0.536  1.00  0.00     0.095 A 
BRANCH  11  15
HETATM   15  O   UNL     1      38.035 -12.886  -3.486  1.00  0.00    -0.356 OA
HETATM   16  C   UNL     1      37.252 -14.039  -3.770  1.00  0.00     0.210 C 
ENDBRANCH  11  15
BRANCH  14  17
HETATM   17  O   UNL     1      41.917 -13.094   0.466  1.00  0.00    -0.354 OA
HETATM   18  C   UNL     1      41.783 -12.202   1.567  1.00  0.00     0.210 C 
ENDBRANCH  14  17
ENDBRANCH   6   9
ENDBRANCH   1   5
BRANCH   2  19
HETATM   19  C   UNL     1      41.423 -17.695   4.069  1.00  0.00     0.144 C 
BRANCH  19  20
HETATM   20  C   UNL     1      42.887 -17.293   4.438  1.00  0.00     0.033 C 
HETATM   21  C   UNL     1      42.909 -15.795   4.816  1.00  0.00     0.049 C 
HETATM   22  C   UNL     1      42.227 -15.543   6.159  1.00  0.00     0.169 C 
HETATM   23  O   UNL     1      42.803 -16.351   7.182  1.00  0.00    -0.391 OA
HETATM   24  C   UNL     1      42.696 -17.748   6.921  1.00  0.00     0.169 C 
HETATM   25  C   UNL     1      43.423 -18.111   5.630  1.00  0.00     0.049 C 
BRANCH  20  26
HETATM   26  S   UNL     1      43.898 -17.624   2.893  1.00  0.00    -0.118 SA
BRANCH  26  27
HETATM   27  C   UNL     1      44.077 -19.396   2.871  1.00  0.00     0.001 A 
HETATM   28  C   UNL     1      44.740 -20.054   3.910  1.00  0.00     0.018 A 
HETATM   29  C   UNL     1      44.851 -21.446   3.907  1.00  0.00     0.001 A 
HETATM   30  C   UNL     1      44.284 -22.189   2.873  1.00  0.00     0.000 A 
HETATM   31  C   UNL     1      43.595 -21.543   1.849  1.00  0.00     0.001 A 
HETATM   32  C   UNL     1      43.482 -20.150   1.854  1.00  0.00     0.018 A 
ENDBRANCH  26  27
ENDBRANCH  20  26
ENDBRANCH  19  20
ENDBRANCH   2  19
TORSDOF 8
ENDMDL
MODEL 8
REMARK VINA RESULT:      -8.0      5.446      8.576
REMARK  8 active torsions:
REMARK  status: ('A' for Active; 'I' for Inactive)
REMARK    1  A    between atoms: O_2  and  C_3 
REMARK    2  A    between atoms: C_5  and  N_6 
REMARK       I    between atoms: N_6  and  C_7 
REMARK    3  A    between atoms: C_7  and  C_8 
REMARK       I    between atoms: C_8  and  N_9 
REMARK    4  A    between atoms: N_9  and  C_10 
REMARK    5  A    between atoms: C_10  and  C_11 
REMARK    6  A    between atoms: C_11  and  S_12 
REMARK    7  A    between atoms: S_12  and  C_13 
REMARK    8  A    between atoms: C_26  and  O_27 
ROOT
HETATM    1  C   UNL     1      43.215 -14.180   3.079  1.00  0.00     0.309 C 
HETATM    2  N   UNL     1      42.739 -15.375   3.576  1.00  0.00    -0.351 N 
HETATM    3  O   UNL     1      44.201 -13.574   3.474  1.00  0.00    -0.262 OA
HETATM    4  H   UNL     1      41.838 -15.664   3.204  1.00  0.00     0.162 HD
ENDROOT
BRANCH   1   5
HETATM    5  C   UNL     1      42.356 -13.599   1.933  1.00  0.00     0.314 C 
HETATM    6  N   UNL     1      41.504 -14.537   1.402  1.00  0.00    -0.316 N 
HETATM    7  H   UNL     1      41.523 -15.456   1.845  1.00  0.00     0.169 HD
HETATM    8  O   UNL     1      42.506 -12.424   1.626  1.00  0.00    -0.262 OA
BRANCH   6   9
HETATM    9  C   UNL     1      40.599 -14.405   0.330  1.00  0.00     0.071 A 
HETATM   10  C   UNL     1      40.929 -14.711  -0.995  1.00  0.00     0.069 A 
HETATM   11  C   UNL     1      39.975 -14.576  -2.005  1.00  0.00     0.070 A 
HETATM   12  C   UNL     1      38.700 -14.103  -1.689  1.00  0.00     0.039 A 
HETATM   13  C   UNL     1      38.358 -13.796  -0.370  1.00  0.00     0.042 A 
HETATM   14  C   UNL     1      39.300 -13.952   0.647  1.00  0.00     0.095 A 
BRANCH  11  15
HETATM   15  O   UNL     1      40.164 -14.858  -3.331  1.00  0.00    -0.356 OA
HETATM   16  C   UNL     1      39.066 -15.448  -4.017  1.00  0.00     0.210 C 
ENDBRANCH  11  15
BRANCH  14  17
HETATM   17  O   UNL     1      39.074 -13.691   1.978  1.00  0.00    -0.354 OA
HETATM   18  C   UNL     1      38.721 -12.358   2.327  1.00  0.00     0.210 C 
ENDBRANCH  14  17
ENDBRANCH   6   9
ENDBRANCH   1   5
BRANCH   2  19
HETATM   19  C   UNL     1      43.263 -15.955   4.799  1.00  0.00     0.144 C 
BRANCH  19  20
HETATM   20  C   UNL     1      43.361 -17.515   4.821  1.00  0.00     0.033 C 
HETATM   21  C   UNL     1      44.748 -17.916   5.370  1.00  0.00     0.049 C 
HETATM   22  C   UNL     1      44.866 -17.631   6.866  1.00  0.00     0.169 C 
HETATM   23  O   UNL     1      43.812 -18.261   7.589  1.00  0.00    -0.391 OA
HETATM   24  C   UNL     1      42.516 -17.826   7.187  1.00  0.00     0.169 C 
HETATM   25  C   UNL     1      42.274 -18.145   5.715  1.00  0.00     0.049 C 
BRANCH  20  26
HETATM   26  S   UNL     1      43.150 -18.051   3.036  1.00  0.00    -0.118 SA
BRANCH  26  27
HETATM   27  C   UNL     1      43.685 -19.750   3.033  1.00  0.00     0.001 A 
HETATM   28  C   UNL     1      43.528 -20.540   1.891  1.00  0.00     0.018 A 
HETATM   29  C   UNL     1      43.976 -21.862   1.880  1.00  0.00     0.001 A 
HETATM   30  C   UNL     1      44.601 -22.396   3.006  1.00  0.00     0.000 A 
HETATM   31  C   UNL     1      44.789 -21.606   4.138  1.00  0.00     0.001 A 
HETATM   32  C   UNL     1      44.342 -20.282   4.148  1.00  0.00     0.018 A 
ENDBRANCH  26  27
ENDBRANCH  20  26
ENDBRANCH  19  20
ENDBRANCH   2  19
TORSDOF 8
ENDMDL
MODEL 9
REMARK VINA RESULT:      -8.0      6.190     10.244
REMARK  8 active torsions:
REMARK  status: ('A' for Active; 'I' for Inactive)
REMARK    1  A    between atoms: O_2  and  C_3 
REMARK    2  A    between atoms: C_5  and  N_6 
REMARK       I    between atoms: N_6  and  C_7 
REMARK    3  A    between atoms: C_7  and  C_8 
REMARK       I    between atoms: C_8  and  N_9 
REMARK    4  A    between atoms: N_9  and  C_10 
REMARK    5  A    between atoms: C_10  and  C_11 
REMARK    6  A    between atoms: C_11  and  S_12 
REMARK    7  A    between atoms: S_12  and  C_13 
REMARK    8  A    between atoms: C_26  and  O_27 
ROOT
HETATM    1  C   UNL     1      41.689 -16.712   0.637  1.00  0.00     0.309 C 
HETATM    2  N   UNL     1      41.812 -15.497  -0.004  1.00  0.00    -0.351 N 
HETATM    3  O   UNL     1      40.706 -17.438   0.626  1.00  0.00    -0.262 OA
HETATM    4  H   UNL     1      42.658 -14.979   0.220  1.00  0.00     0.162 HD
ENDROOT
BRANCH   1   5
HETATM    5  C   UNL     1      42.942 -17.115   1.446  1.00  0.00     0.314 C 
HETATM    6  N   UNL     1      42.668 -18.100   2.364  1.00  0.00    -0.316 N 
HETATM    7  H   UNL     1      41.710 -18.451   2.366  1.00  0.00     0.169 HD
HETATM    8  O   UNL     1      44.001 -16.552   1.204  1.00  0.00    -0.262 OA
BRANCH   6   9
HETATM    9  C   UNL     1      43.530 -18.699   3.305  1.00  0.00     0.071 A 
HETATM   10  C   UNL     1      43.887 -18.091   4.513  1.00  0.00     0.069 A 
HETATM   11  C   UNL     1      44.731 -18.753   5.408  1.00  0.00     0.070 A 
HETATM   12  C   UNL     1      45.238 -20.009   5.075  1.00  0.00     0.039 A 
HETATM   13  C   UNL     1      44.887 -20.627   3.873  1.00  0.00     0.042 A 
HETATM   14  C   UNL     1      44.026 -19.981   2.985  1.00  0.00     0.095 A 
BRANCH  11  15
HETATM   15  O   UNL     1      45.140 -18.278   6.625  1.00  0.00    -0.356 OA
HETATM   16  C   UNL     1      44.729 -16.958   6.962  1.00  0.00     0.210 C 
ENDBRANCH  11  15
BRANCH  14  17
HETATM   17  O   UNL     1      43.604 -20.494   1.782  1.00  0.00    -0.354 OA
HETATM   18  C   UNL     1      43.922 -21.854   1.509  1.00  0.00     0.210 C 
ENDBRANCH  14  17
ENDBRANCH   6   9
ENDBRANCH   1   5
BRANCH   2  19
HETATM   19  C   UNL     1      40.672 -14.837  -0.613  1.00  0.00     0.144 C 
BRANCH  19  20
HETATM   20  C   UNL     1      40.973 -14.033  -1.919  1.00  0.00     0.033 C 
HETATM   21  C   UNL     1      41.237 -15.034  -3.066  1.00  0.00     0.049 C 
HETATM   22  C   UNL     1      39.957 -15.749  -3.495  1.00  0.00     0.169 C 
HETATM   23  O   UNL     1      38.940 -14.813  -3.838  1.00  0.00    -0.391 OA
HETATM   24  C   UNL     1      38.587 -13.946  -2.762  1.00  0.00     0.169 C 
HETATM   25  C   UNL     1      39.793 -13.124  -2.318  1.00  0.00     0.049 C 
BRANCH  20  26
HETATM   26  S   UNL     1      42.499 -13.013  -1.534  1.00  0.00    -0.118 SA
BRANCH  26  27
HETATM   27  C   UNL     1      42.394 -11.642  -2.665  1.00  0.00     0.001 A 
HETATM   28  C   UNL     1      42.354 -10.330  -2.185  1.00  0.00     0.018 A 
HETATM   29  C   UNL     1      42.303  -9.254  -3.074  1.00  0.00     0.001 A 
HETATM   30  C   UNL     1      42.310  -9.484  -4.449  1.00  0.00     0.000 A 
HETATM   31  C   UNL     1      42.381 -10.787  -4.935  1.00  0.00     0.001 A 
HETATM   32  C   UNL     1      42.434 -11.864  -4.046  1.00  0.00     0.018 A 
ENDBRANCH  26  27
ENDBRANCH  20  26
ENDBRANCH  19  20
ENDBRANCH   2  19
TORSDOF 8
ENDMDL
MODEL 10
REMARK VINA RESULT:      -7.9      4.519      9.066
REMARK  8 active torsions:
REMARK  status: ('A' for Active; 'I' for Inactive)
REMARK    1  A    between atoms: O_2  and  C_3 
REMARK    2  A    between atoms: C_5  and  N_6 
REMARK       I    between atoms: N_6  and  C_7 
REMARK    3  A    between atoms: C_7  and  C_8 
REMARK       I    between atoms: C_8  and  N_9 
REMARK    4  A    between atoms: N_9  and  C_10 
REMARK    5  A    between atoms: C_10  and  C_11 
REMARK    6  A    between atoms: C_11  and  S_12 
REMARK    7  A    between atoms: S_12  and  C_13 
REMARK    8  A    between atoms: C_26  and  O_27 
ROOT
HETATM    1  C   UNL     1      39.859 -13.297   2.697  1.00  0.00     0.309 C 
HETATM    2  N   UNL     1      40.786 -14.231   3.108  1.00  0.00    -0.351 N 
HETATM    3  O   UNL     1      39.158 -12.606   3.423  1.00  0.00    -0.262 OA
HETATM    4  H   UNL     1      41.184 -14.796   2.361  1.00  0.00     0.162 HD
ENDROOT
BRANCH   1   5
HETATM    5  C   UNL     1      39.729 -13.186   1.161  1.00  0.00     0.314 C 
HETATM    6  N   UNL     1      40.835 -13.682   0.514  1.00  0.00    -0.316 N 
HETATM    7  H   UNL     1      41.559 -14.079   1.113  1.00  0.00     0.169 HD
HETATM    8  O   UNL     1      38.710 -12.697   0.693  1.00  0.00    -0.262 OA
BRANCH   6   9
HETATM    9  C   UNL     1      41.109 -13.722  -0.868  1.00  0.00     0.071 A 
HETATM   10  C   UNL     1      40.453 -14.582  -1.755  1.00  0.00     0.069 A 
HETATM   11  C   UNL     1      40.761 -14.553  -3.117  1.00  0.00     0.070 A 
HETATM   12  C   UNL     1      41.749 -13.684  -3.581  1.00  0.00     0.039 A 
HETATM   13  C   UNL     1      42.410 -12.819  -2.706  1.00  0.00     0.042 A 
HETATM   14  C   UNL     1      42.089 -12.826  -1.348  1.00  0.00     0.095 A 
BRANCH  11  15
HETATM   15  O   UNL     1      40.182 -15.326  -4.087  1.00  0.00    -0.356 OA
HETATM   16  C   UNL     1      38.823 -15.694  -3.877  1.00  0.00     0.210 C 
ENDBRANCH  11  15
BRANCH  14  17
HETATM   17  O   UNL     1      42.665 -12.016  -0.398  1.00  0.00    -0.354 OA
HETATM   18  C   UNL     1      42.743 -10.626  -0.692  1.00  0.00     0.210 C 
ENDBRANCH  14  17
ENDBRANCH   6   9
ENDBRANCH   1   5
BRANCH   2  19
HETATM   19  C   UNL     1      40.884 -14.651   4.494  1.00  0.00     0.144 C 
BRANCH  19  20
HETATM   20  C   UNL     1      42.087 -15.589   4.834  1.00  0.00     0.033 C 
HETATM   21  C   UNL     1      43.171 -15.417   3.747  1.00  0.00     0.049 C 
HETATM   22  C   UNL     1      43.865 -14.061   3.853  1.00  0.00     0.169 C 
HETATM   23  O   UNL     1      44.396 -13.861   5.161  1.00  0.00    -0.391 OA
HETATM   24  C   UNL     1      43.401 -13.897   6.182  1.00  0.00     0.169 C 
HETATM   25  C   UNL     1      42.705 -15.254   6.206  1.00  0.00     0.049 C 
BRANCH  20  26
HETATM   26  S   UNL     1      41.380 -17.327   4.828  1.00  0.00    -0.118 SA
BRANCH  26  27
HETATM   27  C   UNL     1      42.738 -18.339   4.277  1.00  0.00     0.001 A 
HETATM   28  C   UNL     1      43.700 -18.788   5.185  1.00  0.00     0.018 A 
HETATM   29  C   UNL     1      44.746 -19.608   4.757  1.00  0.00     0.001 A 
HETATM   30  C   UNL     1      44.826 -19.998   3.421  1.00  0.00     0.000 A 
HETATM   31  C   UNL     1      43.853 -19.579   2.516  1.00  0.00     0.001 A 
HETATM   32  C   UNL     1      42.805 -18.760   2.945  1.00  0.00     0.018 A 
ENDBRANCH  26  27
ENDBRANCH  20  26
ENDBRANCH  19  20
ENDBRANCH   2  19
TORSDOF 8
ENDMDL
