MODEL 1
REMARK VINA RESULT:      -8.7      0.000      0.000
REMARK  7 active torsions:
REMARK  status: ('A' for Active; 'I' for Inactive)
REMARK    1  A    between atoms: C_2  and  C_3 
REMARK    2  A    between atoms: C_3  and  C_4 
REMARK    3  A    between atoms: C_7  and  C_8 
REMARK    4  A    between atoms: C_14  and  C_15 
REMARK    5  A    between atoms: C_18  and  O_19 
REMARK    6  A    between atoms: O_19  and  C_20 
REMARK       I    between atoms: C_20  and  N_21 
REMARK    7  A    between atoms: C_33  and  N_34 
ROOT
HETATM    1  C   UNL     1      41.409 -14.524   4.348  1.00  0.00     0.099 A 
HETATM    2  N   UNL     1      41.835 -14.199   5.584  1.00  0.00    -0.172 NA
HETATM    3  N   UNL     1      41.122 -13.107   5.919  1.00  0.00    -0.256 N 
HETATM    4  H   UNL     1      41.275 -12.682   6.827  1.00  0.00     0.191 HD
HETATM    5  C   UNL     1      40.274 -12.711   4.939  1.00  0.00     0.175 A 
HETATM    6  C   UNL     1      40.420 -13.601   3.905  1.00  0.00     0.040 A 
HETATM    7  C   UNL     1      39.630 -13.410   2.652  1.00  0.00     0.105 A 
HETATM    8  C   UNL     1      38.674 -12.233   2.804  1.00  0.00     0.067 A 
HETATM    9  C   UNL     1      37.634 -12.079   1.705  1.00  0.00     0.020 C 
HETATM   10  N   UNL     1      36.771 -11.950   0.795  1.00  0.00    -0.096 N 
HETATM   11  C   UNL     1      38.627 -11.437   3.905  1.00  0.00     0.139 A 
HETATM   12  O   UNL     1      39.483 -11.645   5.003  1.00  0.00    -0.279 OA
ENDROOT
BRANCH   7  13
HETATM   13  C   UNL     1      40.645 -13.232   1.531  1.00  0.00    -0.044 A 
HETATM   14  C   UNL     1      41.426 -12.063   1.494  1.00  0.00     0.011 A 
HETATM   15  C   UNL     1      42.269 -11.805   0.413  1.00  0.00     0.038 A 
HETATM   16  C   UNL     1      42.354 -12.720  -0.633  1.00  0.00     0.081 A 
HETATM   17  C   UNL     1      41.635 -13.911  -0.593  1.00  0.00     0.038 A 
HETATM   18  C   UNL     1      40.802 -14.174   0.496  1.00  0.00     0.011 A 
BRANCH  16  19
HETATM   19  O   UNL     1      43.071 -12.286  -1.767  1.00  0.00    -0.261 OA
BRANCH  19  20
HETATM   20  C   UNL     1      42.464 -11.825  -2.933  1.00  0.00     0.368 C 
HETATM   21  N   UNL     1      42.592 -10.455  -3.079  1.00  0.00    -0.324 N 
HETATM   22  C   UNL     1      42.129  -9.803  -4.300  1.00  0.00     0.154 C 
HETATM   23  C   UNL     1      43.399  -9.613  -2.194  1.00  0.00     0.154 C 
HETATM   24  C   UNL     1      41.514  -8.436  -3.991  1.00  0.00     0.187 C 
HETATM   25  O   UNL     1      42.419  -7.621  -3.228  1.00  0.00    -0.388 OA
HETATM   26  C   UNL     1      42.731  -8.252  -1.977  1.00  0.00     0.187 C 
HETATM   27  O   UNL     1      41.874 -12.540  -3.736  1.00  0.00    -0.238 OA
ENDBRANCH  19  20
ENDBRANCH  16  19
ENDBRANCH   7  13
BRANCH  11  28
HETATM   28  N   UNL     1      37.761 -10.385   4.094  1.00  0.00    -0.282 NA
HETATM   29  H   UNL     1      37.905  -9.585   3.483  1.00  0.00     0.126 HD
HETATM   30  H   UNL     1      37.685 -10.124   5.074  1.00  0.00     0.126 HD
ENDBRANCH  11  28
BRANCH   1  31
HETATM   31  C   UNL     1      41.996 -15.649   3.619  1.00  0.00    -0.005 A 
HETATM   32  C   UNL     1      43.211 -15.520   2.940  1.00  0.00     0.014 A 
HETATM   33  C   UNL     1      43.800 -16.629   2.322  1.00  0.00     0.008 A 
HETATM   34  C   UNL     1      43.176 -17.883   2.356  1.00  0.00    -0.058 A 
HETATM   35  C   UNL     1      41.936 -17.999   2.992  1.00  0.00     0.008 A 
HETATM   36  C   UNL     1      41.355 -16.894   3.622  1.00  0.00     0.014 A 
BRANCH  34  37
HETATM   37  C   UNL     1      43.833 -19.079   1.705  1.00  0.00     0.042 C 
BRANCH  37  38
HETATM   38  C   UNL     1      43.810 -20.400   2.506  1.00  0.00    -0.019 C 
HETATM   39  C   UNL     1      44.807 -20.416   3.665  1.00  0.00     0.010 C 
HETATM   40  C   UNL     1      44.000 -21.637   1.627  1.00  0.00     0.010 C 
ENDBRANCH  37  38
ENDBRANCH  34  37
ENDBRANCH   1  31
TORSDOF 7
ENDMDL
MODEL 2
REMARK VINA RESULT:      -8.6      3.159      6.688
REMARK  7 active torsions:
REMARK  status: ('A' for Active; 'I' for Inactive)
REMARK    1  A    between atoms: C_2  and  C_3 
REMARK    2  A    between atoms: C_3  and  C_4 
REMARK    3  A    between atoms: C_7  and  C_8 
REMARK    4  A    between atoms: C_14  and  C_15 
REMARK    5  A    between atoms: C_18  and  O_19 
REMARK    6  A    between atoms: O_19  and  C_20 
REMARK       I    between atoms: C_20  and  N_21 
REMARK    7  A    between atoms: C_33  and  N_34 
ROOT
HETATM    1  C   UNL     1      39.462 -14.690   1.390  1.00  0.00     0.099 A 
HETATM    2  N   UNL     1      38.183 -15.106   1.321  1.00  0.00    -0.172 NA
HETATM    3  N   UNL     1      37.459 -13.979   1.186  1.00  0.00    -0.256 N 
HETATM    4  H   UNL     1      36.450 -14.051   1.110  1.00  0.00     0.191 HD
HETATM    5  C   UNL     1      38.223 -12.860   1.186  1.00  0.00     0.175 A 
HETATM    6  C   UNL     1      39.527 -13.269   1.310  1.00  0.00     0.040 A 
HETATM    7  C   UNL     1      40.616 -12.250   1.373  1.00  0.00     0.105 A 
HETATM    8  C   UNL     1      40.043 -10.851   1.180  1.00  0.00     0.067 A 
HETATM    9  C   UNL     1      41.061  -9.741   0.969  1.00  0.00     0.020 C 
HETATM   10  N   UNL     1      41.905  -8.821   0.795  1.00  0.00    -0.096 N 
HETATM   11  C   UNL     1      38.714 -10.592   1.053  1.00  0.00     0.139 A 
HETATM   12  O   UNL     1      37.754 -11.619   1.101  1.00  0.00    -0.279 OA
ENDROOT
BRANCH   7  13
HETATM   13  C   UNL     1      41.308 -12.447   2.714  1.00  0.00    -0.044 A 
HETATM   14  C   UNL     1      42.526 -13.149   2.759  1.00  0.00     0.011 A 
HETATM   15  C   UNL     1      43.123 -13.461   3.981  1.00  0.00     0.038 A 
HETATM   16  C   UNL     1      42.516 -13.061   5.169  1.00  0.00     0.081 A 
HETATM   17  C   UNL     1      41.341 -12.317   5.151  1.00  0.00     0.038 A 
HETATM   18  C   UNL     1      40.754 -11.993   3.926  1.00  0.00     0.011 A 
BRANCH  16  19
HETATM   19  O   UNL     1      43.080 -13.591   6.349  1.00  0.00    -0.261 OA
BRANCH  19  20
HETATM   20  C   UNL     1      44.189 -14.434   6.363  1.00  0.00     0.368 C 
HETATM   21  N   UNL     1      43.827 -15.767   6.452  1.00  0.00    -0.324 N 
HETATM   22  C   UNL     1      44.845 -16.808   6.354  1.00  0.00     0.154 C 
HETATM   23  C   UNL     1      42.444 -16.242   6.384  1.00  0.00     0.154 C 
HETATM   24  C   UNL     1      44.529 -17.973   7.295  1.00  0.00     0.187 C 
HETATM   25  O   UNL     1      43.196 -18.467   7.079  1.00  0.00    -0.388 OA
HETATM   26  C   UNL     1      42.231 -17.433   7.323  1.00  0.00     0.187 C 
HETATM   27  O   UNL     1      45.352 -14.049   6.314  1.00  0.00    -0.238 OA
ENDBRANCH  19  20
ENDBRANCH  16  19
ENDBRANCH   7  13
BRANCH  11  28
HETATM   28  N   UNL     1      38.160  -9.350   0.849  1.00  0.00    -0.282 NA
HETATM   29  H   UNL     1      38.797  -8.638   0.500  1.00  0.00     0.126 HD
HETATM   30  H   UNL     1      37.620  -9.035   1.652  1.00  0.00     0.126 HD
ENDBRANCH  11  28
BRANCH   1  31
HETATM   31  C   UNL     1      40.556 -15.641   1.590  1.00  0.00    -0.005 A 
HETATM   32  C   UNL     1      41.481 -15.910   0.576  1.00  0.00     0.014 A 
HETATM   33  C   UNL     1      42.569 -16.756   0.816  1.00  0.00     0.008 A 
HETATM   34  C   UNL     1      42.744 -17.363   2.067  1.00  0.00    -0.058 A 
HETATM   35  C   UNL     1      41.790 -17.133   3.063  1.00  0.00     0.008 A 
HETATM   36  C   UNL     1      40.710 -16.276   2.829  1.00  0.00     0.014 A 
BRANCH  34  37
HETATM   37  C   UNL     1      43.937 -18.256   2.319  1.00  0.00     0.042 C 
BRANCH  37  38
HETATM   38  C   UNL     1      43.641 -19.645   2.929  1.00  0.00    -0.019 C 
HETATM   39  C   UNL     1      44.584 -20.008   4.077  1.00  0.00     0.010 C 
HETATM   40  C   UNL     1      43.621 -20.764   1.886  1.00  0.00     0.010 C 
ENDBRANCH  37  38
ENDBRANCH  34  37
ENDBRANCH   1  31
TORSDOF 7
ENDMDL
MODEL 3
REMARK VINA RESULT:      -8.4      3.128      8.180
REMARK  7 active torsions:
REMARK  status: ('A' for Active; 'I' for Inactive)
REMARK    1  A    between atoms: C_2  and  C_3 
REMARK    2  A    between atoms: C_3  and  C_4 
REMARK    3  A    between atoms: C_7  and  C_8 
REMARK    4  A    between atoms: C_14  and  C_15 
REMARK    5  A    between atoms: C_18  and  O_19 
REMARK    6  A    between atoms: O_19  and  C_20 
REMARK       I    between atoms: C_20  and  N_21 
REMARK    7  A    between atoms: C_33  and  N_34 
ROOT
HETATM    1  C   UNL     1      39.831 -11.913   2.303  1.00  0.00     0.099 A 
HETATM    2  N   UNL     1      38.548 -11.506   2.255  1.00  0.00    -0.172 NA
HETATM    3  N   UNL     1      38.166 -11.414   3.543  1.00  0.00    -0.256 N 
HETATM    4  H   UNL     1      37.220 -11.115   3.753  1.00  0.00     0.191 HD
HETATM    5  C   UNL     1      39.147 -11.765   4.409  1.00  0.00     0.175 A 
HETATM    6  C   UNL     1      40.246 -12.090   3.654  1.00  0.00     0.040 A 
HETATM    7  C   UNL     1      41.493 -12.553   4.330  1.00  0.00     0.105 A 
HETATM    8  C   UNL     1      41.331 -12.483   5.844  1.00  0.00     0.067 A 
HETATM    9  C   UNL     1      42.602 -12.684   6.656  1.00  0.00     0.020 C 
HETATM   10  N   UNL     1      43.654 -12.849   7.330  1.00  0.00    -0.096 N 
HETATM   11  C   UNL     1      40.175 -12.125   6.463  1.00  0.00     0.139 A 
HETATM   12  O   UNL     1      39.019 -11.794   5.732  1.00  0.00    -0.279 OA
ENDROOT
BRANCH   7  13
HETATM   13  C   UNL     1      41.766 -13.958   3.810  1.00  0.00    -0.044 A 
HETATM   14  C   UNL     1      40.837 -14.979   4.078  1.00  0.00     0.011 A 
HETATM   15  C   UNL     1      41.114 -16.302   3.732  1.00  0.00     0.038 A 
HETATM   16  C   UNL     1      42.315 -16.614   3.099  1.00  0.00     0.081 A 
HETATM   17  C   UNL     1      43.225 -15.615   2.771  1.00  0.00     0.038 A 
HETATM   18  C   UNL     1      42.939 -14.289   3.105  1.00  0.00     0.011 A 
BRANCH  16  19
HETATM   19  O   UNL     1      42.596 -17.990   2.970  1.00  0.00    -0.261 OA
BRANCH  19  20
HETATM   20  C   UNL     1      43.426 -18.693   3.840  1.00  0.00     0.368 C 
HETATM   21  N   UNL     1      43.911 -19.856   3.269  1.00  0.00    -0.324 N 
HETATM   22  C   UNL     1      44.897 -20.664   3.981  1.00  0.00     0.154 C 
HETATM   23  C   UNL     1      43.701 -20.226   1.869  1.00  0.00     0.154 C 
HETATM   24  C   UNL     1      44.652 -22.157   3.749  1.00  0.00     0.187 C 
HETATM   25  O   UNL     1      44.585 -22.459   2.346  1.00  0.00    -0.388 OA
HETATM   26  C   UNL     1      43.509 -21.739   1.726  1.00  0.00     0.187 C 
HETATM   27  O   UNL     1      43.692 -18.337   4.983  1.00  0.00    -0.238 OA
ENDBRANCH  19  20
ENDBRANCH  16  19
ENDBRANCH   7  13
BRANCH  11  28
HETATM   28  N   UNL     1      39.997 -12.021   7.823  1.00  0.00    -0.282 NA
HETATM   29  H   UNL     1      40.724 -11.516   8.322  1.00  0.00     0.126 HD
HETATM   30  H   UNL     1      39.777 -12.919   8.249  1.00  0.00     0.126 HD
ENDBRANCH  11  28
BRANCH   1  31
HETATM   31  C   UNL     1      40.586 -12.176   1.078  1.00  0.00    -0.005 A 
HETATM   32  C   UNL     1      40.408 -13.358   0.353  1.00  0.00     0.014 A 
HETATM   33  C   UNL     1      41.074 -13.553  -0.862  1.00  0.00     0.008 A 
HETATM   34  C   UNL     1      41.945 -12.578  -1.366  1.00  0.00    -0.058 A 
HETATM   35  C   UNL     1      42.162 -11.418  -0.615  1.00  0.00     0.008 A 
HETATM   36  C   UNL     1      41.485 -11.217   0.592  1.00  0.00     0.014 A 
BRANCH  34  37
HETATM   37  C   UNL     1      42.641 -12.790  -2.691  1.00  0.00     0.042 C 
BRANCH  37  38
HETATM   38  C   UNL     1      42.016 -12.088  -3.918  1.00  0.00    -0.019 C 
HETATM   39  C   UNL     1      42.565 -10.679  -4.146  1.00  0.00     0.010 C 
HETATM   40  C   UNL     1      40.488 -12.061  -3.879  1.00  0.00     0.010 C 
ENDBRANCH  37  38
ENDBRANCH  34  37
ENDBRANCH   1  31
TORSDOF 7
ENDMDL
MODEL 4
REMARK VINA RESULT:      -8.4      3.825      7.053
REMARK  7 active torsions:
REMARK  status: ('A' for Active; 'I' for Inactive)
REMARK    1  A    between atoms: C_2  and  C_3 
REMARK    2  A    between atoms: C_3  and  C_4 
REMARK    3  A    between atoms: C_7  and  C_8 
REMARK    4  A    between atoms: C_14  and  C_15 
REMARK    5  A    between atoms: C_18  and  O_19 
REMARK    6  A    between atoms: O_19  and  C_20 
REMARK       I    between atoms: C_20  and  N_21 
REMARK    7  A    between atoms: C_33  and  N_34 
ROOT
HETATM    1  C   UNL     1      38.686 -13.259   1.297  1.00  0.00     0.099 A 
HETATM    2  N   UNL     1      37.443 -13.251   0.775  1.00  0.00    -0.172 NA
HETATM    3  N   UNL     1      36.902 -12.091   1.191  1.00  0.00    -0.256 N 
HETATM    4  H   UNL     1      35.954 -11.865   0.909  1.00  0.00     0.191 HD
HETATM    5  C   UNL     1      37.740 -11.369   1.972  1.00  0.00     0.175 A 
HETATM    6  C   UNL     1      38.909 -12.081   2.065  1.00  0.00     0.040 A 
HETATM    7  C   UNL     1      40.030 -11.552   2.897  1.00  0.00     0.105 A 
HETATM    8  C   UNL     1      39.675 -10.176   3.450  1.00  0.00     0.067 A 
HETATM    9  C   UNL     1      40.815  -9.410   4.103  1.00  0.00     0.020 C 
HETATM   10  N   UNL     1      41.759  -8.775   4.645  1.00  0.00    -0.096 N 
HETATM   11  C   UNL     1      38.468  -9.578   3.264  1.00  0.00     0.139 A 
HETATM   12  O   UNL     1      37.438 -10.204   2.538  1.00  0.00    -0.279 OA
ENDROOT
BRANCH   7  13
HETATM   13  C   UNL     1      40.292 -12.594   3.975  1.00  0.00    -0.044 A 
HETATM   14  C   UNL     1      41.508 -13.301   3.963  1.00  0.00     0.011 A 
HETATM   15  C   UNL     1      41.730 -14.351   4.853  1.00  0.00     0.038 A 
HETATM   16  C   UNL     1      40.745 -14.696   5.775  1.00  0.00     0.081 A 
HETATM   17  C   UNL     1      39.556 -13.977   5.845  1.00  0.00     0.038 A 
HETATM   18  C   UNL     1      39.342 -12.916   4.963  1.00  0.00     0.011 A 
BRANCH  16  19
HETATM   19  O   UNL     1      40.972 -15.889   6.492  1.00  0.00    -0.261 OA
BRANCH  19  20
HETATM   20  C   UNL     1      41.374 -17.083   5.896  1.00  0.00     0.368 C 
HETATM   21  N   UNL     1      42.644 -17.460   6.294  1.00  0.00    -0.324 N 
HETATM   22  C   UNL     1      43.189 -18.747   5.873  1.00  0.00     0.154 C 
HETATM   23  C   UNL     1      43.411 -16.771   7.333  1.00  0.00     0.154 C 
HETATM   24  C   UNL     1      44.689 -18.639   5.587  1.00  0.00     0.187 C 
HETATM   25  O   UNL     1      45.390 -18.070   6.705  1.00  0.00    -0.388 OA
HETATM   26  C   UNL     1      44.903 -16.749   6.985  1.00  0.00     0.187 C 
HETATM   27  O   UNL     1      40.694 -17.724   5.102  1.00  0.00    -0.238 OA
ENDBRANCH  19  20
ENDBRANCH  16  19
ENDBRANCH   7  13
BRANCH  11  28
HETATM   28  N   UNL     1      38.119  -8.328   3.720  1.00  0.00    -0.282 NA
HETATM   29  H   UNL     1      37.413  -7.843   3.170  1.00  0.00     0.126 HD
HETATM   30  H   UNL     1      38.934  -7.750   3.911  1.00  0.00     0.126 HD
ENDBRANCH  11  28
BRANCH   1  31
HETATM   31  C   UNL     1      39.580 -14.401   1.101  1.00  0.00    -0.005 A 
HETATM   32  C   UNL     1      40.601 -14.370   0.147  1.00  0.00     0.014 A 
HETATM   33  C   UNL     1      41.500 -15.437   0.035  1.00  0.00     0.008 A 
HETATM   34  C   UNL     1      41.382 -16.562   0.861  1.00  0.00    -0.058 A 
HETATM   35  C   UNL     1      40.329 -16.615   1.779  1.00  0.00     0.008 A 
HETATM   36  C   UNL     1      39.440 -15.542   1.902  1.00  0.00     0.014 A 
BRANCH  34  37
HETATM   37  C   UNL     1      42.373 -17.698   0.745  1.00  0.00     0.042 C 
BRANCH  37  38
HETATM   38  C   UNL     1      43.695 -17.543   1.531  1.00  0.00    -0.019 C 
HETATM   39  C   UNL     1      44.239 -18.872   2.056  1.00  0.00     0.010 C 
HETATM   40  C   UNL     1      43.600 -16.524   2.668  1.00  0.00     0.010 C 
ENDBRANCH  37  38
ENDBRANCH  34  37
ENDBRANCH   1  31
TORSDOF 7
ENDMDL
MODEL 5
REMARK VINA RESULT:      -8.2      2.473      6.525
REMARK  7 active torsions:
REMARK  status: ('A' for Active; 'I' for Inactive)
REMARK    1  A    between atoms: C_2  and  C_3 
REMARK    2  A    between atoms: C_3  and  C_4 
REMARK    3  A    between atoms: C_7  and  C_8 
REMARK    4  A    between atoms: C_14  and  C_15 
REMARK    5  A    between atoms: C_18  and  O_19 
REMARK    6  A    between atoms: O_19  and  C_20 
REMARK       I    between atoms: C_20  and  N_21 
REMARK    7  A    between atoms: C_33  and  N_34 
ROOT
HETATM    1  C   UNL     1      41.350 -15.901  -0.496  1.00  0.00     0.099 A 
HETATM    2  N   UNL     1      40.699 -16.599  -1.447  1.00  0.00    -0.172 NA
HETATM    3  N   UNL     1      40.475 -15.711  -2.435  1.00  0.00    -0.256 N 
HETATM    4  H   UNL     1      39.992 -16.022  -3.271  1.00  0.00     0.191 HD
HETATM    5  C   UNL     1      40.938 -14.472  -2.144  1.00  0.00     0.175 A 
HETATM    6  C   UNL     1      41.518 -14.546  -0.903  1.00  0.00     0.040 A 
HETATM    7  C   UNL     1      42.099 -13.317  -0.287  1.00  0.00     0.105 A 
HETATM    8  C   UNL     1      42.017 -12.147  -1.261  1.00  0.00     0.067 A 
HETATM    9  C   UNL     1      42.795 -10.901  -0.867  1.00  0.00     0.020 C 
HETATM   10  N   UNL     1      43.439  -9.868  -0.542  1.00  0.00    -0.096 N 
HETATM   11  C   UNL     1      41.419 -12.223  -2.480  1.00  0.00     0.139 A 
HETATM   12  O   UNL     1      40.814 -13.410  -2.933  1.00  0.00    -0.279 OA
ENDROOT
BRANCH   7  13
HETATM   13  C   UNL     1      41.335 -13.086   1.010  1.00  0.00    -0.044 A 
HETATM   14  C   UNL     1      39.950 -12.847   0.954  1.00  0.00     0.011 A 
HETATM   15  C   UNL     1      39.241 -12.502   2.105  1.00  0.00     0.038 A 
HETATM   16  C   UNL     1      39.906 -12.409   3.326  1.00  0.00     0.081 A 
HETATM   17  C   UNL     1      41.264 -12.696   3.417  1.00  0.00     0.038 A 
HETATM   18  C   UNL     1      41.969 -13.055   2.267  1.00  0.00     0.011 A 
BRANCH  16  19
HETATM   19  O   UNL     1      39.156 -11.863   4.388  1.00  0.00    -0.261 OA
BRANCH  19  20
HETATM   20  C   UNL     1      39.471 -12.054   5.732  1.00  0.00     0.368 C 
HETATM   21  N   UNL     1      40.079 -10.941   6.286  1.00  0.00    -0.324 N 
HETATM   22  C   UNL     1      40.371 -10.903   7.715  1.00  0.00     0.154 C 
HETATM   23  C   UNL     1      40.233  -9.665   5.586  1.00  0.00     0.154 C 
HETATM   24  C   UNL     1      41.698 -10.189   7.984  1.00  0.00     0.187 C 
HETATM   25  O   UNL     1      41.721  -8.890   7.371  1.00  0.00    -0.388 OA
HETATM   26  C   UNL     1      41.566  -9.002   5.948  1.00  0.00     0.187 C 
HETATM   27  O   UNL     1      39.250 -13.086   6.355  1.00  0.00    -0.238 OA
ENDBRANCH  19  20
ENDBRANCH  16  19
ENDBRANCH   7  13
BRANCH  11  28
HETATM   28  N   UNL     1      41.350 -11.202  -3.399  1.00  0.00    -0.282 NA
HETATM   29  H   UNL     1      40.421 -11.005  -3.765  1.00  0.00     0.126 HD
HETATM   30  H   UNL     1      42.049 -11.300  -4.132  1.00  0.00     0.126 HD
ENDBRANCH  11  28
BRANCH   1  31
HETATM   31  C   UNL     1      41.728 -16.524   0.773  1.00  0.00    -0.005 A 
HETATM   32  C   UNL     1      43.019 -17.015   0.986  1.00  0.00     0.014 A 
HETATM   33  C   UNL     1      43.385 -17.528   2.236  1.00  0.00     0.008 A 
HETATM   34  C   UNL     1      42.462 -17.577   3.289  1.00  0.00    -0.058 A 
HETATM   35  C   UNL     1      41.156 -17.132   3.058  1.00  0.00     0.008 A 
HETATM   36  C   UNL     1      40.795 -16.606   1.814  1.00  0.00     0.014 A 
BRANCH  34  37
HETATM   37  C   UNL     1      42.877 -18.112   4.640  1.00  0.00     0.042 C 
BRANCH  37  38
HETATM   38  C   UNL     1      44.346 -18.570   4.779  1.00  0.00    -0.019 C 
HETATM   39  C   UNL     1      44.530 -20.071   4.547  1.00  0.00     0.010 C 
HETATM   40  C   UNL     1      44.978 -18.159   6.110  1.00  0.00     0.010 C 
ENDBRANCH  37  38
ENDBRANCH  34  37
ENDBRANCH   1  31
TORSDOF 7
ENDMDL
MODEL 6
REMARK VINA RESULT:      -7.9      2.747      6.976
REMARK  7 active torsions:
REMARK  status: ('A' for Active; 'I' for Inactive)
REMARK    1  A    between atoms: C_2  and  C_3 
REMARK    2  A    between atoms: C_3  and  C_4 
REMARK    3  A    between atoms: C_7  and  C_8 
REMARK    4  A    between atoms: C_14  and  C_15 
REMARK    5  A    between atoms: C_18  and  O_19 
REMARK    6  A    between atoms: O_19  and  C_20 
REMARK       I    between atoms: C_20  and  N_21 
REMARK    7  A    between atoms: C_33  and  N_34 
ROOT
HETATM    1  C   UNL     1      41.271 -15.907  -0.490  1.00  0.00     0.099 A 
HETATM    2  N   UNL     1      40.359 -16.462  -1.312  1.00  0.00    -0.172 NA
HETATM    3  N   UNL     1      39.863 -15.431  -2.023  1.00  0.00    -0.256 N 
HETATM    4  H   UNL     1      39.150 -15.617  -2.720  1.00  0.00     0.191 HD
HETATM    5  C   UNL     1      40.406 -14.241  -1.672  1.00  0.00     0.175 A 
HETATM    6  C   UNL     1      41.327 -14.499  -0.688  1.00  0.00     0.040 A 
HETATM    7  C   UNL     1      42.079 -13.368  -0.069  1.00  0.00     0.105 A 
HETATM    8  C   UNL     1      41.725 -12.056  -0.760  1.00  0.00     0.067 A 
HETATM    9  C   UNL     1      42.599 -10.863  -0.404  1.00  0.00     0.020 C 
HETATM   10  N   UNL     1      43.323  -9.874  -0.110  1.00  0.00    -0.096 N 
HETATM   11  C   UNL     1      40.792 -11.950  -1.744  1.00  0.00     0.139 A 
HETATM   12  O   UNL     1      40.067 -13.067  -2.196  1.00  0.00    -0.279 OA
ENDROOT
BRANCH   7  13
HETATM   13  C   UNL     1      41.736 -13.387   1.414  1.00  0.00    -0.044 A 
HETATM   14  C   UNL     1      42.779 -13.408   2.358  1.00  0.00     0.011 A 
HETATM   15  C   UNL     1      42.506 -13.558   3.717  1.00  0.00     0.038 A 
HETATM   16  C   UNL     1      41.187 -13.673   4.149  1.00  0.00     0.081 A 
HETATM   17  C   UNL     1      40.134 -13.598   3.243  1.00  0.00     0.038 A 
HETATM   18  C   UNL     1      40.409 -13.433   1.884  1.00  0.00     0.011 A 
BRANCH  16  19
HETATM   19  O   UNL     1      41.018 -14.021   5.506  1.00  0.00    -0.261 OA
BRANCH  19  20
HETATM   20  C   UNL     1      40.893 -15.334   5.955  1.00  0.00     0.368 C 
HETATM   21  N   UNL     1      42.072 -15.810   6.501  1.00  0.00    -0.324 N 
HETATM   22  C   UNL     1      42.104 -17.122   7.138  1.00  0.00     0.154 C 
HETATM   23  C   UNL     1      43.261 -14.985   6.720  1.00  0.00     0.154 C 
HETATM   24  C   UNL     1      43.430 -17.834   6.860  1.00  0.00     0.187 C 
HETATM   25  O   UNL     1      44.548 -17.007   7.220  1.00  0.00    -0.388 OA
HETATM   26  C   UNL     1      44.539 -15.789   6.461  1.00  0.00     0.187 C 
HETATM   27  O   UNL     1      39.867 -16.000   5.870  1.00  0.00    -0.238 OA
ENDBRANCH  19  20
ENDBRANCH  16  19
ENDBRANCH   7  13
BRANCH  11  28
HETATM   28  N   UNL     1      40.466 -10.793  -2.412  1.00  0.00    -0.282 NA
HETATM   29  H   UNL     1      40.391 -10.878  -3.423  1.00  0.00     0.126 HD
HETATM   30  H   UNL     1      41.048 -10.009  -2.125  1.00  0.00     0.126 HD
ENDBRANCH  11  28
BRANCH   1  31
HETATM   31  C   UNL     1      42.000 -16.719   0.486  1.00  0.00    -0.005 A 
HETATM   32  C   UNL     1      43.357 -17.010   0.320  1.00  0.00     0.014 A 
HETATM   33  C   UNL     1      44.057 -17.714   1.307  1.00  0.00     0.008 A 
HETATM   34  C   UNL     1      43.409 -18.155   2.468  1.00  0.00    -0.058 A 
HETATM   35  C   UNL     1      42.040 -17.907   2.609  1.00  0.00     0.008 A 
HETATM   36  C   UNL     1      41.344 -17.192   1.630  1.00  0.00     0.014 A 
BRANCH  34  37
HETATM   37  C   UNL     1      44.182 -18.893   3.537  1.00  0.00     0.042 C 
BRANCH  37  38
HETATM   38  C   UNL     1      44.735 -20.284   3.152  1.00  0.00    -0.019 C 
HETATM   39  C   UNL     1      43.841 -21.032   2.162  1.00  0.00     0.010 C 
HETATM   40  C   UNL     1      45.036 -21.166   4.365  1.00  0.00     0.010 C 
ENDBRANCH  37  38
ENDBRANCH  34  37
ENDBRANCH   1  31
TORSDOF 7
ENDMDL
MODEL 7
REMARK VINA RESULT:      -7.9      4.299      8.339
REMARK  7 active torsions:
REMARK  status: ('A' for Active; 'I' for Inactive)
REMARK    1  A    between atoms: C_2  and  C_3 
REMARK    2  A    between atoms: C_3  and  C_4 
REMARK    3  A    between atoms: C_7  and  C_8 
REMARK    4  A    between atoms: C_14  and  C_15 
REMARK    5  A    between atoms: C_18  and  O_19 
REMARK    6  A    between atoms: O_19  and  C_20 
REMARK       I    between atoms: C_20  and  N_21 
REMARK    7  A    between atoms: C_33  and  N_34 
ROOT
HETATM    1  C   UNL     1      41.201 -15.370   3.517  1.00  0.00     0.099 A 
HETATM    2  N   UNL     1      40.815 -16.641   3.285  1.00  0.00    -0.172 NA
HETATM    3  N   UNL     1      39.748 -16.534   2.471  1.00  0.00    -0.256 N 
HETATM    4  H   UNL     1      39.287 -17.381   2.157  1.00  0.00     0.191 HD
HETATM    5  C   UNL     1      39.425 -15.248   2.192  1.00  0.00     0.175 A 
HETATM    6  C   UNL     1      40.341 -14.459   2.841  1.00  0.00     0.040 A 
HETATM    7  C   UNL     1      40.228 -12.973   2.750  1.00  0.00     0.105 A 
HETATM    8  C   UNL     1      39.093 -12.585   1.810  1.00  0.00     0.067 A 
HETATM    9  C   UNL     1      39.024 -11.115   1.425  1.00  0.00     0.020 C 
HETATM   10  N   UNL     1      38.967  -9.898   1.107  1.00  0.00    -0.096 N 
HETATM   11  C   UNL     1      38.265 -13.486   1.217  1.00  0.00     0.139 A 
HETATM   12  O   UNL     1      38.396 -14.869   1.442  1.00  0.00    -0.279 OA
ENDROOT
BRANCH   7  13
HETATM   13  C   UNL     1      40.039 -12.471   4.175  1.00  0.00    -0.044 A 
HETATM   14  C   UNL     1      40.860 -11.431   4.648  1.00  0.00     0.011 A 
HETATM   15  C   UNL     1      40.806 -11.034   5.984  1.00  0.00     0.038 A 
HETATM   16  C   UNL     1      39.919 -11.660   6.857  1.00  0.00     0.081 A 
HETATM   17  C   UNL     1      39.056 -12.651   6.401  1.00  0.00     0.038 A 
HETATM   18  C   UNL     1      39.102 -13.038   5.060  1.00  0.00     0.011 A 
BRANCH  16  19
HETATM   19  O   UNL     1      40.074 -11.335   8.221  1.00  0.00    -0.261 OA
BRANCH  19  20
HETATM   20  C   UNL     1      39.389 -10.297   8.849  1.00  0.00     0.368 C 
HETATM   21  N   UNL     1      39.799 -10.123  10.159  1.00  0.00    -0.324 N 
HETATM   22  C   UNL     1      39.286  -9.004  10.943  1.00  0.00     0.154 C 
HETATM   23  C   UNL     1      40.923 -10.841  10.764  1.00  0.00     0.154 C 
HETATM   24  C   UNL     1      39.066  -9.413  12.402  1.00  0.00     0.187 C 
HETATM   25  O   UNL     1      40.256  -9.992  12.962  1.00  0.00    -0.388 OA
HETATM   26  C   UNL     1      40.634 -11.169  12.232  1.00  0.00     0.187 C 
HETATM   27  O   UNL     1      38.516  -9.621   8.316  1.00  0.00    -0.238 OA
ENDBRANCH  19  20
ENDBRANCH  16  19
ENDBRANCH   7  13
BRANCH  11  28
HETATM   28  N   UNL     1      37.250 -13.180   0.340  1.00  0.00    -0.282 NA
HETATM   29  H   UNL     1      37.001 -13.916  -0.316  1.00  0.00     0.126 HD
HETATM   30  H   UNL     1      37.396 -12.281  -0.113  1.00  0.00     0.126 HD
ENDBRANCH  11  28
BRANCH   1  31
HETATM   31  C   UNL     1      42.320 -15.073   4.412  1.00  0.00    -0.005 A 
HETATM   32  C   UNL     1      43.338 -14.191   4.036  1.00  0.00     0.014 A 
HETATM   33  C   UNL     1      44.352 -13.853   4.938  1.00  0.00     0.008 A 
HETATM   34  C   UNL     1      44.379 -14.403   6.227  1.00  0.00    -0.058 A 
HETATM   35  C   UNL     1      43.389 -15.324   6.584  1.00  0.00     0.008 A 
HETATM   36  C   UNL     1      42.367 -15.651   5.687  1.00  0.00     0.014 A 
BRANCH  34  37
HETATM   37  C   UNL     1      45.467 -14.011   7.200  1.00  0.00     0.042 C 
BRANCH  37  38
HETATM   38  C   UNL     1      45.358 -12.602   7.825  1.00  0.00    -0.019 C 
HETATM   39  C   UNL     1      46.718 -11.939   8.047  1.00  0.00     0.010 C 
HETATM   40  C   UNL     1      44.543 -12.582   9.119  1.00  0.00     0.010 C 
ENDBRANCH  37  38
ENDBRANCH  34  37
ENDBRANCH   1  31
TORSDOF 7
ENDMDL
MODEL 8
REMARK VINA RESULT:      -7.8      3.789      7.840
REMARK  7 active torsions:
REMARK  status: ('A' for Active; 'I' for Inactive)
REMARK    1  A    between atoms: C_2  and  C_3 
REMARK    2  A    between atoms: C_3  and  C_4 
REMARK    3  A    between atoms: C_7  and  C_8 
REMARK    4  A    between atoms: C_14  and  C_15 
REMARK    5  A    between atoms: C_18  and  O_19 
REMARK    6  A    between atoms: O_19  and  C_20 
REMARK       I    between atoms: C_20  and  N_21 
REMARK    7  A    between atoms: C_33  and  N_34 
ROOT
HETATM    1  C   UNL     1      39.581 -11.772   3.573  1.00  0.00     0.099 A 
HETATM    2  N   UNL     1      38.321 -11.306   3.458  1.00  0.00    -0.172 NA
HETATM    3  N   UNL     1      38.031 -10.791   4.668  1.00  0.00    -0.256 N 
HETATM    4  H   UNL     1      37.119 -10.373   4.815  1.00  0.00     0.191 HD
HETATM    5  C   UNL     1      39.046 -10.929   5.555  1.00  0.00     0.175 A 
HETATM    6  C   UNL     1      40.072 -11.552   4.891  1.00  0.00     0.040 A 
HETATM    7  C   UNL     1      41.333 -11.874   5.622  1.00  0.00     0.105 A 
HETATM    8  C   UNL     1      41.276 -11.327   7.044  1.00  0.00     0.067 A 
HETATM    9  C   UNL     1      42.584 -11.360   7.819  1.00  0.00     0.020 C 
HETATM   10  N   UNL     1      43.667 -11.386   8.463  1.00  0.00    -0.096 N 
HETATM   11  C   UNL     1      40.185 -10.710   7.570  1.00  0.00     0.139 A 
HETATM   12  O   UNL     1      39.004 -10.536   6.824  1.00  0.00    -0.279 OA
ENDROOT
BRANCH   7  13
HETATM   13  C   UNL     1      41.491 -13.387   5.556  1.00  0.00    -0.044 A 
HETATM   14  C   UNL     1      42.673 -13.929   5.020  1.00  0.00     0.011 A 
HETATM   15  C   UNL     1      42.800 -15.304   4.823  1.00  0.00     0.038 A 
HETATM   16  C   UNL     1      41.754 -16.153   5.176  1.00  0.00     0.081 A 
HETATM   17  C   UNL     1      40.597 -15.648   5.760  1.00  0.00     0.038 A 
HETATM   18  C   UNL     1      40.478 -14.273   5.970  1.00  0.00     0.011 A 
BRANCH  16  19
HETATM   19  O   UNL     1      41.890 -17.494   4.758  1.00  0.00    -0.261 OA
BRANCH  19  20
HETATM   20  C   UNL     1      42.838 -18.371   5.280  1.00  0.00     0.368 C 
HETATM   21  N   UNL     1      43.520 -19.050   4.285  1.00  0.00    -0.324 N 
HETATM   22  C   UNL     1      44.638 -19.922   4.630  1.00  0.00     0.154 C 
HETATM   23  C   UNL     1      43.370 -18.767   2.856  1.00  0.00     0.154 C 
HETATM   24  C   UNL     1      44.662 -21.161   3.732  1.00  0.00     0.187 C 
HETATM   25  O   UNL     1      44.642 -20.796   2.343  1.00  0.00    -0.388 OA
HETATM   26  C   UNL     1      43.451 -20.057   2.034  1.00  0.00     0.187 C 
HETATM   27  O   UNL     1      43.042 -18.539   6.477  1.00  0.00    -0.238 OA
ENDBRANCH  19  20
ENDBRANCH  16  19
ENDBRANCH   7  13
BRANCH  11  28
HETATM   28  N   UNL     1      40.102 -10.177   8.835  1.00  0.00    -0.282 NA
HETATM   29  H   UNL     1      40.972  -9.805   9.211  1.00  0.00     0.126 HD
HETATM   30  H   UNL     1      39.629 -10.802   9.483  1.00  0.00     0.126 HD
ENDBRANCH  11  28
BRANCH   1  31
HETATM   31  C   UNL     1      40.237 -12.457   2.459  1.00  0.00    -0.005 A 
HETATM   32  C   UNL     1      39.913 -13.775   2.123  1.00  0.00     0.014 A 
HETATM   33  C   UNL     1      40.488 -14.383   1.002  1.00  0.00     0.008 A 
HETATM   34  C   UNL     1      41.411 -13.692   0.206  1.00  0.00    -0.058 A 
HETATM   35  C   UNL     1      41.773 -12.392   0.573  1.00  0.00     0.008 A 
HETATM   36  C   UNL     1      41.187 -11.779   1.685  1.00  0.00     0.014 A 
BRANCH  34  37
HETATM   37  C   UNL     1      42.007 -14.352  -1.016  1.00  0.00     0.042 C 
BRANCH  37  38
HETATM   38  C   UNL     1      41.158 -14.310  -2.306  1.00  0.00    -0.019 C 
HETATM   39  C   UNL     1      40.925 -15.693  -2.915  1.00  0.00     0.010 C 
HETATM   40  C   UNL     1      41.717 -13.354  -3.361  1.00  0.00     0.010 C 
ENDBRANCH  37  38
ENDBRANCH  34  37
ENDBRANCH   1  31
TORSDOF 7
ENDMDL
MODEL 9
REMARK VINA RESULT:      -7.8      3.060      8.101
REMARK  7 active torsions:
REMARK  status: ('A' for Active; 'I' for Inactive)
REMARK    1  A    between atoms: C_2  and  C_3 
REMARK    2  A    between atoms: C_3  and  C_4 
REMARK    3  A    between atoms: C_7  and  C_8 
REMARK    4  A    between atoms: C_14  and  C_15 
REMARK    5  A    between atoms: C_18  and  O_19 
REMARK    6  A    between atoms: O_19  and  C_20 
REMARK       I    between atoms: C_20  and  N_21 
REMARK    7  A    between atoms: C_33  and  N_34 
ROOT
HETATM    1  C   UNL     1      41.460 -11.529   0.982  1.00  0.00     0.099 A 
HETATM    2  N   UNL     1      42.524 -10.759   0.681  1.00  0.00    -0.172 NA
HETATM    3  N   UNL     1      42.674 -10.883  -0.651  1.00  0.00    -0.256 N 
HETATM    4  H   UNL     1      43.425 -10.377  -1.108  1.00  0.00     0.191 HD
HETATM    5  C   UNL     1      41.762 -11.716  -1.208  1.00  0.00     0.175 A 
HETATM    6  C   UNL     1      40.952 -12.155  -0.192  1.00  0.00     0.040 A 
HETATM    7  C   UNL     1      39.856 -13.124  -0.489  1.00  0.00     0.105 A 
HETATM    8  C   UNL     1      39.779 -13.391  -1.988  1.00  0.00     0.067 A 
HETATM    9  C   UNL     1      38.554 -14.159  -2.462  1.00  0.00     0.020 C 
HETATM   10  N   UNL     1      37.540 -14.795  -2.855  1.00  0.00    -0.096 N 
HETATM   11  C   UNL     1      40.650 -12.870  -2.893  1.00  0.00     0.139 A 
HETATM   12  O   UNL     1      41.713 -12.036  -2.497  1.00  0.00    -0.279 OA
ENDROOT
BRANCH   7  13
HETATM   13  C   UNL     1      40.149 -14.368   0.338  1.00  0.00    -0.044 A 
HETATM   14  C   UNL     1      39.275 -14.716   1.383  1.00  0.00     0.011 A 
HETATM   15  C   UNL     1      39.579 -15.770   2.244  1.00  0.00     0.038 A 
HETATM   16  C   UNL     1      40.752 -16.499   2.058  1.00  0.00     0.081 A 
HETATM   17  C   UNL     1      41.605 -16.211   0.998  1.00  0.00     0.038 A 
HETATM   18  C   UNL     1      41.291 -15.165   0.128  1.00  0.00     0.011 A 
BRANCH  16  19
HETATM   19  O   UNL     1      41.074 -17.408   3.088  1.00  0.00    -0.261 OA
BRANCH  19  20
HETATM   20  C   UNL     1      41.692 -17.035   4.280  1.00  0.00     0.368 C 
HETATM   21  N   UNL     1      42.904 -17.678   4.460  1.00  0.00    -0.324 N 
HETATM   22  C   UNL     1      43.757 -17.325   5.589  1.00  0.00     0.154 C 
HETATM   23  C   UNL     1      43.532 -18.530   3.448  1.00  0.00     0.154 C 
HETATM   24  C   UNL     1      44.462 -18.563   6.151  1.00  0.00     0.187 C 
HETATM   25  O   UNL     1      45.162 -19.275   5.118  1.00  0.00    -0.388 OA
HETATM   26  C   UNL     1      44.248 -19.716   4.102  1.00  0.00     0.187 C 
HETATM   27  O   UNL     1      41.220 -16.241   5.086  1.00  0.00    -0.238 OA
ENDBRANCH  19  20
ENDBRANCH  16  19
ENDBRANCH   7  13
BRANCH  11  28
HETATM   28  N   UNL     1      40.597 -13.062  -4.254  1.00  0.00    -0.282 NA
HETATM   29  H   UNL     1      39.732 -13.463  -4.606  1.00  0.00     0.126 HD
HETATM   30  H   UNL     1      41.424 -13.540  -4.604  1.00  0.00     0.126 HD
ENDBRANCH  11  28
BRANCH   1  31
HETATM   31  C   UNL     1      41.012 -11.690   2.366  1.00  0.00    -0.005 A 
HETATM   32  C   UNL     1      39.876 -11.029   2.844  1.00  0.00     0.014 A 
HETATM   33  C   UNL     1      39.414 -11.263   4.144  1.00  0.00     0.008 A 
HETATM   34  C   UNL     1      40.089 -12.147   4.996  1.00  0.00    -0.058 A 
HETATM   35  C   UNL     1      41.253 -12.768   4.534  1.00  0.00     0.008 A 
HETATM   36  C   UNL     1      41.707 -12.546   3.230  1.00  0.00     0.014 A 
BRANCH  34  37
HETATM   37  C   UNL     1      39.566 -12.409   6.390  1.00  0.00     0.042 C 
BRANCH  37  38
HETATM   38  C   UNL     1      39.689 -11.248   7.402  1.00  0.00    -0.019 C 
HETATM   39  C   UNL     1      41.107 -10.682   7.495  1.00  0.00     0.010 C 
HETATM   40  C   UNL     1      39.171 -11.610   8.795  1.00  0.00     0.010 C 
ENDBRANCH  37  38
ENDBRANCH  34  37
ENDBRANCH   1  31
TORSDOF 7
ENDMDL
MODEL 10
REMARK VINA RESULT:      -7.7      4.094      7.966
REMARK  7 active torsions:
REMARK  status: ('A' for Active; 'I' for Inactive)
REMARK    1  A    between atoms: C_2  and  C_3 
REMARK    2  A    between atoms: C_3  and  C_4 
REMARK    3  A    between atoms: C_7  and  C_8 
REMARK    4  A    between atoms: C_14  and  C_15 
REMARK    5  A    between atoms: C_18  and  O_19 
REMARK    6  A    between atoms: O_19  and  C_20 
REMARK       I    between atoms: C_20  and  N_21 
REMARK    7  A    between atoms: C_33  and  N_34 
ROOT
HETATM    1  C   UNL     1      41.866 -16.467   1.322  1.00  0.00     0.099 A 
HETATM    2  N   UNL     1      42.613 -16.827   0.259  1.00  0.00    -0.172 NA
HETATM    3  N   UNL     1      43.621 -17.555   0.775  1.00  0.00    -0.256 N 
HETATM    4  H   UNL     1      44.317 -17.941   0.147  1.00  0.00     0.191 HD
HETATM    5  C   UNL     1      43.559 -17.656   2.125  1.00  0.00     0.175 A 
HETATM    6  C   UNL     1      42.438 -16.974   2.524  1.00  0.00     0.040 A 
HETATM    7  C   UNL     1      42.112 -16.877   3.977  1.00  0.00     0.105 A 
HETATM    8  C   UNL     1      43.106 -17.692   4.797  1.00  0.00     0.067 A 
HETATM    9  C   UNL     1      42.750 -17.891   6.262  1.00  0.00     0.020 C 
HETATM   10  N   UNL     1      42.455 -18.055   7.477  1.00  0.00    -0.096 N 
HETATM   11  C   UNL     1      44.175 -18.338   4.260  1.00  0.00     0.139 A 
HETATM   12  O   UNL     1      44.449 -18.291   2.881  1.00  0.00    -0.279 OA
ENDROOT
BRANCH   7  13
HETATM   13  C   UNL     1      42.112 -15.393   4.318  1.00  0.00    -0.044 A 
HETATM   14  C   UNL     1      41.089 -14.878   5.134  1.00  0.00     0.011 A 
HETATM   15  C   UNL     1      40.982 -13.506   5.360  1.00  0.00     0.038 A 
HETATM   16  C   UNL     1      41.906 -12.636   4.786  1.00  0.00     0.081 A 
HETATM   17  C   UNL     1      42.960 -13.124   4.022  1.00  0.00     0.038 A 
HETATM   18  C   UNL     1      43.074 -14.500   3.809  1.00  0.00     0.011 A 
BRANCH  16  19
HETATM   19  O   UNL     1      41.603 -11.263   4.902  1.00  0.00    -0.261 OA
BRANCH  19  20
HETATM   20  C   UNL     1      41.255 -10.649   6.104  1.00  0.00     0.368 C 
HETATM   21  N   UNL     1      39.995 -10.080   6.050  1.00  0.00    -0.324 N 
HETATM   22  C   UNL     1      39.404  -9.499   7.251  1.00  0.00     0.154 C 
HETATM   23  C   UNL     1      39.078 -10.237   4.920  1.00  0.00     0.154 C 
HETATM   24  C   UNL     1      38.596  -8.244   6.911  1.00  0.00     0.187 C 
HETATM   25  O   UNL     1      37.629  -8.513   5.882  1.00  0.00    -0.388 OA
HETATM   26  C   UNL     1      38.282  -8.951   4.681  1.00  0.00     0.187 C 
HETATM   27  O   UNL     1      41.978 -10.603   7.093  1.00  0.00    -0.238 OA
ENDBRANCH  19  20
ENDBRANCH  16  19
ENDBRANCH   7  13
BRANCH  11  28
HETATM   28  N   UNL     1      45.076 -19.107   4.960  1.00  0.00    -0.282 NA
HETATM   29  H   UNL     1      45.641 -19.739   4.398  1.00  0.00     0.126 HD
HETATM   30  H   UNL     1      44.645 -19.568   5.758  1.00  0.00     0.126 HD
ENDBRANCH  11  28
BRANCH   1  31
HETATM   31  C   UNL     1      40.689 -15.613   1.162  1.00  0.00    -0.005 A 
HETATM   32  C   UNL     1      40.664 -14.577   0.224  1.00  0.00     0.014 A 
HETATM   33  C   UNL     1      39.499 -13.827   0.026  1.00  0.00     0.008 A 
HETATM   34  C   UNL     1      38.343 -14.087   0.776  1.00  0.00    -0.058 A 
HETATM   35  C   UNL     1      38.386 -15.090   1.749  1.00  0.00     0.008 A 
HETATM   36  C   UNL     1      39.546 -15.849   1.937  1.00  0.00     0.014 A 
BRANCH  34  37
HETATM   37  C   UNL     1      37.084 -13.286   0.536  1.00  0.00     0.042 C 
BRANCH  37  38
HETATM   38  C   UNL     1      37.265 -11.767   0.316  1.00  0.00    -0.019 C 
HETATM   39  C   UNL     1      37.672 -11.022   1.587  1.00  0.00     0.010 C 
HETATM   40  C   UNL     1      36.041 -11.104  -0.317  1.00  0.00     0.010 C 
ENDBRANCH  37  38
ENDBRANCH  34  37
ENDBRANCH   1  31
TORSDOF 7
ENDMDL
