MODEL 1
REMARK VINA RESULT:      -8.7      0.000      0.000
REMARK  8 active torsions:
REMARK  status: ('A' for Active; 'I' for Inactive)
REMARK    1  A    between atoms: C_2  and  C_3 
REMARK    2  A    between atoms: C_3  and  C_4 
REMARK    3  A    between atoms: C_7  and  N_8 
REMARK       I    between atoms: N_8  and  C_9 
REMARK    4  A    between atoms: C_9  and  C_10 
REMARK    5  A    between atoms: C_13  and  N_14 
REMARK       I    between atoms: N_14  and  C_15 
REMARK    6  A    between atoms: C_15  and  C_16 
REMARK    7  A    between atoms: C_16  and  C_17 
REMARK    8  A    between atoms: C_19  and  N_20 
ROOT
HETATM    1  C   UNL     1      41.954 -11.690   6.169  1.00  0.00     0.032 A 
HETATM    2  C   UNL     1      41.360 -11.328   4.953  1.00  0.00     0.019 A 
HETATM    3  C   UNL     1      41.284 -12.252   3.899  1.00  0.00     0.030 A 
HETATM    4  C   UNL     1      41.814 -13.534   4.039  1.00  0.00     0.034 A 
HETATM    5  C   UNL     1      42.439 -13.881   5.241  1.00  0.00     0.030 A 
HETATM    6  C   UNL     1      42.509 -12.969   6.296  1.00  0.00     0.019 A 
ENDROOT
BRANCH   4   7
HETATM    7  N   UNL     1      41.763 -14.532   3.045  1.00  0.00    -0.327 N 
HETATM    8  C   UNL     1      40.654 -15.190   2.556  1.00  0.00     0.223 C 
HETATM    9  O   UNL     1      39.487 -14.992   2.878  1.00  0.00    -0.273 OA
HETATM   10  H   UNL     1      42.663 -14.755   2.615  1.00  0.00     0.169 HD
BRANCH   8  11
HETATM   11  C   UNL     1      40.990 -16.235   1.506  1.00  0.00     0.128 C 
BRANCH  11  12
HETATM   12  C   UNL     1      41.675 -17.424   2.159  1.00  0.00     0.158 C 
HETATM   13  S   UNL     1      41.505 -17.395   3.971  1.00  0.00    -0.077 SA
HETATM   14  C   UNL     1      43.179 -17.900   4.150  1.00  0.00     0.168 C 
HETATM   15  N   UNL     1      43.889 -17.845   3.070  1.00  0.00    -0.189 NA
HETATM   16  C   UNL     1      43.186 -17.376   1.989  1.00  0.00     0.260 C 
HETATM   17  O   UNL     1      43.716 -16.972   0.957  1.00  0.00    -0.270 OA
BRANCH  14  18
HETATM   18  N   UNL     1      43.627 -18.367   5.365  1.00  0.00    -0.360 N 
HETATM   19  C   UNL     1      44.053 -17.496   6.465  1.00  0.00     0.125 C 
HETATM   20  C   UNL     1      43.583 -18.079   7.796  1.00  0.00     0.020 C 
HETATM   21  C   UNL     1      44.065 -19.516   7.975  1.00  0.00     0.003 C 
HETATM   22  C   UNL     1      43.682 -20.370   6.771  1.00  0.00     0.020 C 
HETATM   23  C   UNL     1      44.154 -19.735   5.463  1.00  0.00     0.125 C 
ENDBRANCH  14  18
ENDBRANCH  11  12
ENDBRANCH   8  11
ENDBRANCH   4   7
BRANCH   1  24
HETATM   24  C   UNL     1      42.026 -10.785   7.357  1.00  0.00     0.256 C 
HETATM   25  N   UNL     1      42.253 -11.399   8.575  1.00  0.00    -0.323 N 
HETATM   26  H   UNL     1      42.307 -12.407   8.593  1.00  0.00     0.169 HD
HETATM   27  O   UNL     1      41.916  -9.578   7.161  1.00  0.00    -0.267 OA
BRANCH  25  28
HETATM   28  C   UNL     1      42.520 -10.765   9.809  1.00  0.00     0.035 A 
HETATM   29  C   UNL     1      43.779 -10.716  10.405  1.00  0.00     0.030 A 
HETATM   30  C   UNL     1      43.951 -10.126  11.663  1.00  0.00     0.010 A 
HETATM   31  C   UNL     1      42.872  -9.553  12.346  1.00  0.00    -0.054 A 
HETATM   32  C   UNL     1      41.610  -9.590  11.737  1.00  0.00     0.010 A 
HETATM   33  C   UNL     1      41.437 -10.192  10.485  1.00  0.00     0.030 A 
BRANCH  31  34
HETATM   34  C   UNL     1      43.027  -8.945  13.730  1.00  0.00     0.014 C 
HETATM   35  C   UNL     1      42.375  -7.558  13.761  1.00  0.00     0.015 C 
BRANCH  34  36
HETATM   36  C   UNL     1      42.469  -9.821  14.871  1.00  0.00     0.004 C 
HETATM   37  C   UNL     1      42.016  -9.011  16.079  1.00  0.00     0.006 C 
ENDBRANCH  34  36
ENDBRANCH  31  34
ENDBRANCH  25  28
ENDBRANCH   1  24
TORSDOF 8
ENDMDL
MODEL 2
REMARK VINA RESULT:      -8.6      1.382      1.773
REMARK  8 active torsions:
REMARK  status: ('A' for Active; 'I' for Inactive)
REMARK    1  A    between atoms: C_2  and  C_3 
REMARK    2  A    between atoms: C_3  and  C_4 
REMARK    3  A    between atoms: C_7  and  N_8 
REMARK       I    between atoms: N_8  and  C_9 
REMARK    4  A    between atoms: C_9  and  C_10 
REMARK    5  A    between atoms: C_13  and  N_14 
REMARK       I    between atoms: N_14  and  C_15 
REMARK    6  A    between atoms: C_15  and  C_16 
REMARK    7  A    between atoms: C_16  and  C_17 
REMARK    8  A    between atoms: C_19  and  N_20 
ROOT
HETATM    1  C   UNL     1      41.006 -11.291   6.422  1.00  0.00     0.032 A 
HETATM    2  C   UNL     1      39.996 -10.901   5.534  1.00  0.00     0.019 A 
HETATM    3  C   UNL     1      39.540 -11.788   4.546  1.00  0.00     0.030 A 
HETATM    4  C   UNL     1      40.096 -13.061   4.423  1.00  0.00     0.034 A 
HETATM    5  C   UNL     1      41.130 -13.435   5.288  1.00  0.00     0.030 A 
HETATM    6  C   UNL     1      41.581 -12.559   6.279  1.00  0.00     0.019 A 
ENDROOT
BRANCH   4   7
HETATM    7  N   UNL     1      39.687 -14.023   3.479  1.00  0.00    -0.327 N 
HETATM    8  C   UNL     1      40.347 -14.431   2.338  1.00  0.00     0.223 C 
HETATM    9  O   UNL     1      41.448 -14.048   1.956  1.00  0.00    -0.273 OA
HETATM   10  H   UNL     1      38.811 -14.499   3.702  1.00  0.00     0.169 HD
BRANCH   8  11
HETATM   11  C   UNL     1      39.580 -15.470   1.539  1.00  0.00     0.128 C 
BRANCH  11  12
HETATM   12  C   UNL     1      40.286 -16.813   1.622  1.00  0.00     0.158 C 
HETATM   13  S   UNL     1      41.111 -17.048   3.227  1.00  0.00    -0.077 SA
HETATM   14  C   UNL     1      42.506 -17.753   2.422  1.00  0.00     0.168 C 
HETATM   15  N   UNL     1      42.531 -17.607   1.137  1.00  0.00    -0.189 NA
HETATM   16  C   UNL     1      41.457 -16.902   0.655  1.00  0.00     0.260 C 
HETATM   17  O   UNL     1      41.421 -16.402  -0.466  1.00  0.00    -0.270 OA
BRANCH  14  18
HETATM   18  N   UNL     1      43.439 -18.450   3.155  1.00  0.00    -0.360 N 
HETATM   19  C   UNL     1      43.873 -18.060   4.501  1.00  0.00     0.125 C 
HETATM   20  C   UNL     1      44.065 -19.306   5.362  1.00  0.00     0.020 C 
HETATM   21  C   UNL     1      45.028 -20.293   4.706  1.00  0.00     0.003 C 
HETATM   22  C   UNL     1      44.593 -20.605   3.278  1.00  0.00     0.020 C 
HETATM   23  C   UNL     1      44.393 -19.327   2.463  1.00  0.00     0.125 C 
ENDBRANCH  14  18
ENDBRANCH  11  12
ENDBRANCH   8  11
ENDBRANCH   4   7
BRANCH   1  24
HETATM   24  C   UNL     1      41.509 -10.427   7.535  1.00  0.00     0.256 C 
HETATM   25  N   UNL     1      41.309 -10.910   8.815  1.00  0.00    -0.323 N 
HETATM   26  H   UNL     1      40.803 -11.777   8.920  1.00  0.00     0.169 HD
HETATM   27  O   UNL     1      42.085  -9.387   7.232  1.00  0.00    -0.267 OA
BRANCH  25  28
HETATM   28  C   UNL     1      41.825 -10.372  10.016  1.00  0.00     0.035 A 
HETATM   29  C   UNL     1      42.978 -10.835  10.647  1.00  0.00     0.030 A 
HETATM   30  C   UNL     1      43.389 -10.293  11.871  1.00  0.00     0.010 A 
HETATM   31  C   UNL     1      42.668  -9.261  12.482  1.00  0.00    -0.054 A 
HETATM   32  C   UNL     1      41.518  -8.787  11.838  1.00  0.00     0.010 A 
HETATM   33  C   UNL     1      41.100  -9.338  10.621  1.00  0.00     0.030 A 
BRANCH  31  34
HETATM   34  C   UNL     1      43.072  -8.688  13.830  1.00  0.00     0.014 C 
HETATM   35  C   UNL     1      42.493  -7.276  13.984  1.00  0.00     0.015 C 
BRANCH  34  36
HETATM   36  C   UNL     1      42.668  -9.562  15.035  1.00  0.00     0.004 C 
HETATM   37  C   UNL     1      41.255  -9.282  15.531  1.00  0.00     0.006 C 
ENDBRANCH  34  36
ENDBRANCH  31  34
ENDBRANCH  25  28
ENDBRANCH   1  24
TORSDOF 8
ENDMDL
MODEL 3
REMARK VINA RESULT:      -8.5      2.929     10.698
REMARK  8 active torsions:
REMARK  status: ('A' for Active; 'I' for Inactive)
REMARK    1  A    between atoms: C_2  and  C_3 
REMARK    2  A    between atoms: C_3  and  C_4 
REMARK    3  A    between atoms: C_7  and  N_8 
REMARK       I    between atoms: N_8  and  C_9 
REMARK    4  A    between atoms: C_9  and  C_10 
REMARK    5  A    between atoms: C_13  and  N_14 
REMARK       I    between atoms: N_14  and  C_15 
REMARK    6  A    between atoms: C_15  and  C_16 
REMARK    7  A    between atoms: C_16  and  C_17 
REMARK    8  A    between atoms: C_19  and  N_20 
ROOT
HETATM    1  C   UNL     1      41.101 -14.050   4.119  1.00  0.00     0.032 A 
HETATM    2  C   UNL     1      39.868 -13.437   3.864  1.00  0.00     0.019 A 
HETATM    3  C   UNL     1      39.611 -12.139   4.333  1.00  0.00     0.030 A 
HETATM    4  C   UNL     1      40.570 -11.449   5.074  1.00  0.00     0.034 A 
HETATM    5  C   UNL     1      41.787 -12.078   5.359  1.00  0.00     0.030 A 
HETATM    6  C   UNL     1      42.051 -13.366   4.886  1.00  0.00     0.019 A 
ENDROOT
BRANCH   4   7
HETATM    7  N   UNL     1      40.410 -10.139   5.564  1.00  0.00    -0.327 N 
HETATM    8  C   UNL     1      39.587  -9.706   6.584  1.00  0.00     0.223 C 
HETATM    9  O   UNL     1      38.864 -10.407   7.284  1.00  0.00    -0.273 OA
HETATM   10  H   UNL     1      41.015  -9.440   5.128  1.00  0.00     0.169 HD
BRANCH   8  11
HETATM   11  C   UNL     1      39.652  -8.206   6.813  1.00  0.00     0.128 C 
BRANCH  11  12
HETATM   12  C   UNL     1      40.326  -7.914   8.143  1.00  0.00     0.158 C 
HETATM   13  S   UNL     1      41.358  -9.304   8.701  1.00  0.00    -0.077 SA
HETATM   14  C   UNL     1      40.781  -9.089  10.348  1.00  0.00     0.168 C 
HETATM   15  N   UNL     1      39.764  -8.300  10.476  1.00  0.00    -0.189 NA
HETATM   16  C   UNL     1      39.320  -7.798   9.278  1.00  0.00     0.260 C 
HETATM   17  O   UNL     1      38.219  -7.276   9.127  1.00  0.00    -0.270 OA
BRANCH  14  18
HETATM   18  N   UNL     1      41.444  -9.696  11.390  1.00  0.00    -0.360 N 
HETATM   19  C   UNL     1      42.853 -10.099  11.334  1.00  0.00     0.125 C 
HETATM   20  C   UNL     1      43.523  -9.824  12.679  1.00  0.00     0.020 C 
HETATM   21  C   UNL     1      42.772 -10.501  13.823  1.00  0.00     0.003 C 
HETATM   22  C   UNL     1      41.293 -10.129  13.795  1.00  0.00     0.020 C 
HETATM   23  C   UNL     1      40.674 -10.401  12.424  1.00  0.00     0.125 C 
ENDBRANCH  14  18
ENDBRANCH  11  12
ENDBRANCH   8  11
ENDBRANCH   4   7
BRANCH   1  24
HETATM   24  C   UNL     1      41.472 -15.407   3.609  1.00  0.00     0.256 C 
HETATM   25  N   UNL     1      42.809 -15.746   3.708  1.00  0.00    -0.323 N 
HETATM   26  H   UNL     1      43.448 -15.053   4.068  1.00  0.00     0.169 HD
HETATM   27  O   UNL     1      40.571 -16.121   3.181  1.00  0.00    -0.267 OA
BRANCH  25  28
HETATM   28  C   UNL     1      43.385 -17.011   3.451  1.00  0.00     0.035 A 
HETATM   29  C   UNL     1      43.752 -17.458   2.183  1.00  0.00     0.030 A 
HETATM   30  C   UNL     1      44.256 -18.752   2.000  1.00  0.00     0.010 A 
HETATM   31  C   UNL     1      44.423 -19.621   3.083  1.00  0.00    -0.054 A 
HETATM   32  C   UNL     1      44.068 -19.164   4.359  1.00  0.00     0.010 A 
HETATM   33  C   UNL     1      43.552 -17.875   4.539  1.00  0.00     0.030 A 
BRANCH  31  34
HETATM   34  C   UNL     1      44.928 -21.043   2.902  1.00  0.00     0.014 C 
HETATM   35  C   UNL     1      44.720 -21.834   4.199  1.00  0.00     0.015 C 
BRANCH  34  36
HETATM   36  C   UNL     1      44.289 -21.794   1.714  1.00  0.00     0.004 C 
HETATM   37  C   UNL     1      42.772 -21.668   1.674  1.00  0.00     0.006 C 
ENDBRANCH  34  36
ENDBRANCH  31  34
ENDBRANCH  25  28
ENDBRANCH   1  24
TORSDOF 8
ENDMDL
MODEL 4
REMARK VINA RESULT:      -8.4      3.495     11.142
REMARK  8 active torsions:
REMARK  status: ('A' for Active; 'I' for Inactive)
REMARK    1  A    between atoms: C_2  and  C_3 
REMARK    2  A    between atoms: C_3  and  C_4 
REMARK    3  A    between atoms: C_7  and  N_8 
REMARK       I    between atoms: N_8  and  C_9 
REMARK    4  A    between atoms: C_9  and  C_10 
REMARK    5  A    between atoms: C_13  and  N_14 
REMARK       I    between atoms: N_14  and  C_15 
REMARK    6  A    between atoms: C_15  and  C_16 
REMARK    7  A    between atoms: C_16  and  C_17 
REMARK    8  A    between atoms: C_19  and  N_20 
ROOT
HETATM    1  C   UNL     1      42.238 -12.804   6.079  1.00  0.00     0.032 A 
HETATM    2  C   UNL     1      41.022 -12.457   5.478  1.00  0.00     0.019 A 
HETATM    3  C   UNL     1      40.312 -11.328   5.916  1.00  0.00     0.030 A 
HETATM    4  C   UNL     1      40.796 -10.548   6.966  1.00  0.00     0.034 A 
HETATM    5  C   UNL     1      41.992 -10.919   7.589  1.00  0.00     0.030 A 
HETATM    6  C   UNL     1      42.707 -12.036   7.151  1.00  0.00     0.019 A 
ENDROOT
BRANCH   4   7
HETATM    7  N   UNL     1      40.164  -9.389   7.456  1.00  0.00    -0.327 N 
HETATM    8  C   UNL     1      39.082  -9.304   8.308  1.00  0.00     0.223 C 
HETATM    9  O   UNL     1      38.490 -10.243   8.831  1.00  0.00    -0.273 OA
HETATM   10  H   UNL     1      40.598  -8.509   7.169  1.00  0.00     0.169 HD
BRANCH   8  11
HETATM   11  C   UNL     1      38.651  -7.875   8.592  1.00  0.00     0.128 C 
BRANCH  11  12
HETATM   12  C   UNL     1      39.172  -7.437   9.950  1.00  0.00     0.158 C 
HETATM   13  S   UNL     1      40.454  -8.564  10.582  1.00  0.00    -0.077 SA
HETATM   14  C   UNL     1      39.756  -8.477  12.193  1.00  0.00     0.168 C 
HETATM   15  N   UNL     1      38.585  -7.931  12.256  1.00  0.00    -0.189 NA
HETATM   16  C   UNL     1      38.106  -7.543  11.030  1.00  0.00     0.260 C 
HETATM   17  O   UNL     1      36.926  -7.278  10.815  1.00  0.00    -0.270 OA
BRANCH  14  18
HETATM   18  N   UNL     1      40.480  -8.919  13.277  1.00  0.00    -0.360 N 
HETATM   19  C   UNL     1      40.971 -10.293  13.422  1.00  0.00     0.125 C 
HETATM   20  C   UNL     1      42.365 -10.280  14.045  1.00  0.00     0.020 C 
HETATM   21  C   UNL     1      42.375  -9.519  15.369  1.00  0.00     0.003 C 
HETATM   22  C   UNL     1      41.775  -8.127  15.198  1.00  0.00     0.020 C 
HETATM   23  C   UNL     1      40.392  -8.191  14.550  1.00  0.00     0.125 C 
ENDBRANCH  14  18
ENDBRANCH  11  12
ENDBRANCH   8  11
ENDBRANCH   4   7
BRANCH   1  24
HETATM   24  C   UNL     1      43.081 -13.958   5.636  1.00  0.00     0.256 C 
HETATM   25  N   UNL     1      42.396 -15.072   5.186  1.00  0.00    -0.323 N 
HETATM   26  H   UNL     1      41.388 -15.056   5.228  1.00  0.00     0.169 HD
HETATM   27  O   UNL     1      44.300 -13.819   5.670  1.00  0.00    -0.267 OA
BRANCH  25  28
HETATM   28  C   UNL     1      42.949 -16.217   4.570  1.00  0.00     0.035 A 
HETATM   29  C   UNL     1      43.135 -16.351   3.195  1.00  0.00     0.030 A 
HETATM   30  C   UNL     1      43.629 -17.545   2.654  1.00  0.00     0.010 A 
HETATM   31  C   UNL     1      43.967 -18.625   3.477  1.00  0.00    -0.054 A 
HETATM   32  C   UNL     1      43.794 -18.482   4.860  1.00  0.00     0.010 A 
HETATM   33  C   UNL     1      43.288 -17.293   5.399  1.00  0.00     0.030 A 
BRANCH  31  34
HETATM   34  C   UNL     1      44.463 -19.944   2.908  1.00  0.00     0.014 C 
HETATM   35  C   UNL     1      44.754 -20.922   4.052  1.00  0.00     0.015 C 
BRANCH  34  36
HETATM   36  C   UNL     1      43.507 -20.591   1.885  1.00  0.00     0.004 C 
HETATM   37  C   UNL     1      43.946 -21.984   1.454  1.00  0.00     0.006 C 
ENDBRANCH  34  36
ENDBRANCH  31  34
ENDBRANCH  25  28
ENDBRANCH   1  24
TORSDOF 8
ENDMDL
MODEL 5
REMARK VINA RESULT:      -8.1      5.513     11.371
REMARK  8 active torsions:
REMARK  status: ('A' for Active; 'I' for Inactive)
REMARK    1  A    between atoms: C_2  and  C_3 
REMARK    2  A    between atoms: C_3  and  C_4 
REMARK    3  A    between atoms: C_7  and  N_8 
REMARK       I    between atoms: N_8  and  C_9 
REMARK    4  A    between atoms: C_9  and  C_10 
REMARK    5  A    between atoms: C_13  and  N_14 
REMARK       I    between atoms: N_14  and  C_15 
REMARK    6  A    between atoms: C_15  and  C_16 
REMARK    7  A    between atoms: C_16  and  C_17 
REMARK    8  A    between atoms: C_19  and  N_20 
ROOT
HETATM    1  C   UNL     1      40.299 -14.465  -0.211  1.00  0.00     0.032 A 
HETATM    2  C   UNL     1      41.351 -15.373  -0.044  1.00  0.00     0.019 A 
HETATM    3  C   UNL     1      41.794 -15.715   1.244  1.00  0.00     0.030 A 
HETATM    4  C   UNL     1      41.206 -15.145   2.372  1.00  0.00     0.034 A 
HETATM    5  C   UNL     1      40.179 -14.210   2.201  1.00  0.00     0.030 A 
HETATM    6  C   UNL     1      39.729 -13.873   0.922  1.00  0.00     0.019 A 
ENDROOT
BRANCH   4   7
HETATM    7  N   UNL     1      41.568 -15.445   3.700  1.00  0.00    -0.327 N 
HETATM    8  C   UNL     1      42.607 -14.917   4.439  1.00  0.00     0.223 C 
HETATM    9  O   UNL     1      43.391 -14.047   4.076  1.00  0.00    -0.273 OA
HETATM   10  H   UNL     1      40.951 -16.106   4.174  1.00  0.00     0.169 HD
BRANCH   8  11
HETATM   11  C   UNL     1      42.714 -15.509   5.833  1.00  0.00     0.128 C 
BRANCH  11  12
HETATM   12  C   UNL     1      43.717 -16.650   5.836  1.00  0.00     0.158 C 
HETATM   13  S   UNL     1      43.850 -17.442   4.204  1.00  0.00    -0.077 SA
HETATM   14  C   UNL     1      43.903 -19.028   4.961  1.00  0.00     0.168 C 
HETATM   15  N   UNL     1      43.593 -19.047   6.217  1.00  0.00    -0.189 NA
HETATM   16  C   UNL     1      43.259 -17.810   6.708  1.00  0.00     0.260 C 
HETATM   17  O   UNL     1      42.664 -17.638   7.768  1.00  0.00    -0.270 OA
BRANCH  14  18
HETATM   18  N   UNL     1      44.312 -20.122   4.233  1.00  0.00    -0.360 N 
HETATM   19  C   UNL     1      45.068 -21.242   4.802  1.00  0.00     0.125 C 
HETATM   20  C   UNL     1      44.579 -22.556   4.196  1.00  0.00     0.020 C 
HETATM   21  C   UNL     1      44.649 -22.525   2.671  1.00  0.00     0.003 C 
HETATM   22  C   UNL     1      43.928 -21.298   2.120  1.00  0.00     0.020 C 
HETATM   23  C   UNL     1      44.436 -20.013   2.773  1.00  0.00     0.125 C 
ENDBRANCH  14  18
ENDBRANCH  11  12
ENDBRANCH   8  11
ENDBRANCH   4   7
BRANCH   1  24
HETATM   24  C   UNL     1      39.733 -14.090  -1.544  1.00  0.00     0.256 C 
HETATM   25  N   UNL     1      38.376 -14.299  -1.707  1.00  0.00    -0.323 N 
HETATM   26  H   UNL     1      37.869 -14.728  -0.948  1.00  0.00     0.169 HD
HETATM   27  O   UNL     1      40.497 -13.598  -2.369  1.00  0.00    -0.267 OA
BRANCH  25  28
HETATM   28  C   UNL     1      37.579 -13.885  -2.798  1.00  0.00     0.035 A 
HETATM   29  C   UNL     1      37.186 -12.566  -3.022  1.00  0.00     0.030 A 
HETATM   30  C   UNL     1      36.339 -12.245  -4.090  1.00  0.00     0.010 A 
HETATM   31  C   UNL     1      35.881 -13.231  -4.971  1.00  0.00    -0.054 A 
HETATM   32  C   UNL     1      36.290 -14.553  -4.753  1.00  0.00     0.010 A 
HETATM   33  C   UNL     1      37.126 -14.876  -3.677  1.00  0.00     0.030 A 
BRANCH  31  34
HETATM   34  C   UNL     1      34.928 -12.911  -6.110  1.00  0.00     0.014 C 
HETATM   35  C   UNL     1      33.849 -11.937  -5.622  1.00  0.00     0.015 C 
BRANCH  34  36
HETATM   36  C   UNL     1      35.617 -12.352  -7.372  1.00  0.00     0.004 C 
HETATM   37  C   UNL     1      35.749 -10.835  -7.359  1.00  0.00     0.006 C 
ENDBRANCH  34  36
ENDBRANCH  31  34
ENDBRANCH  25  28
ENDBRANCH   1  24
TORSDOF 8
ENDMDL
MODEL 6
REMARK VINA RESULT:      -8.1      1.926      2.491
REMARK  8 active torsions:
REMARK  status: ('A' for Active; 'I' for Inactive)
REMARK    1  A    between atoms: C_2  and  C_3 
REMARK    2  A    between atoms: C_3  and  C_4 
REMARK    3  A    between atoms: C_7  and  N_8 
REMARK       I    between atoms: N_8  and  C_9 
REMARK    4  A    between atoms: C_9  and  C_10 
REMARK    5  A    between atoms: C_13  and  N_14 
REMARK       I    between atoms: N_14  and  C_15 
REMARK    6  A    between atoms: C_15  and  C_16 
REMARK    7  A    between atoms: C_16  and  C_17 
REMARK    8  A    between atoms: C_19  and  N_20 
ROOT
HETATM    1  C   UNL     1      40.168 -11.607   6.566  1.00  0.00     0.032 A 
HETATM    2  C   UNL     1      39.113 -11.859   5.681  1.00  0.00     0.019 A 
HETATM    3  C   UNL     1      39.362 -12.445   4.430  1.00  0.00     0.030 A 
HETATM    4  C   UNL     1      40.663 -12.767   4.042  1.00  0.00     0.034 A 
HETATM    5  C   UNL     1      41.719 -12.480   4.914  1.00  0.00     0.030 A 
HETATM    6  C   UNL     1      41.475 -11.906   6.164  1.00  0.00     0.019 A 
ENDROOT
BRANCH   4   7
HETATM    7  N   UNL     1      41.004 -13.376   2.819  1.00  0.00    -0.327 N 
HETATM    8  C   UNL     1      40.876 -14.703   2.464  1.00  0.00     0.223 C 
HETATM    9  O   UNL     1      40.396 -15.598   3.151  1.00  0.00    -0.273 OA
HETATM   10  H   UNL     1      41.350 -12.735   2.102  1.00  0.00     0.169 HD
BRANCH   8  11
HETATM   11  C   UNL     1      41.384 -15.002   1.064  1.00  0.00     0.128 C 
BRANCH  11  12
HETATM   12  C   UNL     1      42.539 -15.988   1.132  1.00  0.00     0.158 C 
HETATM   13  S   UNL     1      41.959 -17.700   1.343  1.00  0.00    -0.077 SA
HETATM   14  C   UNL     1      43.243 -18.007   2.504  1.00  0.00     0.168 C 
HETATM   15  N   UNL     1      43.870 -16.955   2.921  1.00  0.00    -0.189 NA
HETATM   16  C   UNL     1      43.384 -15.790   2.381  1.00  0.00     0.260 C 
HETATM   17  O   UNL     1      43.623 -14.677   2.842  1.00  0.00    -0.270 OA
BRANCH  14  18
HETATM   18  N   UNL     1      43.552 -19.301   2.857  1.00  0.00    -0.360 N 
HETATM   19  C   UNL     1      43.141 -20.476   2.081  1.00  0.00     0.125 C 
HETATM   20  C   UNL     1      44.267 -21.507   2.071  1.00  0.00     0.020 C 
HETATM   21  C   UNL     1      44.701 -21.871   3.489  1.00  0.00     0.003 C 
HETATM   22  C   UNL     1      45.035 -20.618   4.292  1.00  0.00     0.020 C 
HETATM   23  C   UNL     1      43.888 -19.608   4.253  1.00  0.00     0.125 C 
ENDBRANCH  14  18
ENDBRANCH  11  12
ENDBRANCH   8  11
ENDBRANCH   4   7
BRANCH   1  24
HETATM   24  C   UNL     1      39.981 -11.037   7.936  1.00  0.00     0.256 C 
HETATM   25  N   UNL     1      41.126 -10.912   8.702  1.00  0.00    -0.323 N 
HETATM   26  H   UNL     1      41.994 -11.251   8.315  1.00  0.00     0.169 HD
HETATM   27  O   UNL     1      38.849 -10.694   8.261  1.00  0.00    -0.267 OA
BRANCH  25  28
HETATM   28  C   UNL     1      41.244 -10.263   9.952  1.00  0.00     0.035 A 
HETATM   29  C   UNL     1      41.341  -8.882  10.109  1.00  0.00     0.030 A 
HETATM   30  C   UNL     1      41.523  -8.317  11.377  1.00  0.00     0.010 A 
HETATM   31  C   UNL     1      41.592  -9.121  12.521  1.00  0.00    -0.054 A 
HETATM   32  C   UNL     1      41.478 -10.507  12.363  1.00  0.00     0.010 A 
HETATM   33  C   UNL     1      41.310 -11.072  11.093  1.00  0.00     0.030 A 
BRANCH  31  34
HETATM   34  C   UNL     1      41.831  -8.533  13.902  1.00  0.00     0.014 C 
HETATM   35  C   UNL     1      40.526  -7.936  14.442  1.00  0.00     0.015 C 
BRANCH  34  36
HETATM   36  C   UNL     1      42.421  -9.531  14.920  1.00  0.00     0.004 C 
HETATM   37  C   UNL     1      41.631  -9.594  16.221  1.00  0.00     0.006 C 
ENDBRANCH  34  36
ENDBRANCH  31  34
ENDBRANCH  25  28
ENDBRANCH   1  24
TORSDOF 8
ENDMDL
MODEL 7
REMARK VINA RESULT:      -7.9      5.315      9.649
REMARK  8 active torsions:
REMARK  status: ('A' for Active; 'I' for Inactive)
REMARK    1  A    between atoms: C_2  and  C_3 
REMARK    2  A    between atoms: C_3  and  C_4 
REMARK    3  A    between atoms: C_7  and  N_8 
REMARK       I    between atoms: N_8  and  C_9 
REMARK    4  A    between atoms: C_9  and  C_10 
REMARK    5  A    between atoms: C_13  and  N_14 
REMARK       I    between atoms: N_14  and  C_15 
REMARK    6  A    between atoms: C_15  and  C_16 
REMARK    7  A    between atoms: C_16  and  C_17 
REMARK    8  A    between atoms: C_19  and  N_20 
ROOT
HETATM    1  C   UNL     1      39.097 -12.493   3.146  1.00  0.00     0.032 A 
HETATM    2  C   UNL     1      39.325 -12.032   4.449  1.00  0.00     0.019 A 
HETATM    3  C   UNL     1      40.015 -12.833   5.373  1.00  0.00     0.030 A 
HETATM    4  C   UNL     1      40.467 -14.103   5.014  1.00  0.00     0.034 A 
HETATM    5  C   UNL     1      40.206 -14.575   3.723  1.00  0.00     0.030 A 
HETATM    6  C   UNL     1      39.528 -13.778   2.798  1.00  0.00     0.019 A 
ENDROOT
BRANCH   4   7
HETATM    7  N   UNL     1      41.186 -14.964   5.865  1.00  0.00    -0.327 N 
HETATM    8  C   UNL     1      42.551 -15.026   6.060  1.00  0.00     0.223 C 
HETATM    9  O   UNL     1      43.394 -14.300   5.544  1.00  0.00    -0.273 OA
HETATM   10  H   UNL     1      40.608 -15.587   6.433  1.00  0.00     0.169 HD
BRANCH   8  11
HETATM   11  C   UNL     1      42.971 -16.112   7.035  1.00  0.00     0.128 C 
BRANCH  11  12
HETATM   12  C   UNL     1      44.030 -16.996   6.400  1.00  0.00     0.158 C 
HETATM   13  S   UNL     1      43.533 -17.573   4.747  1.00  0.00    -0.077 SA
HETATM   14  C   UNL     1      44.167 -19.175   5.100  1.00  0.00     0.168 C 
HETATM   15  N   UNL     1      44.463 -19.387   6.341  1.00  0.00    -0.189 NA
HETATM   16  C   UNL     1      44.200 -18.310   7.149  1.00  0.00     0.260 C 
HETATM   17  O   UNL     1      44.128 -18.380   8.373  1.00  0.00    -0.270 OA
BRANCH  14  18
HETATM   18  N   UNL     1      44.366 -20.073   4.076  1.00  0.00    -0.360 N 
HETATM   19  C   UNL     1      45.135 -21.313   4.221  1.00  0.00     0.125 C 
HETATM   20  C   UNL     1      44.461 -22.434   3.432  1.00  0.00     0.020 C 
HETATM   21  C   UNL     1      44.262 -22.042   1.970  1.00  0.00     0.003 C 
HETATM   22  C   UNL     1      43.538 -20.704   1.861  1.00  0.00     0.020 C 
HETATM   23  C   UNL     1      44.237 -19.622   2.684  1.00  0.00     0.125 C 
ENDBRANCH  14  18
ENDBRANCH  11  12
ENDBRANCH   8  11
ENDBRANCH   4   7
BRANCH   1  24
HETATM   24  C   UNL     1      38.419 -11.681   2.088  1.00  0.00     0.256 C 
HETATM   25  N   UNL     1      37.609 -12.381   1.213  1.00  0.00    -0.323 N 
HETATM   26  H   UNL     1      37.563 -13.384   1.311  1.00  0.00     0.169 HD
HETATM   27  O   UNL     1      38.601 -10.468   2.097  1.00  0.00    -0.267 OA
BRANCH  25  28
HETATM   28  C   UNL     1      36.743 -11.837   0.239  1.00  0.00     0.035 A 
HETATM   29  C   UNL     1      37.065 -11.715  -1.112  1.00  0.00     0.030 A 
HETATM   30  C   UNL     1      36.178 -11.103  -2.006  1.00  0.00     0.010 A 
HETATM   31  C   UNL     1      34.939 -10.617  -1.574  1.00  0.00    -0.054 A 
HETATM   32  C   UNL     1      34.610 -10.755  -0.219  1.00  0.00     0.010 A 
HETATM   33  C   UNL     1      35.503 -11.355   0.677  1.00  0.00     0.030 A 
BRANCH  31  34
HETATM   34  C   UNL     1      33.979  -9.911  -2.518  1.00  0.00     0.014 C 
HETATM   35  C   UNL     1      33.841 -10.721  -3.812  1.00  0.00     0.015 C 
BRANCH  34  36
HETATM   36  C   UNL     1      32.587  -9.634  -1.913  1.00  0.00     0.004 C 
HETATM   37  C   UNL     1      31.659 -10.841  -1.969  1.00  0.00     0.006 C 
ENDBRANCH  34  36
ENDBRANCH  31  34
ENDBRANCH  25  28
ENDBRANCH   1  24
TORSDOF 8
ENDMDL
MODEL 8
REMARK VINA RESULT:      -7.9      1.908      2.423
REMARK  8 active torsions:
REMARK  status: ('A' for Active; 'I' for Inactive)
REMARK    1  A    between atoms: C_2  and  C_3 
REMARK    2  A    between atoms: C_3  and  C_4 
REMARK    3  A    between atoms: C_7  and  N_8 
REMARK       I    between atoms: N_8  and  C_9 
REMARK    4  A    between atoms: C_9  and  C_10 
REMARK    5  A    between atoms: C_13  and  N_14 
REMARK       I    between atoms: N_14  and  C_15 
REMARK    6  A    between atoms: C_15  and  C_16 
REMARK    7  A    between atoms: C_16  and  C_17 
REMARK    8  A    between atoms: C_19  and  N_20 
ROOT
HETATM    1  C   UNL     1      41.950 -11.185   7.272  1.00  0.00     0.032 A 
HETATM    2  C   UNL     1      41.172 -10.779   6.181  1.00  0.00     0.019 A 
HETATM    3  C   UNL     1      41.037 -11.611   5.058  1.00  0.00     0.030 A 
HETATM    4  C   UNL     1      41.688 -12.843   5.005  1.00  0.00     0.034 A 
HETATM    5  C   UNL     1      42.494 -13.230   6.081  1.00  0.00     0.030 A 
HETATM    6  C   UNL     1      42.624 -12.410   7.205  1.00  0.00     0.019 A 
ENDROOT
BRANCH   4   7
HETATM    7  N   UNL     1      41.593 -13.751   3.933  1.00  0.00    -0.327 N 
HETATM    8  C   UNL     1      42.548 -14.052   2.984  1.00  0.00     0.223 C 
HETATM    9  O   UNL     1      43.687 -13.600   2.928  1.00  0.00    -0.273 OA
HETATM   10  H   UNL     1      40.717 -14.275   3.891  1.00  0.00     0.169 HD
BRANCH   8  11
HETATM   11  C   UNL     1      42.074 -15.061   1.952  1.00  0.00     0.128 C 
BRANCH  11  12
HETATM   12  C   UNL     1      41.914 -16.426   2.598  1.00  0.00     0.158 C 
HETATM   13  S   UNL     1      43.395 -16.912   3.536  1.00  0.00    -0.077 SA
HETATM   14  C   UNL     1      43.264 -18.554   2.920  1.00  0.00     0.168 C 
HETATM   15  N   UNL     1      42.429 -18.709   1.943  1.00  0.00    -0.189 NA
HETATM   16  C   UNL     1      41.821 -17.539   1.565  1.00  0.00     0.260 C 
HETATM   17  O   UNL     1      41.229 -17.395   0.498  1.00  0.00    -0.270 OA
BRANCH  14  18
HETATM   18  N   UNL     1      43.978 -19.568   3.515  1.00  0.00    -0.360 N 
HETATM   19  C   UNL     1      44.591 -19.460   4.843  1.00  0.00     0.125 C 
HETATM   20  C   UNL     1      44.439 -20.784   5.591  1.00  0.00     0.020 C 
HETATM   21  C   UNL     1      45.008 -21.947   4.783  1.00  0.00     0.003 C 
HETATM   22  C   UNL     1      44.414 -21.973   3.378  1.00  0.00     0.020 C 
HETATM   23  C   UNL     1      44.570 -20.622   2.681  1.00  0.00     0.125 C 
ENDBRANCH  14  18
ENDBRANCH  11  12
ENDBRANCH   8  11
ENDBRANCH   4   7
BRANCH   1  24
HETATM   24  C   UNL     1      42.100 -10.382   8.526  1.00  0.00     0.256 C 
HETATM   25  N   UNL     1      40.924  -9.983   9.134  1.00  0.00    -0.323 N 
HETATM   26  H   UNL     1      40.054 -10.211   8.678  1.00  0.00     0.169 HD
HETATM   27  O   UNL     1      43.238 -10.173   8.935  1.00  0.00    -0.267 OA
BRANCH  25  28
HETATM   28  C   UNL     1      40.791  -9.362  10.396  1.00  0.00     0.035 A 
HETATM   29  C   UNL     1      41.193  -8.056  10.671  1.00  0.00     0.030 A 
HETATM   30  C   UNL     1      41.088  -7.533  11.966  1.00  0.00     0.010 A 
HETATM   31  C   UNL     1      40.560  -8.298  13.012  1.00  0.00    -0.054 A 
HETATM   32  C   UNL     1      40.141  -9.604  12.730  1.00  0.00     0.010 A 
HETATM   33  C   UNL     1      40.258 -10.131  11.438  1.00  0.00     0.030 A 
BRANCH  31  34
HETATM   34  C   UNL     1      40.476  -7.765  14.433  1.00  0.00     0.014 C 
HETATM   35  C   UNL     1      39.036  -7.337  14.739  1.00  0.00     0.015 C 
BRANCH  34  36
HETATM   36  C   UNL     1      40.977  -8.752  15.508  1.00  0.00     0.004 C 
HETATM   37  C   UNL     1      42.438  -9.144  15.327  1.00  0.00     0.006 C 
ENDBRANCH  34  36
ENDBRANCH  31  34
ENDBRANCH  25  28
ENDBRANCH   1  24
TORSDOF 8
ENDMDL
MODEL 9
REMARK VINA RESULT:      -7.7      5.020     10.647
REMARK  8 active torsions:
REMARK  status: ('A' for Active; 'I' for Inactive)
REMARK    1  A    between atoms: C_2  and  C_3 
REMARK    2  A    between atoms: C_3  and  C_4 
REMARK    3  A    between atoms: C_7  and  N_8 
REMARK       I    between atoms: N_8  and  C_9 
REMARK    4  A    between atoms: C_9  and  C_10 
REMARK    5  A    between atoms: C_13  and  N_14 
REMARK       I    between atoms: N_14  and  C_15 
REMARK    6  A    between atoms: C_15  and  C_16 
REMARK    7  A    between atoms: C_16  and  C_17 
REMARK    8  A    between atoms: C_19  and  N_20 
ROOT
HETATM    1  C   UNL     1      39.136 -14.425   1.910  1.00  0.00     0.032 A 
HETATM    2  C   UNL     1      39.799 -15.653   2.019  1.00  0.00     0.019 A 
HETATM    3  C   UNL     1      40.643 -15.909   3.111  1.00  0.00     0.030 A 
HETATM    4  C   UNL     1      40.847 -14.940   4.093  1.00  0.00     0.034 A 
HETATM    5  C   UNL     1      40.213 -13.700   3.962  1.00  0.00     0.030 A 
HETATM    6  C   UNL     1      39.365 -13.444   2.882  1.00  0.00     0.019 A 
ENDROOT
BRANCH   4   7
HETATM    7  N   UNL     1      41.656 -15.116   5.232  1.00  0.00    -0.327 N 
HETATM    8  C   UNL     1      42.967 -14.728   5.414  1.00  0.00     0.223 C 
HETATM    9  O   UNL     1      43.664 -14.114   4.612  1.00  0.00    -0.273 OA
HETATM   10  H   UNL     1      41.186 -15.550   6.029  1.00  0.00     0.169 HD
BRANCH   8  11
HETATM   11  C   UNL     1      43.528 -15.120   6.770  1.00  0.00     0.128 C 
BRANCH  11  12
HETATM   12  C   UNL     1      44.329 -16.405   6.648  1.00  0.00     0.158 C 
HETATM   13  S   UNL     1      44.011 -17.257   5.071  1.00  0.00    -0.077 SA
HETATM   14  C   UNL     1      43.977 -18.807   5.900  1.00  0.00     0.168 C 
HETATM   15  N   UNL     1      43.927 -18.739   7.191  1.00  0.00    -0.189 NA
HETATM   16  C   UNL     1      43.888 -17.451   7.660  1.00  0.00     0.260 C 
HETATM   17  O   UNL     1      43.550 -17.154   8.804  1.00  0.00    -0.270 OA
BRANCH  14  18
HETATM   18  N   UNL     1      44.063 -19.973   5.174  1.00  0.00    -0.360 N 
HETATM   19  C   UNL     1      43.712 -20.075   3.754  1.00  0.00     0.125 C 
HETATM   20  C   UNL     1      44.698 -21.000   3.044  1.00  0.00     0.020 C 
HETATM   21  C   UNL     1      44.766 -22.366   3.723  1.00  0.00     0.003 C 
HETATM   22  C   UNL     1      45.044 -22.216   5.215  1.00  0.00     0.020 C 
HETATM   23  C   UNL     1      44.047 -21.264   5.875  1.00  0.00     0.125 C 
ENDBRANCH  14  18
ENDBRANCH  11  12
ENDBRANCH   8  11
ENDBRANCH   4   7
BRANCH   1  24
HETATM   24  C   UNL     1      38.180 -14.094   0.808  1.00  0.00     0.256 C 
HETATM   25  N   UNL     1      38.714 -13.422  -0.277  1.00  0.00    -0.323 N 
HETATM   26  H   UNL     1      39.687 -13.159  -0.238  1.00  0.00     0.169 HD
HETATM   27  O   UNL     1      37.019 -14.471   0.929  1.00  0.00    -0.267 OA
BRANCH  25  28
HETATM   28  C   UNL     1      38.069 -13.140  -1.502  1.00  0.00     0.035 A 
HETATM   29  C   UNL     1      37.423 -11.937  -1.785  1.00  0.00     0.030 A 
HETATM   30  C   UNL     1      36.748 -11.757  -2.999  1.00  0.00     0.010 A 
HETATM   31  C   UNL     1      36.720 -12.769  -3.966  1.00  0.00    -0.054 A 
HETATM   32  C   UNL     1      37.383 -13.970  -3.685  1.00  0.00     0.010 A 
HETATM   33  C   UNL     1      38.046 -14.154  -2.466  1.00  0.00     0.030 A 
BRANCH  31  34
HETATM   34  C   UNL     1      35.958 -12.611  -5.271  1.00  0.00     0.014 C 
HETATM   35  C   UNL     1      35.310 -13.946  -5.654  1.00  0.00     0.015 C 
BRANCH  34  36
HETATM   36  C   UNL     1      34.897 -11.491  -5.252  1.00  0.00     0.004 C 
HETATM   37  C   UNL     1      35.275 -10.295  -6.116  1.00  0.00     0.006 C 
ENDBRANCH  34  36
ENDBRANCH  31  34
ENDBRANCH  25  28
ENDBRANCH   1  24
TORSDOF 8
ENDMDL
MODEL 10
REMARK VINA RESULT:      -7.5      7.049     11.524
REMARK  8 active torsions:
REMARK  status: ('A' for Active; 'I' for Inactive)
REMARK    1  A    between atoms: C_2  and  C_3 
REMARK    2  A    between atoms: C_3  and  C_4 
REMARK    3  A    between atoms: C_7  and  N_8 
REMARK       I    between atoms: N_8  and  C_9 
REMARK    4  A    between atoms: C_9  and  C_10 
REMARK    5  A    between atoms: C_13  and  N_14 
REMARK       I    between atoms: N_14  and  C_15 
REMARK    6  A    between atoms: C_15  and  C_16 
REMARK    7  A    between atoms: C_16  and  C_17 
REMARK    8  A    between atoms: C_19  and  N_20 
ROOT
HETATM    1  C   UNL     1      39.658 -14.678   1.441  1.00  0.00     0.032 A 
HETATM    2  C   UNL     1      38.275 -14.485   1.344  1.00  0.00     0.019 A 
HETATM    3  C   UNL     1      37.759 -13.248   0.927  1.00  0.00     0.030 A 
HETATM    4  C   UNL     1      38.614 -12.189   0.622  1.00  0.00     0.034 A 
HETATM    5  C   UNL     1      39.994 -12.373   0.756  1.00  0.00     0.030 A 
HETATM    6  C   UNL     1      40.512 -13.605   1.161  1.00  0.00     0.019 A 
ENDROOT
BRANCH   4   7
HETATM    7  N   UNL     1      38.189 -10.923   0.175  1.00  0.00    -0.327 N 
HETATM    8  C   UNL     1      37.999  -9.777   0.920  1.00  0.00     0.223 C 
HETATM    9  O   UNL     1      38.209  -9.645   2.121  1.00  0.00    -0.273 OA
HETATM   10  H   UNL     1      38.047 -10.848  -0.834  1.00  0.00     0.169 HD
BRANCH   8  11
HETATM   11  C   UNL     1      37.497  -8.602   0.098  1.00  0.00     0.128 C 
BRANCH  11  12
HETATM   12  C   UNL     1      36.050  -8.304   0.450  1.00  0.00     0.158 C 
HETATM   13  S   UNL     1      35.860  -7.816   2.193  1.00  0.00    -0.077 SA
HETATM   14  C   UNL     1      34.404  -8.793   2.322  1.00  0.00     0.168 C 
HETATM   15  N   UNL     1      34.195  -9.602   1.334  1.00  0.00    -0.189 NA
HETATM   16  C   UNL     1      35.179  -9.550   0.380  1.00  0.00     0.260 C 
HETATM   17  O   UNL     1      35.339 -10.414  -0.478  1.00  0.00    -0.270 OA
BRANCH  14  18
HETATM   18  N   UNL     1      33.556  -8.618   3.392  1.00  0.00    -0.360 N 
HETATM   19  C   UNL     1      32.310  -7.848   3.326  1.00  0.00     0.125 C 
HETATM   20  C   UNL     1      31.229  -8.542   4.151  1.00  0.00     0.020 C 
HETATM   21  C   UNL     1      31.689  -8.775   5.587  1.00  0.00     0.003 C 
HETATM   22  C   UNL     1      33.031  -9.501   5.615  1.00  0.00     0.020 C 
HETATM   23  C   UNL     1      34.072  -8.781   4.758  1.00  0.00     0.125 C 
ENDBRANCH  14  18
ENDBRANCH  11  12
ENDBRANCH   8  11
ENDBRANCH   4   7
BRANCH   1  24
HETATM   24  C   UNL     1      40.288 -15.980   1.824  1.00  0.00     0.256 C 
HETATM   25  N   UNL     1      41.668 -15.983   1.913  1.00  0.00    -0.323 N 
HETATM   26  H   UNL     1      42.159 -15.136   1.673  1.00  0.00     0.169 HD
HETATM   27  O   UNL     1      39.542 -16.924   2.063  1.00  0.00    -0.267 OA
BRANCH  25  28
HETATM   28  C   UNL     1      42.484 -17.026   2.406  1.00  0.00     0.035 A 
HETATM   29  C   UNL     1      42.787 -18.184   1.692  1.00  0.00     0.030 A 
HETATM   30  C   UNL     1      43.549 -19.204   2.275  1.00  0.00     0.010 A 
HETATM   31  C   UNL     1      44.044 -19.080   3.578  1.00  0.00    -0.054 A 
HETATM   32  C   UNL     1      43.752 -17.908   4.288  1.00  0.00     0.010 A 
HETATM   33  C   UNL     1      42.978 -16.895   3.709  1.00  0.00     0.030 A 
BRANCH  31  34
HETATM   34  C   UNL     1      44.837 -20.192   4.245  1.00  0.00     0.014 C 
HETATM   35  C   UNL     1      44.396 -20.335   5.706  1.00  0.00     0.015 C 
BRANCH  34  36
HETATM   36  C   UNL     1      44.745 -21.553   3.526  1.00  0.00     0.004 C 
HETATM   37  C   UNL     1      44.710 -22.736   4.485  1.00  0.00     0.006 C 
ENDBRANCH  34  36
ENDBRANCH  31  34
ENDBRANCH  25  28
ENDBRANCH   1  24
TORSDOF 8
ENDMDL
