MODEL 1
REMARK VINA RESULT:      -8.8      0.000      0.000
REMARK  10 active torsions:
REMARK  status: ('A' for Active; 'I' for Inactive)
REMARK    1  A    between atoms: C_2  and  N_3 
REMARK    2  A    between atoms: N_3  and  C_4 
REMARK    3  A    between atoms: C_6  and  N_7 
REMARK    4  A    between atoms: N_10  and  C_12 
REMARK    5  A    between atoms: C_25  and  N_26 
REMARK    6  A    between atoms: N_26  and  C_27 
REMARK    7  A    between atoms: C_27  and  C_28 
REMARK    8  A    between atoms: C_28  and  O_29 
REMARK    9  A    between atoms: C_33  and  O_34 
REMARK   10  A    between atoms: O_34  and  C_35 
ROOT
HETATM    1  C   UNL     1      41.114 -14.938   0.092  1.00  0.00     0.745 A 
HETATM    2  N   UNL     1      41.214 -14.433   1.317  1.00  0.00     0.130 NA
HETATM    3  C   UNL     1      40.555 -13.315   1.568  1.00  0.00     0.743 A 
HETATM    4  N   UNL     1      39.850 -12.677   0.645  1.00  0.00    -0.030 NA
HETATM    5  C   UNL     1      39.815 -13.229  -0.560  1.00  0.00     0.238 A 
HETATM    6  N   UNL     1      40.444 -14.348  -0.884  1.00  0.00    -0.030 NA
ENDROOT
BRANCH   3   7
HETATM    7  N   UNL     1      40.626 -12.784   2.858  1.00  0.00    -0.210 N 
HETATM    8  C   UNL     1      41.974 -12.471   3.344  1.00  0.00     0.169 C 
HETATM    9  C   UNL     1      42.680 -13.746   3.858  1.00  0.00     0.256 C 
HETATM   10  N   UNL     1      41.822 -14.430   4.956  1.00  0.00    -0.059 N 
HETATM   11  H   UNL     1      41.657 -13.706   5.667  1.00  0.00     0.281 HD
HETATM   12  C   UNL     1      40.418 -14.744   4.374  1.00  0.00     0.256 C 
HETATM   13  C   UNL     1      39.760 -13.446   3.843  1.00  0.00     0.169 C 
BRANCH  10  14
HETATM   14  C   UNL     1      42.518 -15.585   5.706  1.00  0.00     0.129 C 
HETATM   15  C   UNL     1      43.243 -16.488   4.671  1.00  0.00     0.043 C 
HETATM   16  C   UNL     1      43.984 -17.636   5.378  1.00  0.00    -0.012 C 
HETATM   17  C   UNL     1      42.968 -18.469   6.179  1.00  0.00     0.009 C 
HETATM   18  C   UNL     1      45.032 -17.051   6.333  1.00  0.00     0.009 C 
HETATM   19  C   UNL     1      42.268 -17.587   7.228  1.00  0.00    -0.012 C 
HETATM   20  C   UNL     1      41.519 -16.438   6.517  1.00  0.00     0.043 C 
HETATM   21  C   UNL     1      43.330 -17.003   8.174  1.00  0.00     0.009 C 
HETATM   22  C   UNL     1      44.344 -16.164   7.379  1.00  0.00    -0.012 C 
HETATM   23  C   UNL     1      43.597 -15.020   6.670  1.00  0.00     0.043 C 
ENDBRANCH  10  14
ENDBRANCH   3   7
BRANCH   1  24
HETATM   24  N   UNL     1      41.772 -16.122  -0.233  1.00  0.00    -0.188 N 
HETATM   25  H   UNL     1      41.495 -16.435  -1.154  1.00  0.00     0.184 HD
BRANCH  24  26
HETATM   26  C   UNL     1      42.330 -17.113   0.589  1.00  0.00     0.049 A 
HETATM   27  C   UNL     1      43.707 -17.295   0.750  1.00  0.00     0.033 A 
HETATM   28  C   UNL     1      44.223 -18.322   1.552  1.00  0.00     0.039 A 
HETATM   29  C   UNL     1      43.364 -19.212   2.192  1.00  0.00     0.078 A 
HETATM   30  C   UNL     1      41.988 -19.055   2.022  1.00  0.00     0.039 A 
HETATM   31  C   UNL     1      41.477 -18.020   1.229  1.00  0.00     0.033 A 
BRANCH  29  32
HETATM   32  O   UNL     1      43.726 -20.257   2.991  1.00  0.00    -0.255 OA
BRANCH  32  33
HETATM   33  C   UNL     1      44.007 -21.499   2.367  1.00  0.00     0.530 C 
HETATM   34  F   UNL     1      43.000 -21.866   1.544  1.00  0.00    -0.144 F 
HETATM   35  F   UNL     1      45.159 -21.440   1.665  1.00  0.00    -0.144 F 
HETATM   36  F   UNL     1      44.137 -22.447   3.318  1.00  0.00    -0.144 F 
ENDBRANCH  32  33
ENDBRANCH  29  32
ENDBRANCH  24  26
ENDBRANCH   1  24
BRANCH   5  37
HETATM   37  N   UNL     1      39.054 -12.558  -1.500  1.00  0.00    -0.258 NA
HETATM   38  H   UNL     1      38.118 -12.438  -1.126  1.00  0.00     0.130 HD
BRANCH  37  39
HETATM   39  C   UNL     1      39.034 -13.125  -2.850  1.00  0.00     0.121 C 
BRANCH  39  40
HETATM   40  C   UNL     1      37.711 -13.839  -3.155  1.00  0.00     0.178 C 
BRANCH  40  41
HETATM   41  O   UNL     1      37.717 -15.151  -2.590  1.00  0.00    -0.400 OA
HETATM   42  H   UNL     1      36.812 -15.499  -2.671  1.00  0.00     0.209 HD
ENDBRANCH  40  41
ENDBRANCH  39  40
ENDBRANCH  37  39
ENDBRANCH   5  37
TORSDOF 10
ENDMDL
MODEL 2
REMARK VINA RESULT:      -8.7      4.939      7.345
REMARK  10 active torsions:
REMARK  status: ('A' for Active; 'I' for Inactive)
REMARK    1  A    between atoms: C_2  and  N_3 
REMARK    2  A    between atoms: N_3  and  C_4 
REMARK    3  A    between atoms: C_6  and  N_7 
REMARK    4  A    between atoms: N_10  and  C_12 
REMARK    5  A    between atoms: C_25  and  N_26 
REMARK    6  A    between atoms: N_26  and  C_27 
REMARK    7  A    between atoms: C_27  and  C_28 
REMARK    8  A    between atoms: C_28  and  O_29 
REMARK    9  A    between atoms: C_33  and  O_34 
REMARK   10  A    between atoms: O_34  and  C_35 
ROOT
HETATM    1  C   UNL     1      42.192 -15.334   5.513  1.00  0.00     0.745 A 
HETATM    2  N   UNL     1      41.314 -14.350   5.358  1.00  0.00     0.130 NA
HETATM    3  C   UNL     1      41.678 -13.144   5.759  1.00  0.00     0.743 A 
HETATM    4  N   UNL     1      42.847 -12.903   6.334  1.00  0.00    -0.030 NA
HETATM    5  C   UNL     1      43.662 -13.939   6.475  1.00  0.00     0.238 A 
HETATM    6  N   UNL     1      43.370 -15.173   6.093  1.00  0.00    -0.030 NA
ENDROOT
BRANCH   3   7
HETATM    7  N   UNL     1      40.778 -12.090   5.579  1.00  0.00    -0.210 N 
HETATM    8  C   UNL     1      41.347 -10.742   5.690  1.00  0.00     0.169 C 
HETATM    9  C   UNL     1      41.492 -10.331   7.172  1.00  0.00     0.256 C 
HETATM   10  N   UNL     1      40.123 -10.434   7.896  1.00  0.00    -0.059 N 
HETATM   11  H   UNL     1      39.476  -9.856   7.344  1.00  0.00     0.281 HD
HETATM   12  C   UNL     1      39.586 -11.883   7.750  1.00  0.00     0.256 C 
HETATM   13  C   UNL     1      39.484 -12.265   6.253  1.00  0.00     0.169 C 
BRANCH  10  14
HETATM   14  C   UNL     1      40.088  -9.838   9.318  1.00  0.00     0.129 C 
HETATM   15  C   UNL     1      40.571  -8.363   9.254  1.00  0.00     0.043 C 
HETATM   16  C   UNL     1      40.519  -7.714  10.648  1.00  0.00    -0.012 C 
HETATM   17  C   UNL     1      41.414  -8.517  11.608  1.00  0.00     0.009 C 
HETATM   18  C   UNL     1      39.073  -7.731  11.161  1.00  0.00     0.009 C 
HETATM   19  C   UNL     1      40.921  -9.972  11.700  1.00  0.00    -0.012 C 
HETATM   20  C   UNL     1      40.980 -10.625  10.301  1.00  0.00     0.043 C 
HETATM   21  C   UNL     1      39.471  -9.974  12.211  1.00  0.00     0.009 C 
HETATM   22  C   UNL     1      38.571  -9.178  11.250  1.00  0.00    -0.012 C 
HETATM   23  C   UNL     1      38.631  -9.829   9.856  1.00  0.00     0.043 C 
ENDBRANCH  10  14
ENDBRANCH   3   7
BRANCH   1  24
HETATM   24  N   UNL     1      41.877 -16.626   5.097  1.00  0.00    -0.188 N 
HETATM   25  H   UNL     1      41.155 -17.017   5.689  1.00  0.00     0.184 HD
BRANCH  24  26
HETATM   26  C   UNL     1      42.631 -17.566   4.380  1.00  0.00     0.049 A 
HETATM   27  C   UNL     1      42.747 -17.558   2.986  1.00  0.00     0.033 A 
HETATM   28  C   UNL     1      43.482 -18.538   2.305  1.00  0.00     0.039 A 
HETATM   29  C   UNL     1      44.098 -19.570   3.009  1.00  0.00     0.078 A 
HETATM   30  C   UNL     1      43.972 -19.602   4.398  1.00  0.00     0.039 A 
HETATM   31  C   UNL     1      43.246 -18.613   5.075  1.00  0.00     0.033 A 
BRANCH  29  32
HETATM   32  O   UNL     1      44.832 -20.590   2.478  1.00  0.00    -0.255 OA
BRANCH  32  33
HETATM   33  C   UNL     1      44.146 -21.776   2.110  1.00  0.00     0.530 C 
HETATM   34  F   UNL     1      44.240 -22.710   3.082  1.00  0.00    -0.144 F 
HETATM   35  F   UNL     1      42.844 -21.525   1.855  1.00  0.00    -0.144 F 
HETATM   36  F   UNL     1      44.709 -22.276   0.991  1.00  0.00    -0.144 F 
ENDBRANCH  32  33
ENDBRANCH  29  32
ENDBRANCH  24  26
ENDBRANCH   1  24
BRANCH   5  37
HETATM   37  N   UNL     1      44.885 -13.659   7.057  1.00  0.00    -0.258 NA
HETATM   38  H   UNL     1      45.362 -14.537   7.238  1.00  0.00     0.130 HD
BRANCH  37  39
HETATM   39  C   UNL     1      44.863 -12.798   8.241  1.00  0.00     0.121 C 
BRANCH  39  40
HETATM   40  C   UNL     1      46.219 -12.122   8.489  1.00  0.00     0.178 C 
BRANCH  40  41
HETATM   41  O   UNL     1      46.025 -10.786   8.956  1.00  0.00    -0.400 OA
HETATM   42  H   UNL     1      46.898 -10.355   8.948  1.00  0.00     0.209 HD
ENDBRANCH  40  41
ENDBRANCH  39  40
ENDBRANCH  37  39
ENDBRANCH   5  37
TORSDOF 10
ENDMDL
MODEL 3
REMARK VINA RESULT:      -8.6      2.539      7.133
REMARK  10 active torsions:
REMARK  status: ('A' for Active; 'I' for Inactive)
REMARK    1  A    between atoms: C_2  and  N_3 
REMARK    2  A    between atoms: N_3  and  C_4 
REMARK    3  A    between atoms: C_6  and  N_7 
REMARK    4  A    between atoms: N_10  and  C_12 
REMARK    5  A    between atoms: C_25  and  N_26 
REMARK    6  A    between atoms: N_26  and  C_27 
REMARK    7  A    between atoms: C_27  and  C_28 
REMARK    8  A    between atoms: C_28  and  O_29 
REMARK    9  A    between atoms: C_33  and  O_34 
REMARK   10  A    between atoms: O_34  and  C_35 
ROOT
HETATM    1  C   UNL     1      41.069 -15.293   4.351  1.00  0.00     0.745 A 
HETATM    2  N   UNL     1      40.345 -14.388   3.702  1.00  0.00     0.130 NA
HETATM    3  C   UNL     1      40.511 -13.122   4.042  1.00  0.00     0.743 A 
HETATM    4  N   UNL     1      41.327 -12.743   5.014  1.00  0.00    -0.030 NA
HETATM    5  C   UNL     1      42.000 -13.704   5.631  1.00  0.00     0.238 A 
HETATM    6  N   UNL     1      41.890 -14.991   5.343  1.00  0.00    -0.030 NA
ENDROOT
BRANCH   3   7
HETATM    7  N   UNL     1      39.778 -12.153   3.352  1.00  0.00    -0.210 N 
HETATM    8  C   UNL     1      38.763 -12.665   2.423  1.00  0.00     0.169 C 
HETATM    9  C   UNL     1      39.410 -13.091   1.087  1.00  0.00     0.256 C 
HETATM   10  N   UNL     1      40.202 -11.906   0.470  1.00  0.00    -0.059 N 
HETATM   11  H   UNL     1      39.529 -11.132   0.402  1.00  0.00     0.281 HD
HETATM   12  C   UNL     1      41.262 -11.423   1.495  1.00  0.00     0.256 C 
HETATM   13  C   UNL     1      40.576 -11.036   2.829  1.00  0.00     0.169 C 
BRANCH  10  14
HETATM   14  C   UNL     1      40.706 -12.134  -0.969  1.00  0.00     0.129 C 
HETATM   15  C   UNL     1      39.780 -13.170  -1.665  1.00  0.00     0.043 C 
HETATM   16  C   UNL     1      40.223 -13.403  -3.120  1.00  0.00    -0.012 C 
HETATM   17  C   UNL     1      41.675 -13.912  -3.125  1.00  0.00     0.009 C 
HETATM   18  C   UNL     1      40.142 -12.079  -3.893  1.00  0.00     0.009 C 
HETATM   19  C   UNL     1      42.603 -12.876  -2.465  1.00  0.00    -0.012 C 
HETATM   20  C   UNL     1      42.161 -12.647  -1.003  1.00  0.00     0.043 C 
HETATM   21  C   UNL     1      42.508 -11.555  -3.246  1.00  0.00     0.009 C 
HETATM   22  C   UNL     1      41.059 -11.039  -3.238  1.00  0.00    -0.012 C 
HETATM   23  C   UNL     1      40.619 -10.812  -1.780  1.00  0.00     0.043 C 
ENDBRANCH  10  14
ENDBRANCH   3   7
BRANCH   1  24
HETATM   24  N   UNL     1      40.953 -16.644   4.030  1.00  0.00    -0.188 N 
HETATM   25  H   UNL     1      40.159 -17.051   4.510  1.00  0.00     0.184 HD
BRANCH  24  26
HETATM   26  C   UNL     1      41.913 -17.564   3.585  1.00  0.00     0.049 A 
HETATM   27  C   UNL     1      42.179 -17.806   2.233  1.00  0.00     0.033 A 
HETATM   28  C   UNL     1      43.121 -18.762   1.830  1.00  0.00     0.039 A 
HETATM   29  C   UNL     1      43.803 -19.520   2.779  1.00  0.00     0.078 A 
HETATM   30  C   UNL     1      43.531 -19.303   4.130  1.00  0.00     0.039 A 
HETATM   31  C   UNL     1      42.597 -18.340   4.528  1.00  0.00     0.033 A 
BRANCH  29  32
HETATM   32  O   UNL     1      44.734 -20.485   2.531  1.00  0.00    -0.255 OA
BRANCH  32  33
HETATM   33  C   UNL     1      44.272 -21.802   2.284  1.00  0.00     0.530 C 
HETATM   34  F   UNL     1      45.055 -22.429   1.379  1.00  0.00    -0.144 F 
HETATM   35  F   UNL     1      44.237 -22.527   3.423  1.00  0.00    -0.144 F 
HETATM   36  F   UNL     1      43.020 -21.740   1.783  1.00  0.00    -0.144 F 
ENDBRANCH  32  33
ENDBRANCH  29  32
ENDBRANCH  24  26
ENDBRANCH   1  24
BRANCH   5  37
HETATM   37  N   UNL     1      42.862 -13.281   6.627  1.00  0.00    -0.258 NA
HETATM   38  H   UNL     1      42.908 -12.267   6.600  1.00  0.00     0.130 HD
BRANCH  37  39
HETATM   39  C   UNL     1      44.195 -13.887   6.637  1.00  0.00     0.121 C 
BRANCH  39  40
HETATM   40  C   UNL     1      45.057 -13.365   7.794  1.00  0.00     0.178 C 
BRANCH  40  41
HETATM   41  O   UNL     1      44.316 -13.400   9.015  1.00  0.00    -0.400 OA
HETATM   42  H   UNL     1      44.164 -14.337   9.227  1.00  0.00     0.209 HD
ENDBRANCH  40  41
ENDBRANCH  39  40
ENDBRANCH  37  39
ENDBRANCH   5  37
TORSDOF 10
ENDMDL
MODEL 4
REMARK VINA RESULT:      -8.6      2.523      7.114
REMARK  10 active torsions:
REMARK  status: ('A' for Active; 'I' for Inactive)
REMARK    1  A    between atoms: C_2  and  N_3 
REMARK    2  A    between atoms: N_3  and  C_4 
REMARK    3  A    between atoms: C_6  and  N_7 
REMARK    4  A    between atoms: N_10  and  C_12 
REMARK    5  A    between atoms: C_25  and  N_26 
REMARK    6  A    between atoms: N_26  and  C_27 
REMARK    7  A    between atoms: C_27  and  C_28 
REMARK    8  A    between atoms: C_28  and  O_29 
REMARK    9  A    between atoms: C_33  and  O_34 
REMARK   10  A    between atoms: O_34  and  C_35 
ROOT
HETATM    1  C   UNL     1      41.057 -15.244   4.314  1.00  0.00     0.745 A 
HETATM    2  N   UNL     1      40.347 -14.332   3.659  1.00  0.00     0.130 NA
HETATM    3  C   UNL     1      40.520 -13.067   4.002  1.00  0.00     0.743 A 
HETATM    4  N   UNL     1      41.329 -12.696   4.983  1.00  0.00    -0.030 NA
HETATM    5  C   UNL     1      41.988 -13.664   5.606  1.00  0.00     0.238 A 
HETATM    6  N   UNL     1      41.871 -14.950   5.314  1.00  0.00    -0.030 NA
ENDROOT
BRANCH   3   7
HETATM    7  N   UNL     1      39.802 -12.091   3.306  1.00  0.00    -0.210 N 
HETATM    8  C   UNL     1      38.751 -12.592   2.412  1.00  0.00     0.169 C 
HETATM    9  C   UNL     1      39.354 -13.068   1.072  1.00  0.00     0.256 C 
HETATM   10  N   UNL     1      40.168 -11.923   0.411  1.00  0.00    -0.059 N 
HETATM   11  H   UNL     1      39.518 -11.129   0.340  1.00  0.00     0.281 HD
HETATM   12  C   UNL     1      41.266 -11.451   1.401  1.00  0.00     0.256 C 
HETATM   13  C   UNL     1      40.622 -11.012   2.739  1.00  0.00     0.169 C 
BRANCH  10  14
HETATM   14  C   UNL     1      40.632 -12.199  -1.034  1.00  0.00     0.129 C 
HETATM   15  C   UNL     1      41.762 -11.196  -1.397  1.00  0.00     0.043 C 
HETATM   16  C   UNL     1      42.283 -11.458  -2.820  1.00  0.00    -0.012 C 
HETATM   17  C   UNL     1      41.116 -11.314  -3.814  1.00  0.00     0.009 C 
HETATM   18  C   UNL     1      42.850 -12.881  -2.899  1.00  0.00     0.009 C 
HETATM   19  C   UNL     1      40.007 -12.327  -3.479  1.00  0.00    -0.012 C 
HETATM   20  C   UNL     1      39.480 -12.060  -2.052  1.00  0.00     0.043 C 
HETATM   21  C   UNL     1      40.590 -13.747  -3.557  1.00  0.00     0.009 C 
HETATM   22  C   UNL     1      41.752 -13.897  -2.561  1.00  0.00    -0.012 C 
HETATM   23  C   UNL     1      41.226 -13.630  -1.138  1.00  0.00     0.043 C 
ENDBRANCH  10  14
ENDBRANCH   3   7
BRANCH   1  24
HETATM   24  N   UNL     1      40.932 -16.593   3.990  1.00  0.00    -0.188 N 
HETATM   25  H   UNL     1      40.133 -16.994   4.463  1.00  0.00     0.184 HD
BRANCH  24  26
HETATM   26  C   UNL     1      41.889 -17.520   3.550  1.00  0.00     0.049 A 
HETATM   27  C   UNL     1      42.178 -17.746   2.201  1.00  0.00     0.033 A 
HETATM   28  C   UNL     1      43.115 -18.709   1.802  1.00  0.00     0.039 A 
HETATM   29  C   UNL     1      43.768 -19.489   2.753  1.00  0.00     0.078 A 
HETATM   30  C   UNL     1      43.473 -19.288   4.102  1.00  0.00     0.039 A 
HETATM   31  C   UNL     1      42.544 -18.317   4.495  1.00  0.00     0.033 A 
BRANCH  29  32
HETATM   32  O   UNL     1      44.691 -20.463   2.509  1.00  0.00    -0.255 OA
BRANCH  32  33
HETATM   33  C   UNL     1      44.216 -21.774   2.248  1.00  0.00     0.530 C 
HETATM   34  F   UNL     1      44.253 -22.533   3.365  1.00  0.00    -0.144 F 
HETATM   35  F   UNL     1      42.955 -21.747   1.767  1.00  0.00    -0.144 F 
HETATM   36  F   UNL     1      45.011 -22.351   1.323  1.00  0.00    -0.144 F 
ENDBRANCH  32  33
ENDBRANCH  29  32
ENDBRANCH  24  26
ENDBRANCH   1  24
BRANCH   5  37
HETATM   37  N   UNL     1      42.843 -13.250   6.610  1.00  0.00    -0.258 NA
HETATM   38  H   UNL     1      42.882 -12.235   6.599  1.00  0.00     0.130 HD
BRANCH  37  39
HETATM   39  C   UNL     1      44.181 -13.845   6.616  1.00  0.00     0.121 C 
BRANCH  39  40
HETATM   40  C   UNL     1      45.031 -13.344   7.792  1.00  0.00     0.178 C 
BRANCH  40  41
HETATM   41  O   UNL     1      44.363 -13.605   9.028  1.00  0.00    -0.400 OA
HETATM   42  H   UNL     1      43.408 -13.605   8.839  1.00  0.00     0.209 HD
ENDBRANCH  40  41
ENDBRANCH  39  40
ENDBRANCH  37  39
ENDBRANCH   5  37
TORSDOF 10
ENDMDL
MODEL 5
REMARK VINA RESULT:      -8.5      2.648      6.810
REMARK  10 active torsions:
REMARK  status: ('A' for Active; 'I' for Inactive)
REMARK    1  A    between atoms: C_2  and  N_3 
REMARK    2  A    between atoms: N_3  and  C_4 
REMARK    3  A    between atoms: C_6  and  N_7 
REMARK    4  A    between atoms: N_10  and  C_12 
REMARK    5  A    between atoms: C_25  and  N_26 
REMARK    6  A    between atoms: N_26  and  C_27 
REMARK    7  A    between atoms: C_27  and  C_28 
REMARK    8  A    between atoms: C_28  and  O_29 
REMARK    9  A    between atoms: C_33  and  O_34 
REMARK   10  A    between atoms: O_34  and  C_35 
ROOT
HETATM    1  C   UNL     1      42.373 -15.298   5.011  1.00  0.00     0.745 A 
HETATM    2  N   UNL     1      41.422 -15.476   4.100  1.00  0.00     0.130 NA
HETATM    3  C   UNL     1      40.497 -14.538   3.999  1.00  0.00     0.743 A 
HETATM    4  N   UNL     1      40.467 -13.474   4.787  1.00  0.00    -0.030 NA
HETATM    5  C   UNL     1      41.436 -13.376   5.687  1.00  0.00     0.238 A 
HETATM    6  N   UNL     1      42.399 -14.271   5.843  1.00  0.00    -0.030 NA
ENDROOT
BRANCH   3   7
HETATM    7  N   UNL     1      39.504 -14.693   3.028  1.00  0.00    -0.210 N 
HETATM    8  C   UNL     1      39.810 -15.643   1.952  1.00  0.00     0.169 C 
HETATM    9  C   UNL     1      40.714 -14.988   0.885  1.00  0.00     0.256 C 
HETATM   10  N   UNL     1      40.050 -13.697   0.335  1.00  0.00    -0.059 N 
HETATM   11  H   UNL     1      39.122 -13.986   0.002  1.00  0.00     0.281 HD
HETATM   12  C   UNL     1      39.766 -12.735   1.519  1.00  0.00     0.256 C 
HETATM   13  C   UNL     1      38.883 -13.440   2.578  1.00  0.00     0.169 C 
BRANCH  10  14
HETATM   14  C   UNL     1      40.746 -13.074  -0.892  1.00  0.00     0.129 C 
HETATM   15  C   UNL     1      39.904 -11.865  -1.385  1.00  0.00     0.043 C 
HETATM   16  C   UNL     1      40.580 -11.188  -2.589  1.00  0.00    -0.012 C 
HETATM   17  C   UNL     1      40.731 -12.218  -3.723  1.00  0.00     0.009 C 
HETATM   18  C   UNL     1      41.966 -10.679  -2.172  1.00  0.00     0.009 C 
HETATM   19  C   UNL     1      41.591 -13.403  -3.251  1.00  0.00    -0.012 C 
HETATM   20  C   UNL     1      40.908 -14.087  -2.046  1.00  0.00     0.043 C 
HETATM   21  C   UNL     1      42.974 -12.879  -2.832  1.00  0.00     0.009 C 
HETATM   22  C   UNL     1      42.828 -11.854  -1.694  1.00  0.00    -0.012 C 
HETATM   23  C   UNL     1      42.147 -12.536  -0.494  1.00  0.00     0.043 C 
ENDBRANCH  10  14
ENDBRANCH   3   7
BRANCH   1  24
HETATM   24  N   UNL     1      43.387 -16.243   5.157  1.00  0.00    -0.188 N 
HETATM   25  H   UNL     1      44.173 -15.838   5.649  1.00  0.00     0.184 HD
BRANCH  24  26
HETATM   26  C   UNL     1      43.681 -17.392   4.409  1.00  0.00     0.049 A 
HETATM   27  C   UNL     1      44.008 -18.624   4.984  1.00  0.00     0.033 A 
HETATM   28  C   UNL     1      44.331 -19.739   4.200  1.00  0.00     0.039 A 
HETATM   29  C   UNL     1      44.361 -19.635   2.811  1.00  0.00     0.078 A 
HETATM   30  C   UNL     1      44.058 -18.406   2.224  1.00  0.00     0.039 A 
HETATM   31  C   UNL     1      43.724 -17.298   3.013  1.00  0.00     0.033 A 
BRANCH  29  32
HETATM   32  O   UNL     1      44.666 -20.629   1.929  1.00  0.00    -0.255 OA
BRANCH  32  33
HETATM   33  C   UNL     1      43.761 -21.715   1.817  1.00  0.00     0.530 C 
HETATM   34  F   UNL     1      43.879 -22.554   2.870  1.00  0.00    -0.144 F 
HETATM   35  F   UNL     1      42.486 -21.278   1.734  1.00  0.00    -0.144 F 
HETATM   36  F   UNL     1      44.045 -22.408   0.695  1.00  0.00    -0.144 F 
ENDBRANCH  32  33
ENDBRANCH  29  32
ENDBRANCH  24  26
ENDBRANCH   1  24
BRANCH   5  37
HETATM   37  N   UNL     1      41.397 -12.245   6.483  1.00  0.00    -0.258 NA
HETATM   38  H   UNL     1      41.648 -12.513   7.430  1.00  0.00     0.130 HD
BRANCH  37  39
HETATM   39  C   UNL     1      40.159 -11.464   6.448  1.00  0.00     0.121 C 
BRANCH  39  40
HETATM   40  C   UNL     1      39.449 -11.448   7.808  1.00  0.00     0.178 C 
BRANCH  40  41
HETATM   41  O   UNL     1      39.064 -12.773   8.179  1.00  0.00    -0.400 OA
HETATM   42  H   UNL     1      39.184 -12.843   9.142  1.00  0.00     0.209 HD
ENDBRANCH  40  41
ENDBRANCH  39  40
ENDBRANCH  37  39
ENDBRANCH   5  37
TORSDOF 10
ENDMDL
MODEL 6
REMARK VINA RESULT:      -8.3      2.529      7.012
REMARK  10 active torsions:
REMARK  status: ('A' for Active; 'I' for Inactive)
REMARK    1  A    between atoms: C_2  and  N_3 
REMARK    2  A    between atoms: N_3  and  C_4 
REMARK    3  A    between atoms: C_6  and  N_7 
REMARK    4  A    between atoms: N_10  and  C_12 
REMARK    5  A    between atoms: C_25  and  N_26 
REMARK    6  A    between atoms: N_26  and  C_27 
REMARK    7  A    between atoms: C_27  and  C_28 
REMARK    8  A    between atoms: C_28  and  O_29 
REMARK    9  A    between atoms: C_33  and  O_34 
REMARK   10  A    between atoms: O_34  and  C_35 
ROOT
HETATM    1  C   UNL     1      40.730 -15.347   4.825  1.00  0.00     0.745 A 
HETATM    2  N   UNL     1      41.376 -14.607   3.931  1.00  0.00     0.130 NA
HETATM    3  C   UNL     1      41.177 -13.301   3.966  1.00  0.00     0.743 A 
HETATM    4  N   UNL     1      40.340 -12.727   4.818  1.00  0.00    -0.030 NA
HETATM    5  C   UNL     1      39.714 -13.532   5.666  1.00  0.00     0.238 A 
HETATM    6  N   UNL     1      39.867 -14.846   5.694  1.00  0.00    -0.030 NA
ENDROOT
BRANCH   3   7
HETATM    7  N   UNL     1      41.869 -12.504   3.050  1.00  0.00    -0.210 N 
HETATM    8  C   UNL     1      41.122 -11.364   2.507  1.00  0.00     0.169 C 
HETATM    9  C   UNL     1      40.186 -11.817   1.365  1.00  0.00     0.256 C 
HETATM   10  N   UNL     1      40.999 -12.545   0.261  1.00  0.00    -0.059 N 
HETATM   11  H   UNL     1      41.738 -11.887  -0.016  1.00  0.00     0.281 HD
HETATM   12  C   UNL     1      41.752 -13.743   0.898  1.00  0.00     0.256 C 
HETATM   13  C   UNL     1      42.653 -13.250   2.056  1.00  0.00     0.169 C 
BRANCH  10  14
HETATM   14  C   UNL     1      40.218 -12.848  -1.035  1.00  0.00     0.129 C 
HETATM   15  C   UNL     1      40.146 -14.387  -1.228  1.00  0.00     0.043 C 
HETATM   16  C   UNL     1      39.343 -14.739  -2.492  1.00  0.00    -0.012 C 
HETATM   17  C   UNL     1      40.019 -14.089  -3.711  1.00  0.00     0.009 C 
HETATM   18  C   UNL     1      37.914 -14.198  -2.351  1.00  0.00     0.009 C 
HETATM   19  C   UNL     1      40.065 -12.560  -3.541  1.00  0.00    -0.012 C 
HETATM   20  C   UNL     1      40.877 -12.208  -2.275  1.00  0.00     0.043 C 
HETATM   21  C   UNL     1      38.628 -12.033  -3.396  1.00  0.00     0.009 C 
HETATM   22  C   UNL     1      37.950 -12.675  -2.174  1.00  0.00    -0.012 C 
HETATM   23  C   UNL     1      38.760 -12.324  -0.913  1.00  0.00     0.043 C 
ENDBRANCH  10  14
ENDBRANCH   3   7
BRANCH   1  24
HETATM   24  N   UNL     1      40.908 -16.728   4.851  1.00  0.00    -0.188 N 
HETATM   25  H   UNL     1      40.594 -17.105   5.737  1.00  0.00     0.184 HD
BRANCH  24  26
HETATM   26  C   UNL     1      41.791 -17.550   4.136  1.00  0.00     0.049 A 
HETATM   27  C   UNL     1      41.749 -17.699   2.746  1.00  0.00     0.033 A 
HETATM   28  C   UNL     1      42.627 -18.559   2.072  1.00  0.00     0.039 A 
HETATM   29  C   UNL     1      43.554 -19.315   2.786  1.00  0.00     0.078 A 
HETATM   30  C   UNL     1      43.592 -19.192   4.176  1.00  0.00     0.039 A 
HETATM   31  C   UNL     1      42.720 -18.322   4.842  1.00  0.00     0.033 A 
BRANCH  29  32
HETATM   32  O   UNL     1      44.458 -20.194   2.266  1.00  0.00    -0.255 OA
BRANCH  32  33
HETATM   33  C   UNL     1      44.045 -21.539   2.088  1.00  0.00     0.530 C 
HETATM   34  F   UNL     1      44.770 -22.144   1.121  1.00  0.00    -0.144 F 
HETATM   35  F   UNL     1      44.161 -22.239   3.237  1.00  0.00    -0.144 F 
HETATM   36  F   UNL     1      42.750 -21.553   1.712  1.00  0.00    -0.144 F 
ENDBRANCH  32  33
ENDBRANCH  29  32
ENDBRANCH  24  26
ENDBRANCH   1  24
BRANCH   5  37
HETATM   37  N   UNL     1      38.863 -12.907   6.560  1.00  0.00    -0.258 NA
HETATM   38  H   UNL     1      37.963 -12.782   6.109  1.00  0.00     0.130 HD
BRANCH  37  39
HETATM   39  C   UNL     1      39.349 -11.664   7.164  1.00  0.00     0.121 C 
BRANCH  39  40
HETATM   40  C   UNL     1      39.246 -11.689   8.695  1.00  0.00     0.178 C 
BRANCH  40  41
HETATM   41  O   UNL     1      38.635 -12.905   9.128  1.00  0.00    -0.400 OA
HETATM   42  H   UNL     1      37.800 -12.662   9.565  1.00  0.00     0.209 HD
ENDBRANCH  40  41
ENDBRANCH  39  40
ENDBRANCH  37  39
ENDBRANCH   5  37
TORSDOF 10
ENDMDL
MODEL 7
REMARK VINA RESULT:      -8.2      3.916      7.485
REMARK  10 active torsions:
REMARK  status: ('A' for Active; 'I' for Inactive)
REMARK    1  A    between atoms: C_2  and  N_3 
REMARK    2  A    between atoms: N_3  and  C_4 
REMARK    3  A    between atoms: C_6  and  N_7 
REMARK    4  A    between atoms: N_10  and  C_12 
REMARK    5  A    between atoms: C_25  and  N_26 
REMARK    6  A    between atoms: N_26  and  C_27 
REMARK    7  A    between atoms: C_27  and  C_28 
REMARK    8  A    between atoms: C_28  and  O_29 
REMARK    9  A    between atoms: C_33  and  O_34 
REMARK   10  A    between atoms: O_34  and  C_35 
ROOT
HETATM    1  C   UNL     1      42.488 -18.228   2.711  1.00  0.00     0.745 A 
HETATM    2  N   UNL     1      42.346 -17.582   3.863  1.00  0.00     0.130 NA
HETATM    3  C   UNL     1      43.148 -17.928   4.855  1.00  0.00     0.743 A 
HETATM    4  N   UNL     1      44.037 -18.904   4.750  1.00  0.00    -0.030 NA
HETATM    5  C   UNL     1      44.106 -19.519   3.577  1.00  0.00     0.238 A 
HETATM    6  N   UNL     1      43.341 -19.224   2.537  1.00  0.00    -0.030 NA
ENDROOT
BRANCH   3   7
HETATM    7  N   UNL     1      43.032 -17.241   6.066  1.00  0.00    -0.210 N 
HETATM    8  C   UNL     1      41.664 -17.043   6.557  1.00  0.00     0.169 C 
HETATM    9  C   UNL     1      40.995 -15.847   5.844  1.00  0.00     0.256 C 
HETATM   10  N   UNL     1      41.855 -14.566   6.019  1.00  0.00    -0.059 N 
HETATM   11  H   UNL     1      41.979 -14.455   7.033  1.00  0.00     0.281 HD
HETATM   12  C   UNL     1      43.280 -14.840   5.470  1.00  0.00     0.256 C 
HETATM   13  C   UNL     1      43.902 -16.062   6.189  1.00  0.00     0.169 C 
BRANCH  10  14
HETATM   14  C   UNL     1      41.186 -13.259   5.546  1.00  0.00     0.129 C 
HETATM   15  C   UNL     1      39.660 -13.350   5.821  1.00  0.00     0.043 C 
HETATM   16  C   UNL     1      38.953 -12.051   5.398  1.00  0.00    -0.012 C 
HETATM   17  C   UNL     1      39.202 -11.812   3.899  1.00  0.00     0.009 C 
HETATM   18  C   UNL     1      39.524 -10.877   6.205  1.00  0.00     0.009 C 
HETATM   19  C   UNL     1      40.711 -11.688   3.624  1.00  0.00    -0.012 C 
HETATM   20  C   UNL     1      41.419 -12.996   4.043  1.00  0.00     0.043 C 
HETATM   21  C   UNL     1      41.271 -10.513   4.442  1.00  0.00     0.009 C 
HETATM   22  C   UNL     1      41.031 -10.751   5.943  1.00  0.00    -0.012 C 
HETATM   23  C   UNL     1      41.735 -12.055   6.360  1.00  0.00     0.043 C 
ENDBRANCH  10  14
ENDBRANCH   3   7
BRANCH   1  24
HETATM   24  N   UNL     1      41.684 -17.900   1.621  1.00  0.00    -0.188 N 
HETATM   25  H   UNL     1      41.890 -18.509   0.839  1.00  0.00     0.184 HD
BRANCH  24  26
HETATM   26  C   UNL     1      41.044 -16.698   1.286  1.00  0.00     0.049 A 
HETATM   27  C   UNL     1      41.492 -15.842   0.276  1.00  0.00     0.033 A 
HETATM   28  C   UNL     1      40.844 -14.631  -0.002  1.00  0.00     0.039 A 
HETATM   29  C   UNL     1      39.741 -14.236   0.750  1.00  0.00     0.078 A 
HETATM   30  C   UNL     1      39.296 -15.071   1.776  1.00  0.00     0.039 A 
HETATM   31  C   UNL     1      39.941 -16.286   2.042  1.00  0.00     0.033 A 
BRANCH  29  32
HETATM   32  O   UNL     1      39.023 -13.087   0.598  1.00  0.00    -0.255 OA
BRANCH  32  33
HETATM   33  C   UNL     1      37.785 -13.167  -0.089  1.00  0.00     0.530 C 
HETATM   34  F   UNL     1      37.782 -14.198  -0.962  1.00  0.00    -0.144 F 
HETATM   35  F   UNL     1      36.758 -13.312   0.776  1.00  0.00    -0.144 F 
HETATM   36  F   UNL     1      37.595 -12.027  -0.785  1.00  0.00    -0.144 F 
ENDBRANCH  32  33
ENDBRANCH  29  32
ENDBRANCH  24  26
ENDBRANCH   1  24
BRANCH   5  37
HETATM   37  N   UNL     1      45.057 -20.519   3.484  1.00  0.00    -0.258 NA
HETATM   38  H   UNL     1      45.487 -20.465   2.566  1.00  0.00     0.130 HD
BRANCH  37  39
HETATM   39  C   UNL     1      44.609 -21.878   3.797  1.00  0.00     0.121 C 
BRANCH  39  40
HETATM   40  C   UNL     1      45.064 -22.327   5.192  1.00  0.00     0.178 C 
BRANCH  40  41
HETATM   41  O   UNL     1      44.267 -21.697   6.197  1.00  0.00    -0.400 OA
HETATM   42  H   UNL     1      43.804 -22.407   6.676  1.00  0.00     0.209 HD
ENDBRANCH  40  41
ENDBRANCH  39  40
ENDBRANCH  37  39
ENDBRANCH   5  37
TORSDOF 10
ENDMDL
MODEL 8
REMARK VINA RESULT:      -8.1      4.604      6.058
REMARK  10 active torsions:
REMARK  status: ('A' for Active; 'I' for Inactive)
REMARK    1  A    between atoms: C_2  and  N_3 
REMARK    2  A    between atoms: N_3  and  C_4 
REMARK    3  A    between atoms: C_6  and  N_7 
REMARK    4  A    between atoms: N_10  and  C_12 
REMARK    5  A    between atoms: C_25  and  N_26 
REMARK    6  A    between atoms: N_26  and  C_27 
REMARK    7  A    between atoms: C_27  and  C_28 
REMARK    8  A    between atoms: C_28  and  O_29 
REMARK    9  A    between atoms: C_33  and  O_34 
REMARK   10  A    between atoms: O_34  and  C_35 
ROOT
HETATM    1  C   UNL     1      41.653 -13.717   5.561  1.00  0.00     0.745 A 
HETATM    2  N   UNL     1      41.058 -12.694   6.166  1.00  0.00     0.130 NA
HETATM    3  C   UNL     1      40.919 -11.578   5.472  1.00  0.00     0.743 A 
HETATM    4  N   UNL     1      41.380 -11.439   4.239  1.00  0.00    -0.030 NA
HETATM    5  C   UNL     1      41.982 -12.495   3.709  1.00  0.00     0.238 A 
HETATM    6  N   UNL     1      42.154 -13.647   4.339  1.00  0.00    -0.030 NA
ENDROOT
BRANCH   3   7
HETATM    7  N   UNL     1      40.271 -10.500   6.082  1.00  0.00    -0.210 N 
HETATM    8  C   UNL     1      41.126  -9.363   6.438  1.00  0.00     0.169 C 
HETATM    9  C   UNL     1      41.871  -9.632   7.765  1.00  0.00     0.256 C 
HETATM   10  N   UNL     1      40.857  -9.959   8.894  1.00  0.00    -0.059 N 
HETATM   11  H   UNL     1      40.203  -9.167   8.914  1.00  0.00     0.281 HD
HETATM   12  C   UNL     1      39.996 -11.175   8.459  1.00  0.00     0.256 C 
HETATM   13  C   UNL     1      39.293 -10.875   7.113  1.00  0.00     0.169 C 
BRANCH  10  14
HETATM   14  C   UNL     1      41.457 -10.027  10.313  1.00  0.00     0.129 C 
HETATM   15  C   UNL     1      40.732 -11.146  11.110  1.00  0.00     0.043 C 
HETATM   16  C   UNL     1      41.324 -11.275  12.525  1.00  0.00    -0.012 C 
HETATM   17  C   UNL     1      41.172  -9.929  13.255  1.00  0.00     0.009 C 
HETATM   18  C   UNL     1      42.812 -11.637  12.421  1.00  0.00     0.009 C 
HETATM   19  C   UNL     1      41.916  -8.822  12.487  1.00  0.00    -0.012 C 
HETATM   20  C   UNL     1      41.317  -8.689  11.069  1.00  0.00     0.043 C 
HETATM   21  C   UNL     1      43.403  -9.199  12.386  1.00  0.00     0.009 C 
HETATM   22  C   UNL     1      43.559 -10.541  11.650  1.00  0.00    -0.012 C 
HETATM   23  C   UNL     1      42.962 -10.407  10.238  1.00  0.00     0.043 C 
ENDBRANCH  10  14
ENDBRANCH   3   7
BRANCH   1  24
HETATM   24  N   UNL     1      41.818 -14.927   6.231  1.00  0.00    -0.188 N 
HETATM   25  H   UNL     1      41.819 -14.775   7.232  1.00  0.00     0.184 HD
BRANCH  24  26
HETATM   26  C   UNL     1      42.400 -16.133   5.812  1.00  0.00     0.049 A 
HETATM   27  C   UNL     1      43.742 -16.458   6.033  1.00  0.00     0.033 A 
HETATM   28  C   UNL     1      44.293 -17.658   5.565  1.00  0.00     0.039 A 
HETATM   29  C   UNL     1      43.513 -18.552   4.835  1.00  0.00     0.078 A 
HETATM   30  C   UNL     1      42.178 -18.229   4.588  1.00  0.00     0.039 A 
HETATM   31  C   UNL     1      41.629 -17.034   5.069  1.00  0.00     0.033 A 
BRANCH  29  32
HETATM   32  O   UNL     1      43.918 -19.745   4.313  1.00  0.00    -0.255 OA
BRANCH  32  33
HETATM   33  C   UNL     1      44.163 -19.807   2.918  1.00  0.00     0.530 C 
HETATM   34  F   UNL     1      45.234 -20.585   2.648  1.00  0.00    -0.144 F 
HETATM   35  F   UNL     1      43.086 -20.283   2.256  1.00  0.00    -0.144 F 
HETATM   36  F   UNL     1      44.423 -18.563   2.464  1.00  0.00    -0.144 F 
ENDBRANCH  32  33
ENDBRANCH  29  32
ENDBRANCH  24  26
ENDBRANCH   1  24
BRANCH   5  37
HETATM   37  N   UNL     1      42.435 -12.333   2.412  1.00  0.00    -0.258 NA
HETATM   38  H   UNL     1      42.953 -11.461   2.361  1.00  0.00     0.130 HD
BRANCH  37  39
HETATM   39  C   UNL     1      41.429 -12.431   1.352  1.00  0.00     0.121 C 
BRANCH  39  40
HETATM   40  C   UNL     1      41.800 -11.586   0.126  1.00  0.00     0.178 C 
BRANCH  40  41
HETATM   41  O   UNL     1      43.037 -10.907   0.351  1.00  0.00    -0.400 OA
HETATM   42  H   UNL     1      43.706 -11.348  -0.202  1.00  0.00     0.209 HD
ENDBRANCH  40  41
ENDBRANCH  39  40
ENDBRANCH  37  39
ENDBRANCH   5  37
TORSDOF 10
ENDMDL
MODEL 9
REMARK VINA RESULT:      -8.0      4.781      6.123
REMARK  10 active torsions:
REMARK  status: ('A' for Active; 'I' for Inactive)
REMARK    1  A    between atoms: C_2  and  N_3 
REMARK    2  A    between atoms: N_3  and  C_4 
REMARK    3  A    between atoms: C_6  and  N_7 
REMARK    4  A    between atoms: N_10  and  C_12 
REMARK    5  A    between atoms: C_25  and  N_26 
REMARK    6  A    between atoms: N_26  and  C_27 
REMARK    7  A    between atoms: C_27  and  C_28 
REMARK    8  A    between atoms: C_28  and  O_29 
REMARK    9  A    between atoms: C_33  and  O_34 
REMARK   10  A    between atoms: O_34  and  C_35 
ROOT
HETATM    1  C   UNL     1      40.640 -13.022   5.754  1.00  0.00     0.745 A 
HETATM    2  N   UNL     1      40.715 -11.836   6.348  1.00  0.00     0.130 NA
HETATM    3  C   UNL     1      40.040 -10.840   5.801  1.00  0.00     0.743 A 
HETATM    4  N   UNL     1      39.343 -10.977   4.683  1.00  0.00    -0.030 NA
HETATM    5  C   UNL     1      39.333 -12.184   4.135  1.00  0.00     0.238 A 
HETATM    6  N   UNL     1      39.979 -13.229   4.628  1.00  0.00    -0.030 NA
ENDROOT
BRANCH   3   7
HETATM    7  N   UNL     1      40.084  -9.591   6.427  1.00  0.00    -0.210 N 
HETATM    8  C   UNL     1      41.424  -9.084   6.740  1.00  0.00     0.169 C 
HETATM    9  C   UNL     1      41.962  -9.725   8.038  1.00  0.00     0.256 C 
HETATM   10  N   UNL     1      40.972  -9.482   9.209  1.00  0.00    -0.059 N 
HETATM   11  H   UNL     1      40.838  -8.464   9.249  1.00  0.00     0.281 HD
HETATM   12  C   UNL     1      39.583 -10.052   8.818  1.00  0.00     0.256 C 
HETATM   13  C   UNL     1      39.095  -9.406   7.498  1.00  0.00     0.169 C 
BRANCH  10  14
HETATM   14  C   UNL     1      41.498  -9.877  10.604  1.00  0.00     0.129 C 
HETATM   15  C   UNL     1      43.024 -10.150  10.504  1.00  0.00     0.043 C 
HETATM   16  C   UNL     1      43.602 -10.513  11.883  1.00  0.00    -0.012 C 
HETATM   17  C   UNL     1      42.880 -11.764  12.414  1.00  0.00     0.009 C 
HETATM   18  C   UNL     1      43.378  -9.343  12.851  1.00  0.00     0.009 C 
HETATM   19  C   UNL     1      41.371 -11.489  12.546  1.00  0.00    -0.012 C 
HETATM   20  C   UNL     1      40.791 -11.131  11.160  1.00  0.00     0.043 C 
HETATM   21  C   UNL     1      41.162 -10.313  13.513  1.00  0.00     0.009 C 
HETATM   22  C   UNL     1      41.877  -9.059  12.983  1.00  0.00    -0.012 C 
HETATM   23  C   UNL     1      41.298  -8.702  11.601  1.00  0.00     0.043 C 
ENDBRANCH  10  14
ENDBRANCH   3   7
BRANCH   1  24
HETATM   24  N   UNL     1      41.316 -14.116   6.289  1.00  0.00    -0.188 N 
HETATM   25  H   UNL     1      41.793 -13.850   7.141  1.00  0.00     0.184 HD
BRANCH  24  26
HETATM   26  C   UNL     1      41.800 -15.281   5.675  1.00  0.00     0.049 A 
HETATM   27  C   UNL     1      42.998 -15.332   4.956  1.00  0.00     0.033 A 
HETATM   28  C   UNL     1      43.427 -16.508   4.326  1.00  0.00     0.039 A 
HETATM   29  C   UNL     1      42.645 -17.659   4.381  1.00  0.00     0.078 A 
HETATM   30  C   UNL     1      41.437 -17.616   5.078  1.00  0.00     0.039 A 
HETATM   31  C   UNL     1      41.018 -16.441   5.715  1.00  0.00     0.033 A 
BRANCH  29  32
HETATM   32  O   UNL     1      42.933 -18.864   3.810  1.00  0.00    -0.255 OA
BRANCH  32  33
HETATM   33  C   UNL     1      42.976 -18.931   2.395  1.00  0.00     0.530 C 
HETATM   34  F   UNL     1      42.750 -20.191   1.963  1.00  0.00    -0.144 F 
HETATM   35  F   UNL     1      42.069 -18.099   1.840  1.00  0.00    -0.144 F 
HETATM   36  F   UNL     1      44.204 -18.559   1.977  1.00  0.00    -0.144 F 
ENDBRANCH  32  33
ENDBRANCH  29  32
ENDBRANCH  24  26
ENDBRANCH   1  24
BRANCH   5  37
HETATM   37  N   UNL     1      38.581 -12.308   2.981  1.00  0.00    -0.258 NA
HETATM   38  H   UNL     1      37.717 -12.790   3.213  1.00  0.00     0.130 HD
BRANCH  37  39
HETATM   39  C   UNL     1      39.249 -12.913   1.827  1.00  0.00     0.121 C 
BRANCH  39  40
HETATM   40  C   UNL     1      38.640 -14.272   1.455  1.00  0.00     0.178 C 
BRANCH  40  41
HETATM   41  O   UNL     1      39.000 -15.255   2.427  1.00  0.00    -0.400 OA
HETATM   42  H   UNL     1      38.702 -14.921   3.291  1.00  0.00     0.209 HD
ENDBRANCH  40  41
ENDBRANCH  39  40
ENDBRANCH  37  39
ENDBRANCH   5  37
TORSDOF 10
ENDMDL
MODEL 10
REMARK VINA RESULT:      -7.9      2.993      7.195
REMARK  10 active torsions:
REMARK  status: ('A' for Active; 'I' for Inactive)
REMARK    1  A    between atoms: C_2  and  N_3 
REMARK    2  A    between atoms: N_3  and  C_4 
REMARK    3  A    between atoms: C_6  and  N_7 
REMARK    4  A    between atoms: N_10  and  C_12 
REMARK    5  A    between atoms: C_25  and  N_26 
REMARK    6  A    between atoms: N_26  and  C_27 
REMARK    7  A    between atoms: C_27  and  C_28 
REMARK    8  A    between atoms: C_28  and  O_29 
REMARK    9  A    between atoms: C_33  and  O_34 
REMARK   10  A    between atoms: O_34  and  C_35 
ROOT
HETATM    1  C   UNL     1      41.358 -15.925   3.679  1.00  0.00     0.745 A 
HETATM    2  N   UNL     1      40.455 -15.114   3.139  1.00  0.00     0.130 NA
HETATM    3  C   UNL     1      40.338 -13.905   3.658  1.00  0.00     0.743 A 
HETATM    4  N   UNL     1      41.048 -13.502   4.701  1.00  0.00    -0.030 NA
HETATM    5  C   UNL     1      41.913 -14.373   5.201  1.00  0.00     0.238 A 
HETATM    6  N   UNL     1      42.090 -15.598   4.731  1.00  0.00    -0.030 NA
ENDROOT
BRANCH   3   7
HETATM    7  N   UNL     1      39.412 -13.028   3.085  1.00  0.00    -0.210 N 
HETATM    8  C   UNL     1      38.991 -13.354   1.717  1.00  0.00     0.169 C 
HETATM    9  C   UNL     1      40.042 -12.873   0.693  1.00  0.00     0.256 C 
HETATM   10  N   UNL     1      40.303 -11.352   0.863  1.00  0.00    -0.059 N 
HETATM   11  H   UNL     1      39.381 -10.904   0.785  1.00  0.00     0.281 HD
HETATM   12  C   UNL     1      40.755 -11.080   2.322  1.00  0.00     0.256 C 
HETATM   13  C   UNL     1      39.690 -11.604   3.316  1.00  0.00     0.169 C 
BRANCH  10  14
HETATM   14  C   UNL     1      41.162 -10.707  -0.244  1.00  0.00     0.129 C 
HETATM   15  C   UNL     1      41.815  -9.415   0.319  1.00  0.00     0.043 C 
HETATM   16  C   UNL     1      42.713  -8.755  -0.742  1.00  0.00    -0.012 C 
HETATM   17  C   UNL     1      41.862  -8.415  -1.977  1.00  0.00     0.009 C 
HETATM   18  C   UNL     1      43.828  -9.731  -1.140  1.00  0.00     0.009 C 
HETATM   19  C   UNL     1      41.237  -9.696  -2.559  1.00  0.00    -0.012 C 
HETATM   20  C   UNL     1      40.330 -10.355  -1.496  1.00  0.00     0.043 C 
HETATM   21  C   UNL     1      42.364 -10.666  -2.949  1.00  0.00     0.009 C 
HETATM   22  C   UNL     1      43.214 -11.013  -1.715  1.00  0.00    -0.012 C 
HETATM   23  C   UNL     1      42.310 -11.669  -0.656  1.00  0.00     0.043 C 
ENDBRANCH  10  14
ENDBRANCH   3   7
BRANCH   1  24
HETATM   24  N   UNL     1      41.542 -17.208   3.169  1.00  0.00    -0.188 N 
HETATM   25  H   UNL     1      40.659 -17.588   2.853  1.00  0.00     0.184 HD
BRANCH  24  26
HETATM   26  C   UNL     1      42.542 -18.158   3.422  1.00  0.00     0.049 A 
HETATM   27  C   UNL     1      43.036 -19.034   2.451  1.00  0.00     0.033 A 
HETATM   28  C   UNL     1      44.010 -19.995   2.755  1.00  0.00     0.039 A 
HETATM   29  C   UNL     1      44.494 -20.117   4.055  1.00  0.00     0.078 A 
HETATM   30  C   UNL     1      43.994 -19.263   5.039  1.00  0.00     0.039 A 
HETATM   31  C   UNL     1      43.028 -18.297   4.727  1.00  0.00     0.033 A 
BRANCH  29  32
HETATM   32  O   UNL     1      45.430 -21.007   4.494  1.00  0.00    -0.255 OA
BRANCH  32  33
HETATM   33  C   UNL     1      44.982 -22.290   4.899  1.00  0.00     0.530 C 
HETATM   34  F   UNL     1      46.000 -23.018   5.409  1.00  0.00    -0.144 F 
HETATM   35  F   UNL     1      43.997 -22.193   5.818  1.00  0.00    -0.144 F 
HETATM   36  F   UNL     1      44.496 -22.944   3.824  1.00  0.00    -0.144 F 
ENDBRANCH  32  33
ENDBRANCH  29  32
ENDBRANCH  24  26
ENDBRANCH   1  24
BRANCH   5  37
HETATM   37  N   UNL     1      42.659 -13.921   6.275  1.00  0.00    -0.258 NA
HETATM   38  H   UNL     1      42.314 -13.003   6.539  1.00  0.00     0.130 HD
BRANCH  37  39
HETATM   39  C   UNL     1      44.114 -13.931   6.110  1.00  0.00     0.121 C 
BRANCH  39  40
HETATM   40  C   UNL     1      44.845 -13.609   7.421  1.00  0.00     0.178 C 
BRANCH  40  41
HETATM   41  O   UNL     1      44.202 -14.265   8.516  1.00  0.00    -0.400 OA
HETATM   42  H   UNL     1      43.272 -13.981   8.509  1.00  0.00     0.209 HD
ENDBRANCH  40  41
ENDBRANCH  39  40
ENDBRANCH  37  39
ENDBRANCH   5  37
TORSDOF 10
ENDMDL
