MODEL 1
REMARK VINA RESULT:      -8.5      0.000      0.000
REMARK  5 active torsions:
REMARK  status: ('A' for Active; 'I' for Inactive)
REMARK    1  A    between atoms: O_2  and  C_3 
REMARK    2  A    between atoms: C_4  and  N_5 
REMARK       I    between atoms: N_5  and  C_6 
REMARK    3  A    between atoms: C_6  and  C_7 
REMARK    4  A    between atoms: C_7  and  N_8 
REMARK    5  A    between atoms: N_8  and  C_9 
ROOT
HETATM    1  C   UNL     1      41.381 -16.410   0.628  1.00  0.00     0.195 C 
ENDROOT
BRANCH   1   2
HETATM    2  C   UNL     1      41.019 -15.092  -0.073  1.00  0.00     0.235 C 
HETATM    3  N   UNL     1      41.979 -14.687  -0.978  1.00  0.00    -0.324 N 
HETATM    4  H   UNL     1      42.783 -15.306  -1.077  1.00  0.00     0.169 HD
HETATM    5  O   UNL     1      39.949 -14.533   0.153  1.00  0.00    -0.272 OA
BRANCH   3   6
HETATM    6  C   UNL     1      42.044 -13.485  -1.709  1.00  0.00     0.068 A 
HETATM    7  C   UNL     1      41.672 -13.528  -3.066  1.00  0.00     0.095 A 
HETATM    8  C   UNL     1      41.791 -12.387  -3.865  1.00  0.00     0.039 A 
HETATM    9  C   UNL     1      42.247 -11.191  -3.309  1.00  0.00     0.003 A 
HETATM   10  C   UNL     1      42.586 -11.136  -1.959  1.00  0.00     0.002 A 
HETATM   11  C   UNL     1      42.483 -12.278  -1.160  1.00  0.00     0.032 A 
BRANCH   7  12
HETATM   12  O   UNL     1      41.224 -14.735  -3.552  1.00  0.00    -0.354 OA
HETATM   13  C   UNL     1      39.805 -14.812  -3.675  1.00  0.00     0.210 C 
ENDBRANCH   7  12
ENDBRANCH   3   6
ENDBRANCH   1   2
BRANCH   1  14
HETATM   14  N   UNL     1      42.834 -16.667   0.664  1.00  0.00    -0.284 NA
HETATM   15  H   UNL     1      43.193 -16.884  -0.265  1.00  0.00     0.128 HD
BRANCH  14  16
HETATM   16  C   UNL     1      43.326 -17.601   1.597  1.00  0.00     0.009 A 
HETATM   17  C   UNL     1      43.469 -18.970   1.330  1.00  0.00     0.035 A 
HETATM   18  C   UNL     1      43.890 -19.884   2.315  1.00  0.00    -0.024 A 
HETATM   19  C   UNL     1      44.158 -19.421   3.620  1.00  0.00    -0.026 A 
HETATM   20  C   UNL     1      44.044 -21.251   2.027  1.00  0.00     0.012 A 
HETATM   21  C   UNL     1      43.978 -18.062   3.906  1.00  0.00     0.014 A 
HETATM   22  C   UNL     1      44.582 -20.334   4.600  1.00  0.00     0.012 A 
HETATM   23  C   UNL     1      43.551 -17.174   2.911  1.00  0.00     0.024 A 
HETATM   24  C   UNL     1      44.736 -21.688   4.297  1.00  0.00     0.001 A 
HETATM   25  C   UNL     1      44.464 -22.146   3.011  1.00  0.00     0.001 A 
ENDBRANCH  14  16
ENDBRANCH   1  14
TORSDOF 5
ENDMDL
MODEL 2
REMARK VINA RESULT:      -8.4      4.961      8.258
REMARK  5 active torsions:
REMARK  status: ('A' for Active; 'I' for Inactive)
REMARK    1  A    between atoms: O_2  and  C_3 
REMARK    2  A    between atoms: C_4  and  N_5 
REMARK       I    between atoms: N_5  and  C_6 
REMARK    3  A    between atoms: C_6  and  C_7 
REMARK    4  A    between atoms: C_7  and  N_8 
REMARK    5  A    between atoms: N_8  and  C_9 
ROOT
HETATM    1  C   UNL     1      44.336 -18.676   7.885  1.00  0.00     0.195 C 
ENDROOT
BRANCH   1   2
HETATM    2  C   UNL     1      44.031 -19.684   6.767  1.00  0.00     0.235 C 
HETATM    3  N   UNL     1      44.496 -19.272   5.535  1.00  0.00    -0.324 N 
HETATM    4  H   UNL     1      44.985 -18.377   5.522  1.00  0.00     0.169 HD
HETATM    5  O   UNL     1      43.476 -20.750   7.017  1.00  0.00    -0.272 OA
BRANCH   3   6
HETATM    6  C   UNL     1      44.298 -19.873   4.276  1.00  0.00     0.068 A 
HETATM    7  C   UNL     1      43.556 -19.154   3.321  1.00  0.00     0.095 A 
HETATM    8  C   UNL     1      43.257 -19.729   2.082  1.00  0.00     0.039 A 
HETATM    9  C   UNL     1      43.725 -21.007   1.777  1.00  0.00     0.003 A 
HETATM   10  C   UNL     1      44.488 -21.710   2.707  1.00  0.00     0.002 A 
HETATM   11  C   UNL     1      44.775 -21.145   3.952  1.00  0.00     0.032 A 
BRANCH   7  12
HETATM   12  O   UNL     1      43.128 -17.896   3.681  1.00  0.00    -0.354 OA
HETATM   13  C   UNL     1      43.539 -16.871   2.779  1.00  0.00     0.210 C 
ENDBRANCH   7  12
ENDBRANCH   3   6
ENDBRANCH   1   2
BRANCH   1  14
HETATM   14  N   UNL     1      43.205 -17.771   8.174  1.00  0.00    -0.284 NA
HETATM   15  H   UNL     1      42.333 -18.291   8.264  1.00  0.00     0.128 HD
BRANCH  14  16
HETATM   16  C   UNL     1      43.013 -16.652   7.342  1.00  0.00     0.009 A 
HETATM   17  C   UNL     1      41.849 -16.424   6.595  1.00  0.00     0.035 A 
HETATM   18  C   UNL     1      41.726 -15.333   5.714  1.00  0.00    -0.024 A 
HETATM   19  C   UNL     1      42.812 -14.447   5.554  1.00  0.00    -0.026 A 
HETATM   20  C   UNL     1      40.546 -15.110   4.985  1.00  0.00     0.012 A 
HETATM   21  C   UNL     1      43.993 -14.690   6.265  1.00  0.00     0.014 A 
HETATM   22  C   UNL     1      42.686 -13.356   4.677  1.00  0.00     0.012 A 
HETATM   23  C   UNL     1      44.093 -15.787   7.130  1.00  0.00     0.024 A 
HETATM   24  C   UNL     1      41.504 -13.145   3.964  1.00  0.00     0.001 A 
HETATM   25  C   UNL     1      40.436 -14.024   4.117  1.00  0.00     0.001 A 
ENDBRANCH  14  16
ENDBRANCH   1  14
TORSDOF 5
ENDMDL
MODEL 3
REMARK VINA RESULT:      -8.3      7.604      9.730
REMARK  5 active torsions:
REMARK  status: ('A' for Active; 'I' for Inactive)
REMARK    1  A    between atoms: O_2  and  C_3 
REMARK    2  A    between atoms: C_4  and  N_5 
REMARK       I    between atoms: N_5  and  C_6 
REMARK    3  A    between atoms: C_6  and  C_7 
REMARK    4  A    between atoms: C_7  and  N_8 
REMARK    5  A    between atoms: N_8  and  C_9 
ROOT
HETATM    1  C   UNL     1      45.257 -13.236   7.727  1.00  0.00     0.195 C 
ENDROOT
BRANCH   1   2
HETATM    2  C   UNL     1      45.119 -12.075   8.723  1.00  0.00     0.235 C 
HETATM    3  N   UNL     1      43.996 -12.183   9.517  1.00  0.00    -0.324 N 
HETATM    4  H   UNL     1      43.418 -13.008   9.358  1.00  0.00     0.169 HD
HETATM    5  O   UNL     1      45.979 -11.201   8.793  1.00  0.00    -0.272 OA
BRANCH   3   6
HETATM    6  C   UNL     1      43.487 -11.257  10.449  1.00  0.00     0.068 A 
HETATM    7  C   UNL     1      42.706 -10.197   9.952  1.00  0.00     0.095 A 
HETATM    8  C   UNL     1      42.239  -9.201  10.816  1.00  0.00     0.039 A 
HETATM    9  C   UNL     1      42.518  -9.276  12.180  1.00  0.00     0.003 A 
HETATM   10  C   UNL     1      43.264 -10.341  12.681  1.00  0.00     0.002 A 
HETATM   11  C   UNL     1      43.746 -11.330  11.819  1.00  0.00     0.032 A 
BRANCH   7  12
HETATM   12  O   UNL     1      42.461 -10.184   8.598  1.00  0.00    -0.354 OA
HETATM   13  C   UNL     1      41.099 -10.436   8.260  1.00  0.00     0.210 C 
ENDBRANCH   7  12
ENDBRANCH   3   6
ENDBRANCH   1   2
BRANCH   1  14
HETATM   14  N   UNL     1      44.325 -14.348   8.000  1.00  0.00    -0.284 NA
HETATM   15  H   UNL     1      44.601 -14.862   8.835  1.00  0.00     0.128 HD
BRANCH  14  16
HETATM   16  C   UNL     1      44.034 -15.249   6.958  1.00  0.00     0.009 A 
HETATM   17  C   UNL     1      44.487 -16.575   6.921  1.00  0.00     0.035 A 
HETATM   18  C   UNL     1      44.240 -17.421   5.823  1.00  0.00    -0.024 A 
HETATM   19  C   UNL     1      43.533 -16.920   4.709  1.00  0.00    -0.026 A 
HETATM   20  C   UNL     1      44.687 -18.752   5.809  1.00  0.00     0.012 A 
HETATM   21  C   UNL     1      43.113 -15.584   4.720  1.00  0.00     0.014 A 
HETATM   22  C   UNL     1      43.284 -17.767   3.616  1.00  0.00     0.012 A 
HETATM   23  C   UNL     1      43.377 -14.761   5.821  1.00  0.00     0.024 A 
HETATM   24  C   UNL     1      43.730 -19.090   3.620  1.00  0.00     0.001 A 
HETATM   25  C   UNL     1      44.434 -19.581   4.716  1.00  0.00     0.001 A 
ENDBRANCH  14  16
ENDBRANCH   1  14
TORSDOF 5
ENDMDL
MODEL 4
REMARK VINA RESULT:      -8.2      2.673      3.755
REMARK  5 active torsions:
REMARK  status: ('A' for Active; 'I' for Inactive)
REMARK    1  A    between atoms: O_2  and  C_3 
REMARK    2  A    between atoms: C_4  and  N_5 
REMARK       I    between atoms: N_5  and  C_6 
REMARK    3  A    between atoms: C_6  and  C_7 
REMARK    4  A    between atoms: C_7  and  N_8 
REMARK    5  A    between atoms: N_8  and  C_9 
ROOT
HETATM    1  C   UNL     1      41.048 -15.753   5.075  1.00  0.00     0.195 C 
ENDROOT
BRANCH   1   2
HETATM    2  C   UNL     1      40.459 -14.817   4.009  1.00  0.00     0.235 C 
HETATM    3  N   UNL     1      39.999 -15.495   2.899  1.00  0.00    -0.324 N 
HETATM    4  H   UNL     1      40.091 -16.510   2.930  1.00  0.00     0.169 HD
HETATM    5  O   UNL     1      40.387 -13.607   4.205  1.00  0.00    -0.272 OA
BRANCH   3   6
HETATM    6  C   UNL     1      39.510 -14.966   1.688  1.00  0.00     0.068 A 
HETATM    7  C   UNL     1      40.411 -14.866   0.611  1.00  0.00     0.095 A 
HETATM    8  C   UNL     1      40.008 -14.277  -0.591  1.00  0.00     0.039 A 
HETATM    9  C   UNL     1      38.699 -13.818  -0.738  1.00  0.00     0.003 A 
HETATM   10  C   UNL     1      37.795 -13.945   0.314  1.00  0.00     0.002 A 
HETATM   11  C   UNL     1      38.198 -14.518   1.523  1.00  0.00     0.032 A 
BRANCH   7  12
HETATM   12  O   UNL     1      41.685 -15.344   0.818  1.00  0.00    -0.354 OA
HETATM   13  C   UNL     1      41.911 -16.635   0.256  1.00  0.00     0.210 C 
ENDBRANCH   7  12
ENDBRANCH   3   6
ENDBRANCH   1   2
BRANCH   1  14
HETATM   14  N   UNL     1      42.523 -15.819   5.037  1.00  0.00    -0.284 NA
HETATM   15  H   UNL     1      42.910 -15.064   4.473  1.00  0.00     0.128 HD
BRANCH  14  16
HETATM   16  C   UNL     1      43.129 -17.040   4.685  1.00  0.00     0.009 A 
HETATM   17  C   UNL     1      42.817 -17.761   3.524  1.00  0.00     0.035 A 
HETATM   18  C   UNL     1      43.389 -19.018   3.247  1.00  0.00    -0.024 A 
HETATM   19  C   UNL     1      44.289 -19.588   4.172  1.00  0.00    -0.026 A 
HETATM   20  C   UNL     1      43.079 -19.720   2.071  1.00  0.00     0.012 A 
HETATM   21  C   UNL     1      44.574 -18.893   5.354  1.00  0.00     0.014 A 
HETATM   22  C   UNL     1      44.862 -20.840   3.892  1.00  0.00     0.012 A 
HETATM   23  C   UNL     1      43.987 -17.648   5.610  1.00  0.00     0.024 A 
HETATM   24  C   UNL     1      44.548 -21.522   2.715  1.00  0.00     0.001 A 
HETATM   25  C   UNL     1      43.654 -20.963   1.807  1.00  0.00     0.001 A 
ENDBRANCH  14  16
ENDBRANCH   1  14
TORSDOF 5
ENDMDL
MODEL 5
REMARK VINA RESULT:      -8.2      1.253      2.152
REMARK  5 active torsions:
REMARK  status: ('A' for Active; 'I' for Inactive)
REMARK    1  A    between atoms: O_2  and  C_3 
REMARK    2  A    between atoms: C_4  and  N_5 
REMARK       I    between atoms: N_5  and  C_6 
REMARK    3  A    between atoms: C_6  and  C_7 
REMARK    4  A    between atoms: C_7  and  N_8 
REMARK    5  A    between atoms: N_8  and  C_9 
ROOT
HETATM    1  C   UNL     1      41.146 -15.709   0.309  1.00  0.00     0.195 C 
ENDROOT
BRANCH   1   2
HETATM    2  C   UNL     1      40.925 -14.545  -0.667  1.00  0.00     0.235 C 
HETATM    3  N   UNL     1      42.107 -14.000  -1.125  1.00  0.00    -0.324 N 
HETATM    4  H   UNL     1      42.960 -14.437  -0.778  1.00  0.00     0.169 HD
HETATM    5  O   UNL     1      39.792 -14.216  -1.006  1.00  0.00    -0.272 OA
BRANCH   3   6
HETATM    6  C   UNL     1      42.293 -12.858  -1.930  1.00  0.00     0.068 A 
HETATM    7  C   UNL     1      42.612 -11.651  -1.280  1.00  0.00     0.095 A 
HETATM    8  C   UNL     1      42.731 -10.467  -2.015  1.00  0.00     0.039 A 
HETATM    9  C   UNL     1      42.568 -10.487  -3.400  1.00  0.00     0.003 A 
HETATM   10  C   UNL     1      42.284 -11.686  -4.050  1.00  0.00     0.002 A 
HETATM   11  C   UNL     1      42.149 -12.869  -3.318  1.00  0.00     0.032 A 
BRANCH   7  12
HETATM   12  O   UNL     1      42.767 -11.699   0.086  1.00  0.00    -0.354 OA
HETATM   13  C   UNL     1      41.692 -11.097   0.805  1.00  0.00     0.210 C 
ENDBRANCH   7  12
ENDBRANCH   3   6
ENDBRANCH   1   2
BRANCH   1  14
HETATM   14  N   UNL     1      42.495 -16.303   0.208  1.00  0.00    -0.284 NA
HETATM   15  H   UNL     1      42.572 -16.901  -0.613  1.00  0.00     0.128 HD
BRANCH  14  16
HETATM   16  C   UNL     1      43.022 -16.964   1.334  1.00  0.00     0.009 A 
HETATM   17  C   UNL     1      43.428 -18.306   1.332  1.00  0.00     0.035 A 
HETATM   18  C   UNL     1      43.877 -18.954   2.499  1.00  0.00    -0.024 A 
HETATM   19  C   UNL     1      43.900 -18.246   3.718  1.00  0.00    -0.026 A 
HETATM   20  C   UNL     1      44.297 -20.294   2.477  1.00  0.00     0.012 A 
HETATM   21  C   UNL     1      43.456 -16.917   3.737  1.00  0.00     0.014 A 
HETATM   22  C   UNL     1      44.351 -18.893   4.881  1.00  0.00     0.012 A 
HETATM   23  C   UNL     1      43.008 -16.297   2.565  1.00  0.00     0.024 A 
HETATM   24  C   UNL     1      44.771 -20.223   4.841  1.00  0.00     0.001 A 
HETATM   25  C   UNL     1      44.741 -20.924   3.639  1.00  0.00     0.001 A 
ENDBRANCH  14  16
ENDBRANCH   1  14
TORSDOF 5
ENDMDL
MODEL 6
REMARK VINA RESULT:      -8.1      1.933      3.283
REMARK  5 active torsions:
REMARK  status: ('A' for Active; 'I' for Inactive)
REMARK    1  A    between atoms: O_2  and  C_3 
REMARK    2  A    between atoms: C_4  and  N_5 
REMARK       I    between atoms: N_5  and  C_6 
REMARK    3  A    between atoms: C_6  and  C_7 
REMARK    4  A    between atoms: C_7  and  N_8 
REMARK    5  A    between atoms: N_8  and  C_9 
ROOT
HETATM    1  C   UNL     1      43.539 -15.424   2.555  1.00  0.00     0.195 C 
ENDROOT
BRANCH   1   2
HETATM    2  C   UNL     1      42.340 -14.561   2.137  1.00  0.00     0.235 C 
HETATM    3  N   UNL     1      41.328 -15.296   1.555  1.00  0.00    -0.324 N 
HETATM    4  H   UNL     1      41.492 -16.300   1.489  1.00  0.00     0.169 HD
HETATM    5  O   UNL     1      42.322 -13.355   2.372  1.00  0.00    -0.272 OA
BRANCH   3   6
HETATM    6  C   UNL     1      40.143 -14.833   0.950  1.00  0.00     0.068 A 
HETATM    7  C   UNL     1      40.215 -14.427  -0.396  1.00  0.00     0.095 A 
HETATM    8  C   UNL     1      39.093 -13.884  -1.028  1.00  0.00     0.039 A 
HETATM    9  C   UNL     1      37.887 -13.776  -0.336  1.00  0.00     0.003 A 
HETATM   10  C   UNL     1      37.803 -14.207   0.987  1.00  0.00     0.002 A 
HETATM   11  C   UNL     1      38.926 -14.736   1.628  1.00  0.00     0.032 A 
BRANCH   7  12
HETATM   12  O   UNL     1      41.432 -14.566  -1.025  1.00  0.00    -0.354 OA
HETATM   13  C   UNL     1      41.541 -13.814  -2.231  1.00  0.00     0.210 C 
ENDBRANCH   7  12
ENDBRANCH   3   6
ENDBRANCH   1   2
BRANCH   1  14
HETATM   14  N   UNL     1      43.222 -16.368   3.646  1.00  0.00    -0.284 NA
HETATM   15  H   UNL     1      43.660 -16.079   4.520  1.00  0.00     0.128 HD
BRANCH  14  16
HETATM   16  C   UNL     1      43.445 -17.741   3.430  1.00  0.00     0.009 A 
HETATM   17  C   UNL     1      43.929 -18.618   4.411  1.00  0.00     0.035 A 
HETATM   18  C   UNL     1      44.214 -19.969   4.133  1.00  0.00    -0.024 A 
HETATM   19  C   UNL     1      44.029 -20.460   2.824  1.00  0.00    -0.026 A 
HETATM   20  C   UNL     1      44.682 -20.838   5.132  1.00  0.00     0.012 A 
HETATM   21  C   UNL     1      43.585 -19.580   1.828  1.00  0.00     0.014 A 
HETATM   22  C   UNL     1      44.310 -21.809   2.550  1.00  0.00     0.012 A 
HETATM   23  C   UNL     1      43.317 -18.239   2.128  1.00  0.00     0.024 A 
HETATM   24  C   UNL     1      44.770 -22.662   3.554  1.00  0.00     0.001 A 
HETATM   25  C   UNL     1      44.958 -22.175   4.845  1.00  0.00     0.001 A 
ENDBRANCH  14  16
ENDBRANCH   1  14
TORSDOF 5
ENDMDL
MODEL 7
REMARK VINA RESULT:      -8.1      2.266      2.861
REMARK  5 active torsions:
REMARK  status: ('A' for Active; 'I' for Inactive)
REMARK    1  A    between atoms: O_2  and  C_3 
REMARK    2  A    between atoms: C_4  and  N_5 
REMARK       I    between atoms: N_5  and  C_6 
REMARK    3  A    between atoms: C_6  and  C_7 
REMARK    4  A    between atoms: C_7  and  N_8 
REMARK    5  A    between atoms: N_8  and  C_9 
ROOT
HETATM    1  C   UNL     1      41.436 -15.775   3.327  1.00  0.00     0.195 C 
ENDROOT
BRANCH   1   2
HETATM    2  C   UNL     1      40.798 -16.048   1.958  1.00  0.00     0.235 C 
HETATM    3  N   UNL     1      41.165 -15.124   1.002  1.00  0.00    -0.324 N 
HETATM    4  H   UNL     1      41.811 -14.399   1.313  1.00  0.00     0.169 HD
HETATM    5  O   UNL     1      40.086 -17.033   1.782  1.00  0.00    -0.272 OA
BRANCH   3   6
HETATM    6  C   UNL     1      40.691 -14.989  -0.318  1.00  0.00     0.068 A 
HETATM    7  C   UNL     1      39.606 -14.119  -0.533  1.00  0.00     0.095 A 
HETATM    8  C   UNL     1      39.038 -14.003  -1.806  1.00  0.00     0.039 A 
HETATM    9  C   UNL     1      39.570 -14.724  -2.874  1.00  0.00     0.003 A 
HETATM   10  C   UNL     1      40.665 -15.562  -2.672  1.00  0.00     0.002 A 
HETATM   11  C   UNL     1      41.225 -15.693  -1.398  1.00  0.00     0.032 A 
BRANCH   7  12
HETATM   12  O   UNL     1      39.131 -13.431   0.561  1.00  0.00    -0.354 OA
HETATM   13  C   UNL     1      37.805 -13.796   0.936  1.00  0.00     0.210 C 
ENDBRANCH   7  12
ENDBRANCH   3   6
ENDBRANCH   1   2
BRANCH   1  14
HETATM   14  N   UNL     1      42.899 -15.970   3.335  1.00  0.00    -0.284 NA
HETATM   15  H   UNL     1      43.332 -15.537   2.520  1.00  0.00     0.128 HD
BRANCH  14  16
HETATM   16  C   UNL     1      43.400 -17.275   3.505  1.00  0.00     0.009 A 
HETATM   17  C   UNL     1      43.300 -18.283   2.536  1.00  0.00     0.035 A 
HETATM   18  C   UNL     1      43.744 -19.598   2.776  1.00  0.00    -0.024 A 
HETATM   19  C   UNL     1      44.286 -19.927   4.035  1.00  0.00    -0.026 A 
HETATM   20  C   UNL     1      43.652 -20.593   1.788  1.00  0.00     0.012 A 
HETATM   21  C   UNL     1      44.352 -18.936   5.023  1.00  0.00     0.014 A 
HETATM   22  C   UNL     1      44.732 -21.238   4.271  1.00  0.00     0.012 A 
HETATM   23  C   UNL     1      43.897 -17.638   4.763  1.00  0.00     0.024 A 
HETATM   24  C   UNL     1      44.639 -22.214   3.277  1.00  0.00     0.001 A 
HETATM   25  C   UNL     1      44.097 -21.891   2.037  1.00  0.00     0.001 A 
ENDBRANCH  14  16
ENDBRANCH   1  14
TORSDOF 5
ENDMDL
MODEL 8
REMARK VINA RESULT:      -8.0      4.401      5.578
REMARK  5 active torsions:
REMARK  status: ('A' for Active; 'I' for Inactive)
REMARK    1  A    between atoms: O_2  and  C_3 
REMARK    2  A    between atoms: C_4  and  N_5 
REMARK       I    between atoms: N_5  and  C_6 
REMARK    3  A    between atoms: C_6  and  C_7 
REMARK    4  A    between atoms: C_7  and  N_8 
REMARK    5  A    between atoms: N_8  and  C_9 
ROOT
HETATM    1  C   UNL     1      42.856 -16.722   6.988  1.00  0.00     0.195 C 
ENDROOT
BRANCH   1   2
HETATM    2  C   UNL     1      41.585 -16.111   6.382  1.00  0.00     0.235 C 
HETATM    3  N   UNL     1      41.768 -14.812   5.954  1.00  0.00    -0.324 N 
HETATM    4  H   UNL     1      42.707 -14.433   6.077  1.00  0.00     0.169 HD
HETATM    5  O   UNL     1      40.559 -16.776   6.270  1.00  0.00    -0.272 OA
BRANCH   3   6
HETATM    6  C   UNL     1      40.809 -13.906   5.461  1.00  0.00     0.068 A 
HETATM    7  C   UNL     1      40.576 -13.896   4.073  1.00  0.00     0.095 A 
HETATM    8  C   UNL     1      39.695 -12.966   3.513  1.00  0.00     0.039 A 
HETATM    9  C   UNL     1      39.017 -12.066   4.335  1.00  0.00     0.003 A 
HETATM   10  C   UNL     1      39.220 -12.094   5.714  1.00  0.00     0.002 A 
HETATM   11  C   UNL     1      40.111 -13.012   6.275  1.00  0.00     0.032 A 
BRANCH   7  12
HETATM   12  O   UNL     1      41.272 -14.813   3.317  1.00  0.00    -0.354 OA
HETATM   13  C   UNL     1      40.434 -15.717   2.600  1.00  0.00     0.210 C 
ENDBRANCH   7  12
ENDBRANCH   3   6
ENDBRANCH   1   2
BRANCH   1  14
HETATM   14  N   UNL     1      43.967 -16.830   6.020  1.00  0.00    -0.284 NA
HETATM   15  H   UNL     1      44.174 -15.926   5.597  1.00  0.00     0.128 HD
BRANCH  14  16
HETATM   16  C   UNL     1      43.892 -17.820   5.022  1.00  0.00     0.009 A 
HETATM   17  C   UNL     1      44.309 -19.146   5.204  1.00  0.00     0.035 A 
HETATM   18  C   UNL     1      44.291 -20.087   4.156  1.00  0.00    -0.024 A 
HETATM   19  C   UNL     1      43.863 -19.686   2.873  1.00  0.00    -0.026 A 
HETATM   20  C   UNL     1      44.696 -21.416   4.360  1.00  0.00     0.012 A 
HETATM   21  C   UNL     1      43.484 -18.353   2.673  1.00  0.00     0.014 A 
HETATM   22  C   UNL     1      43.843 -20.627   1.830  1.00  0.00     0.012 A 
HETATM   23  C   UNL     1      43.518 -17.434   3.729  1.00  0.00     0.024 A 
HETATM   24  C   UNL     1      44.243 -21.946   2.050  1.00  0.00     0.001 A 
HETATM   25  C   UNL     1      44.672 -22.339   3.314  1.00  0.00     0.001 A 
ENDBRANCH  14  16
ENDBRANCH   1  14
TORSDOF 5
ENDMDL
MODEL 9
REMARK VINA RESULT:      -8.0      1.203      2.088
REMARK  5 active torsions:
REMARK  status: ('A' for Active; 'I' for Inactive)
REMARK    1  A    between atoms: O_2  and  C_3 
REMARK    2  A    between atoms: C_4  and  N_5 
REMARK       I    between atoms: N_5  and  C_6 
REMARK    3  A    between atoms: C_6  and  C_7 
REMARK    4  A    between atoms: C_7  and  N_8 
REMARK    5  A    between atoms: N_8  and  C_9 
ROOT
HETATM    1  C   UNL     1      42.636 -15.923   1.501  1.00  0.00     0.195 C 
ENDROOT
BRANCH   1   2
HETATM    2  C   UNL     1      41.528 -15.400   0.576  1.00  0.00     0.235 C 
HETATM    3  N   UNL     1      42.009 -14.967  -0.643  1.00  0.00    -0.324 N 
HETATM    4  H   UNL     1      43.015 -15.059  -0.780  1.00  0.00     0.169 HD
HETATM    5  O   UNL     1      40.350 -15.439   0.921  1.00  0.00    -0.272 OA
BRANCH   3   6
HETATM    6  C   UNL     1      41.311 -14.323  -1.684  1.00  0.00     0.068 A 
HETATM    7  C   UNL     1      41.541 -12.947  -1.867  1.00  0.00     0.095 A 
HETATM    8  C   UNL     1      40.820 -12.235  -2.830  1.00  0.00     0.039 A 
HETATM    9  C   UNL     1      39.894 -12.896  -3.637  1.00  0.00     0.003 A 
HETATM   10  C   UNL     1      39.687 -14.265  -3.481  1.00  0.00     0.002 A 
HETATM   11  C   UNL     1      40.394 -14.977  -2.509  1.00  0.00     0.032 A 
BRANCH   7  12
HETATM   12  O   UNL     1      42.471 -12.355  -1.043  1.00  0.00    -0.354 OA
HETATM   13  C   UNL     1      42.988 -11.127  -1.553  1.00  0.00     0.210 C 
ENDBRANCH   7  12
ENDBRANCH   3   6
ENDBRANCH   1   2
BRANCH   1  14
HETATM   14  N   UNL     1      43.238 -17.186   1.029  1.00  0.00    -0.284 NA
HETATM   15  H   UNL     1      42.643 -17.640   0.337  1.00  0.00     0.128 HD
BRANCH  14  16
HETATM   16  C   UNL     1      43.662 -18.126   1.988  1.00  0.00     0.009 A 
HETATM   17  C   UNL     1      43.794 -19.498   1.732  1.00  0.00     0.035 A 
HETATM   18  C   UNL     1      44.144 -20.417   2.740  1.00  0.00    -0.024 A 
HETATM   19  C   UNL     1      44.350 -19.955   4.056  1.00  0.00    -0.026 A 
HETATM   20  C   UNL     1      44.289 -21.787   2.463  1.00  0.00     0.012 A 
HETATM   21  C   UNL     1      44.180 -18.592   4.329  1.00  0.00     0.014 A 
HETATM   22  C   UNL     1      44.704 -20.873   5.060  1.00  0.00     0.012 A 
HETATM   23  C   UNL     1      43.823 -17.699   3.311  1.00  0.00     0.024 A 
HETATM   24  C   UNL     1      44.849 -22.230   4.767  1.00  0.00     0.001 A 
HETATM   25  C   UNL     1      44.639 -22.687   3.470  1.00  0.00     0.001 A 
ENDBRANCH  14  16
ENDBRANCH   1  14
TORSDOF 5
ENDMDL
MODEL 10
REMARK VINA RESULT:      -8.0      2.263      3.120
REMARK  5 active torsions:
REMARK  status: ('A' for Active; 'I' for Inactive)
REMARK    1  A    between atoms: O_2  and  C_3 
REMARK    2  A    between atoms: C_4  and  N_5 
REMARK       I    between atoms: N_5  and  C_6 
REMARK    3  A    between atoms: C_6  and  C_7 
REMARK    4  A    between atoms: C_7  and  N_8 
REMARK    5  A    between atoms: N_8  and  C_9 
ROOT
HETATM    1  C   UNL     1      41.944 -15.877   3.240  1.00  0.00     0.195 C 
ENDROOT
BRANCH   1   2
HETATM    2  C   UNL     1      41.084 -16.043   1.980  1.00  0.00     0.235 C 
HETATM    3  N   UNL     1      41.414 -15.147   0.984  1.00  0.00    -0.324 N 
HETATM    4  H   UNL     1      42.181 -14.510   1.199  1.00  0.00     0.169 HD
HETATM    5  O   UNL     1      40.241 -16.933   1.907  1.00  0.00    -0.272 OA
BRANCH   3   6
HETATM    6  C   UNL     1      40.771 -14.927  -0.249  1.00  0.00     0.068 A 
HETATM    7  C   UNL     1      39.660 -14.063  -0.258  1.00  0.00     0.095 A 
HETATM    8  C   UNL     1      38.930 -13.868  -1.435  1.00  0.00     0.039 A 
HETATM    9  C   UNL     1      39.323 -14.503  -2.613  1.00  0.00     0.003 A 
HETATM   10  C   UNL     1      40.442 -15.333  -2.615  1.00  0.00     0.002 A 
HETATM   11  C   UNL     1      41.165 -15.544  -1.438  1.00  0.00     0.032 A 
BRANCH   7  12
HETATM   12  O   UNL     1      39.327 -13.462   0.934  1.00  0.00    -0.354 OA
HETATM   13  C   UNL     1      37.929 -13.221   1.083  1.00  0.00     0.210 C 
ENDBRANCH   7  12
ENDBRANCH   3   6
ENDBRANCH   1   2
BRANCH   1  14
HETATM   14  N   UNL     1      43.323 -16.379   3.071  1.00  0.00    -0.284 NA
HETATM   15  H   UNL     1      43.779 -15.937   2.274  1.00  0.00     0.128 HD
BRANCH  14  16
HETATM   16  C   UNL     1      43.529 -17.771   3.031  1.00  0.00     0.009 A 
HETATM   17  C   UNL     1      43.968 -18.528   4.126  1.00  0.00     0.035 A 
HETATM   18  C   UNL     1      44.238 -19.906   4.023  1.00  0.00    -0.024 A 
HETATM   19  C   UNL     1      44.086 -20.550   2.778  1.00  0.00    -0.026 A 
HETATM   20  C   UNL     1      44.660 -20.654   5.135  1.00  0.00     0.012 A 
HETATM   21  C   UNL     1      43.688 -19.793   1.669  1.00  0.00     0.014 A 
HETATM   22  C   UNL     1      44.352 -21.926   2.678  1.00  0.00     0.012 A 
HETATM   23  C   UNL     1      43.433 -18.422   1.795  1.00  0.00     0.024 A 
HETATM   24  C   UNL     1      44.766 -22.657   3.793  1.00  0.00     0.001 A 
HETATM   25  C   UNL     1      44.922 -22.019   5.021  1.00  0.00     0.001 A 
ENDBRANCH  14  16
ENDBRANCH   1  14
TORSDOF 5
ENDMDL
