MODEL 1
REMARK VINA RESULT:      -7.4      0.000      0.000
REMARK  5 active torsions:
REMARK  status: ('A' for Active; 'I' for Inactive)
REMARK    1  A    between atoms: C_2  and  O_3 
REMARK    2  A    between atoms: O_3  and  C_4 
REMARK    3  A    between atoms: C_8  and  N_9 
REMARK       I    between atoms: N_9  and  C_10 
REMARK       I    between atoms: C_10  and  N_11 
REMARK    4  A    between atoms: N_11  and  C_12 
REMARK    5  A    between atoms: C_12  and  C_13 
ROOT
HETATM    1  N   UNL     1      42.816 -14.983   2.463  1.00  0.00    -0.309 N 
HETATM    2  C   UNL     1      43.158 -13.806   3.062  1.00  0.00     0.321 C 
HETATM    3  N   UNL     1      42.519 -12.701   2.565  1.00  0.00    -0.337 N 
HETATM    4  O   UNL     1      43.969 -13.634   3.963  1.00  0.00    -0.247 OA
HETATM    5  H   UNL     1      42.564 -14.855   1.486  1.00  0.00     0.170 HD
HETATM    6  H   UNL     1      42.799 -11.848   3.030  1.00  0.00     0.164 HD
ENDROOT
BRANCH   1   7
HETATM    7  C   UNL     1      43.092 -16.318   2.830  1.00  0.00     0.042 A 
HETATM    8  C   UNL     1      42.549 -17.035   3.908  1.00  0.00    -0.033 A 
HETATM    9  C   UNL     1      42.946 -18.381   4.094  1.00  0.00     0.045 A 
HETATM   10  C   UNL     1      41.547 -16.495   4.887  1.00  0.00     0.050 C 
HETATM   11  C   UNL     1      43.807 -19.033   3.209  1.00  0.00     0.069 A 
HETATM   12  C   UNL     1      44.321 -18.326   2.132  1.00  0.00     0.039 A 
HETATM   13  C   UNL     1      43.962 -16.988   1.948  1.00  0.00     0.033 A 
BRANCH  11  14
HETATM   14  O   UNL     1      44.060 -20.344   3.503  1.00  0.00    -0.351 OA
BRANCH  14  15
HETATM   15  C   UNL     1      44.711 -21.109   2.489  1.00  0.00     0.171 C 
HETATM   16  C   UNL     1      43.643 -21.826   1.682  1.00  0.00     0.034 C 
ENDBRANCH  14  15
ENDBRANCH  11  14
ENDBRANCH   1   7
BRANCH   3  17
HETATM   17  C   UNL     1      41.419 -12.657   1.619  1.00  0.00     0.183 C 
BRANCH  17  18
HETATM   18  C   UNL     1      41.905 -12.568   0.189  1.00  0.00     0.053 A 
HETATM   19  N   UNL     1      42.673 -11.491  -0.136  1.00  0.00    -0.264 NA
HETATM   20  C   UNL     1      43.067 -11.366  -1.424  1.00  0.00     0.118 A 
HETATM   21  C   UNL     1      42.744 -12.271  -2.415  1.00  0.00     0.043 A 
HETATM   22  C   UNL     1      41.967 -13.363  -2.057  1.00  0.00     0.037 A 
HETATM   23 CL   UNL     1      41.535 -14.528  -3.247  1.00  0.00    -0.084 Cl
HETATM   24  C   UNL     1      41.530 -13.523  -0.748  1.00  0.00     0.052 A 
ENDBRANCH  17  18
ENDBRANCH   3  17
TORSDOF 5
ENDMDL
MODEL 2
REMARK VINA RESULT:      -7.3      7.131     10.295
REMARK  5 active torsions:
REMARK  status: ('A' for Active; 'I' for Inactive)
REMARK    1  A    between atoms: C_2  and  O_3 
REMARK    2  A    between atoms: O_3  and  C_4 
REMARK    3  A    between atoms: C_8  and  N_9 
REMARK       I    between atoms: N_9  and  C_10 
REMARK       I    between atoms: C_10  and  N_11 
REMARK    4  A    between atoms: N_11  and  C_12 
REMARK    5  A    between atoms: C_12  and  C_13 
ROOT
HETATM    1  N   UNL     1      44.246 -12.829   8.496  1.00  0.00    -0.309 N 
HETATM    2  C   UNL     1      45.404 -13.052   7.810  1.00  0.00     0.321 C 
HETATM    3  N   UNL     1      45.314 -13.995   6.821  1.00  0.00    -0.337 N 
HETATM    4  O   UNL     1      46.493 -12.522   7.991  1.00  0.00    -0.247 OA
HETATM    5  H   UNL     1      43.667 -13.664   8.548  1.00  0.00     0.170 HD
HETATM    6  H   UNL     1      46.191 -14.135   6.336  1.00  0.00     0.164 HD
ENDROOT
BRANCH   1   7
HETATM    7  C   UNL     1      43.898 -11.813   9.413  1.00  0.00     0.042 A 
HETATM    8  C   UNL     1      42.904 -10.833   9.261  1.00  0.00    -0.033 A 
HETATM    9  C   UNL     1      42.699  -9.910  10.313  1.00  0.00     0.045 A 
HETATM   10  C   UNL     1      42.007 -10.691   8.066  1.00  0.00     0.050 C 
HETATM   11  C   UNL     1      43.406  -9.981  11.516  1.00  0.00     0.069 A 
HETATM   12  C   UNL     1      44.369 -10.966  11.669  1.00  0.00     0.039 A 
HETATM   13  C   UNL     1      44.606 -11.870  10.630  1.00  0.00     0.033 A 
BRANCH  11  14
HETATM   14  O   UNL     1      43.062  -9.043  12.449  1.00  0.00    -0.351 OA
BRANCH  14  15
HETATM   15  C   UNL     1      43.347  -9.365  13.810  1.00  0.00     0.171 C 
HETATM   16  C   UNL     1      42.178 -10.161  14.361  1.00  0.00     0.034 C 
ENDBRANCH  14  15
ENDBRANCH  11  14
ENDBRANCH   1   7
BRANCH   3  17
HETATM   17  C   UNL     1      44.120 -14.645   6.313  1.00  0.00     0.183 C 
BRANCH  17  18
HETATM   18  C   UNL     1      44.010 -16.078   6.785  1.00  0.00     0.053 A 
HETATM   19  N   UNL     1      43.624 -16.274   8.077  1.00  0.00    -0.264 NA
HETATM   20  C   UNL     1      43.578 -17.547   8.531  1.00  0.00     0.118 A 
HETATM   21  C   UNL     1      43.887 -18.648   7.759  1.00  0.00     0.043 A 
HETATM   22  C   UNL     1      44.268 -18.422   6.444  1.00  0.00     0.037 A 
HETATM   23 CL   UNL     1      44.662 -19.755   5.430  1.00  0.00    -0.084 Cl
HETATM   24  C   UNL     1      44.342 -17.130   5.940  1.00  0.00     0.052 A 
ENDBRANCH  17  18
ENDBRANCH   3  17
TORSDOF 5
ENDMDL
MODEL 3
REMARK VINA RESULT:      -7.2      2.782      3.666
REMARK  5 active torsions:
REMARK  status: ('A' for Active; 'I' for Inactive)
REMARK    1  A    between atoms: C_2  and  O_3 
REMARK    2  A    between atoms: O_3  and  C_4 
REMARK    3  A    between atoms: C_8  and  N_9 
REMARK       I    between atoms: N_9  and  C_10 
REMARK       I    between atoms: C_10  and  N_11 
REMARK    4  A    between atoms: N_11  and  C_12 
REMARK    5  A    between atoms: C_12  and  C_13 
ROOT
HETATM    1  N   UNL     1      42.270 -16.293   5.418  1.00  0.00    -0.309 N 
HETATM    2  C   UNL     1      41.102 -16.287   6.123  1.00  0.00     0.321 C 
HETATM    3  N   UNL     1      40.497 -15.063   6.223  1.00  0.00    -0.337 N 
HETATM    4  O   UNL     1      40.559 -17.235   6.676  1.00  0.00    -0.247 OA
HETATM    5  H   UNL     1      42.769 -15.410   5.498  1.00  0.00     0.170 HD
HETATM    6  H   UNL     1      39.637 -15.096   6.754  1.00  0.00     0.164 HD
ENDROOT
BRANCH   1   7
HETATM    7  C   UNL     1      43.048 -17.366   4.931  1.00  0.00     0.042 A 
HETATM    8  C   UNL     1      43.978 -18.137   5.647  1.00  0.00    -0.033 A 
HETATM    9  C   UNL     1      44.646 -19.187   4.975  1.00  0.00     0.045 A 
HETATM   10  C   UNL     1      44.315 -17.955   7.099  1.00  0.00     0.050 C 
HETATM   11  C   UNL     1      44.367 -19.519   3.648  1.00  0.00     0.069 A 
HETATM   12  C   UNL     1      43.429 -18.769   2.953  1.00  0.00     0.039 A 
HETATM   13  C   UNL     1      42.779 -17.710   3.592  1.00  0.00     0.033 A 
BRANCH  11  14
HETATM   14  O   UNL     1      45.065 -20.586   3.155  1.00  0.00    -0.351 OA
BRANCH  14  15
HETATM   15  C   UNL     1      44.331 -21.794   2.963  1.00  0.00     0.171 C 
HETATM   16  C   UNL     1      44.052 -21.945   1.478  1.00  0.00     0.034 C 
ENDBRANCH  14  15
ENDBRANCH  11  14
ENDBRANCH   1   7
BRANCH   3  17
HETATM   17  C   UNL     1      40.852 -13.833   5.538  1.00  0.00     0.183 C 
BRANCH  17  18
HETATM   18  C   UNL     1      40.791 -13.984   4.034  1.00  0.00     0.053 A 
HETATM   19  N   UNL     1      41.972 -13.898   3.358  1.00  0.00    -0.264 NA
HETATM   20  C   UNL     1      41.928 -13.973   2.008  1.00  0.00     0.118 A 
HETATM   21  C   UNL     1      40.764 -14.142   1.287  1.00  0.00     0.043 A 
HETATM   22  C   UNL     1      39.577 -14.235   1.999  1.00  0.00     0.037 A 
HETATM   23 CL   UNL     1      38.092 -14.449   1.156  1.00  0.00    -0.084 Cl
HETATM   24  C   UNL     1      39.574 -14.150   3.386  1.00  0.00     0.052 A 
ENDBRANCH  17  18
ENDBRANCH   3  17
TORSDOF 5
ENDMDL
MODEL 4
REMARK VINA RESULT:      -7.1      2.757      3.641
REMARK  5 active torsions:
REMARK  status: ('A' for Active; 'I' for Inactive)
REMARK    1  A    between atoms: C_2  and  O_3 
REMARK    2  A    between atoms: O_3  and  C_4 
REMARK    3  A    between atoms: C_8  and  N_9 
REMARK       I    between atoms: N_9  and  C_10 
REMARK       I    between atoms: C_10  and  N_11 
REMARK    4  A    between atoms: N_11  and  C_12 
REMARK    5  A    between atoms: C_12  and  C_13 
ROOT
HETATM    1  N   UNL     1      42.058 -16.203   5.301  1.00  0.00    -0.309 N 
HETATM    2  C   UNL     1      40.927 -16.164   6.061  1.00  0.00     0.321 C 
HETATM    3  N   UNL     1      40.426 -14.909   6.283  1.00  0.00    -0.337 N 
HETATM    4  O   UNL     1      40.334 -17.108   6.567  1.00  0.00    -0.247 OA
HETATM    5  H   UNL     1      42.629 -15.369   5.422  1.00  0.00     0.170 HD
HETATM    6  H   UNL     1      39.589 -14.918   6.852  1.00  0.00     0.164 HD
ENDROOT
BRANCH   1   7
HETATM    7  C   UNL     1      42.727 -17.290   4.697  1.00  0.00     0.042 A 
HETATM    8  C   UNL     1      42.520 -17.808   3.408  1.00  0.00    -0.033 A 
HETATM    9  C   UNL     1      43.312 -18.899   2.982  1.00  0.00     0.045 A 
HETATM   10  C   UNL     1      41.526 -17.278   2.414  1.00  0.00     0.050 C 
HETATM   11  C   UNL     1      44.330 -19.435   3.774  1.00  0.00     0.069 A 
HETATM   12  C   UNL     1      44.546 -18.903   5.037  1.00  0.00     0.039 A 
HETATM   13  C   UNL     1      43.755 -17.843   5.486  1.00  0.00     0.033 A 
BRANCH  11  14
HETATM   14  O   UNL     1      45.034 -20.458   3.204  1.00  0.00    -0.351 OA
BRANCH  14  15
HETATM   15  C   UNL     1      44.348 -21.702   3.063  1.00  0.00     0.171 C 
HETATM   16  C   UNL     1      44.221 -22.005   1.581  1.00  0.00     0.034 C 
ENDBRANCH  14  15
ENDBRANCH  11  14
ENDBRANCH   1   7
BRANCH   3  17
HETATM   17  C   UNL     1      40.847 -13.659   5.676  1.00  0.00     0.183 C 
BRANCH  17  18
HETATM   18  C   UNL     1      40.830 -13.729   4.164  1.00  0.00     0.053 A 
HETATM   19  N   UNL     1      42.009 -13.494   3.523  1.00  0.00    -0.264 NA
HETATM   20  C   UNL     1      41.998 -13.495   2.171  1.00  0.00     0.118 A 
HETATM   21  C   UNL     1      40.869 -13.730   1.413  1.00  0.00     0.043 A 
HETATM   22  C   UNL     1      39.683 -13.974   2.091  1.00  0.00     0.037 A 
HETATM   23 CL   UNL     1      38.241 -14.278   1.201  1.00  0.00    -0.084 Cl
HETATM   24  C   UNL     1      39.646 -13.970   3.479  1.00  0.00     0.052 A 
ENDBRANCH  17  18
ENDBRANCH   3  17
TORSDOF 5
ENDMDL
MODEL 5
REMARK VINA RESULT:      -7.0      2.042      2.286
REMARK  5 active torsions:
REMARK  status: ('A' for Active; 'I' for Inactive)
REMARK    1  A    between atoms: C_2  and  O_3 
REMARK    2  A    between atoms: O_3  and  C_4 
REMARK    3  A    between atoms: C_8  and  N_9 
REMARK       I    between atoms: N_9  and  C_10 
REMARK       I    between atoms: C_10  and  N_11 
REMARK    4  A    between atoms: N_11  and  C_12 
REMARK    5  A    between atoms: C_12  and  C_13 
ROOT
HETATM    1  N   UNL     1      41.870 -16.115   2.166  1.00  0.00    -0.309 N 
HETATM    2  C   UNL     1      40.546 -15.967   1.875  1.00  0.00     0.321 C 
HETATM    3  N   UNL     1      40.218 -14.781   1.275  1.00  0.00    -0.337 N 
HETATM    4  O   UNL     1      39.638 -16.757   2.102  1.00  0.00    -0.247 OA
HETATM    5  H   UNL     1      42.318 -15.225   2.370  1.00  0.00     0.170 HD
HETATM    6  H   UNL     1      39.229 -14.705   1.077  1.00  0.00     0.164 HD
ENDROOT
BRANCH   1   7
HETATM    7  C   UNL     1      42.603 -17.250   2.577  1.00  0.00     0.042 A 
HETATM    8  C   UNL     1      42.679 -17.793   3.870  1.00  0.00    -0.033 A 
HETATM    9  C   UNL     1      43.461 -18.954   4.071  1.00  0.00     0.045 A 
HETATM   10  C   UNL     1      41.969 -17.251   5.077  1.00  0.00     0.050 C 
HETATM   11  C   UNL     1      44.106 -19.610   3.019  1.00  0.00     0.069 A 
HETATM   12  C   UNL     1      44.007 -19.082   1.741  1.00  0.00     0.039 A 
HETATM   13  C   UNL     1      43.262 -17.920   1.527  1.00  0.00     0.033 A 
BRANCH  11  14
HETATM   14  O   UNL     1      44.786 -20.742   3.370  1.00  0.00    -0.351 OA
BRANCH  14  15
HETATM   15  C   UNL     1      45.019 -20.940   4.764  1.00  0.00     0.171 C 
HETATM   16  C   UNL     1      44.997 -22.433   5.038  1.00  0.00     0.034 C 
ENDBRANCH  14  15
ENDBRANCH  11  14
ENDBRANCH   1   7
BRANCH   3  17
HETATM   17  C   UNL     1      41.115 -13.759   0.768  1.00  0.00     0.183 C 
BRANCH  17  18
HETATM   18  C   UNL     1      41.266 -13.832  -0.736  1.00  0.00     0.053 A 
HETATM   19  N   UNL     1      42.161 -12.979  -1.309  1.00  0.00    -0.264 NA
HETATM   20  C   UNL     1      42.264 -12.991  -2.657  1.00  0.00     0.118 A 
HETATM   21  C   UNL     1      41.527 -13.823  -3.475  1.00  0.00     0.043 A 
HETATM   22  C   UNL     1      40.629 -14.688  -2.867  1.00  0.00     0.037 A 
HETATM   23 CL   UNL     1      39.683 -15.752  -3.833  1.00  0.00    -0.084 Cl
HETATM   24  C   UNL     1      40.480 -14.699  -1.485  1.00  0.00     0.052 A 
ENDBRANCH  17  18
ENDBRANCH   3  17
TORSDOF 5
ENDMDL
MODEL 6
REMARK VINA RESULT:      -6.9      1.402      1.714
REMARK  5 active torsions:
REMARK  status: ('A' for Active; 'I' for Inactive)
REMARK    1  A    between atoms: C_2  and  O_3 
REMARK    2  A    between atoms: O_3  and  C_4 
REMARK    3  A    between atoms: C_8  and  N_9 
REMARK       I    between atoms: N_9  and  C_10 
REMARK       I    between atoms: C_10  and  N_11 
REMARK    4  A    between atoms: N_11  and  C_12 
REMARK    5  A    between atoms: C_12  and  C_13 
ROOT
HETATM    1  N   UNL     1      42.175 -15.052   1.752  1.00  0.00    -0.309 N 
HETATM    2  C   UNL     1      42.476 -13.770   2.109  1.00  0.00     0.321 C 
HETATM    3  N   UNL     1      41.695 -12.810   1.521  1.00  0.00    -0.337 N 
HETATM    4  O   UNL     1      43.360 -13.394   2.868  1.00  0.00    -0.247 OA
HETATM    5  H   UNL     1      41.810 -15.108   0.804  1.00  0.00     0.170 HD
HETATM    6  H   UNL     1      41.948 -11.874   1.807  1.00  0.00     0.164 HD
ENDROOT
BRANCH   1   7
HETATM    7  C   UNL     1      42.601 -16.284   2.292  1.00  0.00     0.042 A 
HETATM    8  C   UNL     1      42.194 -16.871   3.501  1.00  0.00    -0.033 A 
HETATM    9  C   UNL     1      42.731 -18.130   3.857  1.00  0.00     0.045 A 
HETATM   10  C   UNL     1      41.199 -16.278   4.457  1.00  0.00     0.050 C 
HETATM   11  C   UNL     1      43.601 -18.832   3.020  1.00  0.00     0.069 A 
HETATM   12  C   UNL     1      43.981 -18.258   1.816  1.00  0.00     0.039 A 
HETATM   13  C   UNL     1      43.482 -17.002   1.460  1.00  0.00     0.033 A 
BRANCH  11  14
HETATM   14  O   UNL     1      43.999 -20.054   3.487  1.00  0.00    -0.351 OA
BRANCH  14  15
HETATM   15  C   UNL     1      44.863 -20.809   2.638  1.00  0.00     0.171 C 
HETATM   16  C   UNL     1      44.032 -21.879   1.952  1.00  0.00     0.034 C 
ENDBRANCH  14  15
ENDBRANCH  11  14
ENDBRANCH   1   7
BRANCH   3  17
HETATM   17  C   UNL     1      40.501 -13.000   0.718  1.00  0.00     0.183 C 
BRANCH  17  18
HETATM   18  C   UNL     1      40.832 -13.406  -0.702  1.00  0.00     0.053 A 
HETATM   19  N   UNL     1      40.625 -14.712  -1.034  1.00  0.00    -0.264 NA
HETATM   20  C   UNL     1      40.970 -15.104  -2.281  1.00  0.00     0.118 A 
HETATM   21  C   UNL     1      41.506 -14.257  -3.230  1.00  0.00     0.043 A 
HETATM   22  C   UNL     1      41.699 -12.931  -2.870  1.00  0.00     0.037 A 
HETATM   23 CL   UNL     1      42.359 -11.826  -4.011  1.00  0.00    -0.084 Cl
HETATM   24  C   UNL     1      41.370 -12.488  -1.595  1.00  0.00     0.052 A 
ENDBRANCH  17  18
ENDBRANCH   3  17
TORSDOF 5
ENDMDL
MODEL 7
REMARK VINA RESULT:      -6.9      1.587      2.351
REMARK  5 active torsions:
REMARK  status: ('A' for Active; 'I' for Inactive)
REMARK    1  A    between atoms: C_2  and  O_3 
REMARK    2  A    between atoms: O_3  and  C_4 
REMARK    3  A    between atoms: C_8  and  N_9 
REMARK       I    between atoms: N_9  and  C_10 
REMARK       I    between atoms: C_10  and  N_11 
REMARK    4  A    between atoms: N_11  and  C_12 
REMARK    5  A    between atoms: C_12  and  C_13 
ROOT
HETATM    1  N   UNL     1      42.781 -15.181   2.991  1.00  0.00    -0.309 N 
HETATM    2  C   UNL     1      43.314 -13.939   3.174  1.00  0.00     0.321 C 
HETATM    3  N   UNL     1      42.532 -12.906   2.727  1.00  0.00    -0.337 N 
HETATM    4  O   UNL     1      44.397 -13.656   3.670  1.00  0.00    -0.247 OA
HETATM    5  H   UNL     1      42.189 -15.224   2.165  1.00  0.00     0.170 HD
HETATM    6  H   UNL     1      42.959 -12.002   2.877  1.00  0.00     0.164 HD
ENDROOT
BRANCH   1   7
HETATM    7  C   UNL     1      43.177 -16.438   3.496  1.00  0.00     0.042 A 
HETATM    8  C   UNL     1      43.724 -17.512   2.776  1.00  0.00    -0.033 A 
HETATM    9  C   UNL     1      44.074 -18.690   3.478  1.00  0.00     0.045 A 
HETATM   10  C   UNL     1      43.997 -17.512   1.299  1.00  0.00     0.050 C 
HETATM   11  C   UNL     1      43.952 -18.794   4.866  1.00  0.00     0.069 A 
HETATM   12  C   UNL     1      43.433 -17.721   5.574  1.00  0.00     0.039 A 
HETATM   13  C   UNL     1      43.056 -16.559   4.895  1.00  0.00     0.033 A 
BRANCH  11  14
HETATM   14  O   UNL     1      44.372 -19.980   5.399  1.00  0.00    -0.351 OA
BRANCH  14  15
HETATM   15  C   UNL     1      45.084 -20.855   4.525  1.00  0.00     0.171 C 
HETATM   16  C   UNL     1      44.818 -22.283   4.969  1.00  0.00     0.034 C 
ENDBRANCH  14  15
ENDBRANCH  11  14
ENDBRANCH   1   7
BRANCH   3  17
HETATM   17  C   UNL     1      41.162 -12.965   2.250  1.00  0.00     0.183 C 
BRANCH  17  18
HETATM   18  C   UNL     1      41.092 -13.176   0.754  1.00  0.00     0.053 A 
HETATM   19  N   UNL     1      40.243 -14.145   0.307  1.00  0.00    -0.264 NA
HETATM   20  C   UNL     1      40.212 -14.386  -1.023  1.00  0.00     0.118 A 
HETATM   21  C   UNL     1      40.978 -13.701  -1.945  1.00  0.00     0.043 A 
HETATM   22  C   UNL     1      41.827 -12.714  -1.465  1.00  0.00     0.037 A 
HETATM   23 CL   UNL     1      42.805 -11.824  -2.566  1.00  0.00    -0.084 Cl
HETATM   24  C   UNL     1      41.901 -12.443  -0.105  1.00  0.00     0.052 A 
ENDBRANCH  17  18
ENDBRANCH   3  17
TORSDOF 5
ENDMDL
MODEL 8
REMARK VINA RESULT:      -6.9      3.207      3.563
REMARK  5 active torsions:
REMARK  status: ('A' for Active; 'I' for Inactive)
REMARK    1  A    between atoms: C_2  and  O_3 
REMARK    2  A    between atoms: O_3  and  C_4 
REMARK    3  A    between atoms: C_8  and  N_9 
REMARK       I    between atoms: N_9  and  C_10 
REMARK       I    between atoms: C_10  and  N_11 
REMARK    4  A    between atoms: N_11  and  C_12 
REMARK    5  A    between atoms: C_12  and  C_13 
ROOT
HETATM    1  N   UNL     1      42.532 -14.954   4.205  1.00  0.00    -0.309 N 
HETATM    2  C   UNL     1      43.078 -13.792   3.745  1.00  0.00     0.321 C 
HETATM    3  N   UNL     1      42.199 -12.746   3.641  1.00  0.00    -0.337 N 
HETATM    4  O   UNL     1      44.238 -13.593   3.407  1.00  0.00    -0.247 OA
HETATM    5  H   UNL     1      41.555 -15.049   3.940  1.00  0.00     0.170 HD
HETATM    6  H   UNL     1      42.638 -11.903   3.294  1.00  0.00     0.164 HD
ENDROOT
BRANCH   1   7
HETATM    7  C   UNL     1      43.143 -16.152   4.637  1.00  0.00     0.042 A 
HETATM    8  C   UNL     1      43.827 -16.372   5.843  1.00  0.00    -0.033 A 
HETATM    9  C   UNL     1      44.354 -17.661   6.096  1.00  0.00     0.045 A 
HETATM   10  C   UNL     1      44.031 -15.346   6.921  1.00  0.00     0.050 C 
HETATM   11  C   UNL     1      44.164 -18.729   5.218  1.00  0.00     0.069 A 
HETATM   12  C   UNL     1      43.467 -18.511   4.039  1.00  0.00     0.039 A 
HETATM   13  C   UNL     1      42.962 -17.238   3.759  1.00  0.00     0.033 A 
BRANCH  11  14
HETATM   14  O   UNL     1      44.699 -19.920   5.624  1.00  0.00    -0.351 OA
BRANCH  14  15
HETATM   15  C   UNL     1      45.080 -20.831   4.595  1.00  0.00     0.171 C 
HETATM   16  C   UNL     1      44.965 -22.241   5.147  1.00  0.00     0.034 C 
ENDBRANCH  14  15
ENDBRANCH  11  14
ENDBRANCH   1   7
BRANCH   3  17
HETATM   17  C   UNL     1      40.829 -12.681   4.115  1.00  0.00     0.183 C 
BRANCH  17  18
HETATM   18  C   UNL     1      39.849 -13.215   3.093  1.00  0.00     0.053 A 
HETATM   19  N   UNL     1      39.878 -14.557   2.855  1.00  0.00    -0.264 NA
HETATM   20  C   UNL     1      39.050 -15.042   1.902  1.00  0.00     0.118 A 
HETATM   21  C   UNL     1      38.177 -14.259   1.174  1.00  0.00     0.043 A 
HETATM   22  C   UNL     1      38.161 -12.898   1.442  1.00  0.00     0.037 A 
HETATM   23 CL   UNL     1      37.092 -11.870   0.570  1.00  0.00    -0.084 Cl
HETATM   24  C   UNL     1      39.005 -12.355   2.403  1.00  0.00     0.052 A 
ENDBRANCH  17  18
ENDBRANCH   3  17
TORSDOF 5
ENDMDL
MODEL 9
REMARK VINA RESULT:      -6.8      2.331      2.942
REMARK  5 active torsions:
REMARK  status: ('A' for Active; 'I' for Inactive)
REMARK    1  A    between atoms: C_2  and  O_3 
REMARK    2  A    between atoms: O_3  and  C_4 
REMARK    3  A    between atoms: C_8  and  N_9 
REMARK       I    between atoms: N_9  and  C_10 
REMARK       I    between atoms: C_10  and  N_11 
REMARK    4  A    between atoms: N_11  and  C_12 
REMARK    5  A    between atoms: C_12  and  C_13 
ROOT
HETATM    1  N   UNL     1      41.847 -16.306   2.981  1.00  0.00    -0.309 N 
HETATM    2  C   UNL     1      40.664 -16.281   2.303  1.00  0.00     0.321 C 
HETATM    3  N   UNL     1      40.210 -15.029   1.983  1.00  0.00    -0.337 N 
HETATM    4  O   UNL     1      39.972 -17.236   1.971  1.00  0.00    -0.247 OA
HETATM    5  H   UNL     1      41.968 -15.484   3.567  1.00  0.00     0.170 HD
HETATM    6  H   UNL     1      39.330 -15.049   1.484  1.00  0.00     0.164 HD
ENDROOT
BRANCH   1   7
HETATM    7  C   UNL     1      42.713 -17.379   3.286  1.00  0.00     0.042 A 
HETATM    8  C   UNL     1      43.566 -18.062   2.404  1.00  0.00    -0.033 A 
HETATM    9  C   UNL     1      44.373 -19.105   2.916  1.00  0.00     0.045 A 
HETATM   10  C   UNL     1      43.718 -17.760   0.941  1.00  0.00     0.050 C 
HETATM   11  C   UNL     1      44.394 -19.434   4.273  1.00  0.00     0.069 A 
HETATM   12  C   UNL     1      43.566 -18.739   5.143  1.00  0.00     0.039 A 
HETATM   13  C   UNL     1      42.742 -17.724   4.651  1.00  0.00     0.033 A 
BRANCH  11  14
HETATM   14  O   UNL     1      45.258 -20.436   4.616  1.00  0.00    -0.351 OA
BRANCH  14  15
HETATM   15  C   UNL     1      44.691 -21.566   5.279  1.00  0.00     0.171 C 
HETATM   16  C   UNL     1      44.604 -22.704   4.277  1.00  0.00     0.034 C 
ENDBRANCH  14  15
ENDBRANCH  11  14
ENDBRANCH   1   7
BRANCH   3  17
HETATM   17  C   UNL     1      40.907 -13.764   2.125  1.00  0.00     0.183 C 
BRANCH  17  18
HETATM   18  C   UNL     1      41.409 -13.241   0.796  1.00  0.00     0.053 A 
HETATM   19  N   UNL     1      41.270 -14.063  -0.282  1.00  0.00    -0.264 NA
HETATM   20  C   UNL     1      41.766 -13.635  -1.465  1.00  0.00     0.118 A 
HETATM   21  C   UNL     1      42.389 -12.416  -1.638  1.00  0.00     0.043 A 
HETATM   22  C   UNL     1      42.511 -11.594  -0.527  1.00  0.00     0.037 A 
HETATM   23 CL   UNL     1      43.276 -10.061  -0.681  1.00  0.00    -0.084 Cl
HETATM   24  C   UNL     1      42.028 -12.001   0.711  1.00  0.00     0.052 A 
ENDBRANCH  17  18
ENDBRANCH   3  17
TORSDOF 5
ENDMDL
MODEL 10
REMARK VINA RESULT:      -6.8      3.721      4.210
REMARK  5 active torsions:
REMARK  status: ('A' for Active; 'I' for Inactive)
REMARK    1  A    between atoms: C_2  and  O_3 
REMARK    2  A    between atoms: O_3  and  C_4 
REMARK    3  A    between atoms: C_8  and  N_9 
REMARK       I    between atoms: N_9  and  C_10 
REMARK       I    between atoms: C_10  and  N_11 
REMARK    4  A    between atoms: N_11  and  C_12 
REMARK    5  A    between atoms: C_12  and  C_13 
ROOT
HETATM    1  N   UNL     1      41.089 -17.020   2.088  1.00  0.00    -0.309 N 
HETATM    2  C   UNL     1      41.086 -16.239   0.969  1.00  0.00     0.321 C 
HETATM    3  N   UNL     1      39.985 -15.436   0.831  1.00  0.00    -0.337 N 
HETATM    4  O   UNL     1      41.935 -16.193   0.088  1.00  0.00    -0.247 OA
HETATM    5  H   UNL     1      40.148 -17.280   2.374  1.00  0.00     0.170 HD
HETATM    6  H   UNL     1      40.016 -14.875  -0.010  1.00  0.00     0.164 HD
ENDROOT
BRANCH   1   7
HETATM    7  C   UNL     1      42.116 -17.795   2.669  1.00  0.00     0.042 A 
HETATM    8  C   UNL     1      42.528 -17.794   4.011  1.00  0.00    -0.033 A 
HETATM    9  C   UNL     1      43.573 -18.666   4.398  1.00  0.00     0.045 A 
HETATM   10  C   UNL     1      41.929 -16.948   5.098  1.00  0.00     0.050 C 
HETATM   11  C   UNL     1      44.161 -19.566   3.507  1.00  0.00     0.069 A 
HETATM   12  C   UNL     1      43.732 -19.579   2.188  1.00  0.00     0.039 A 
HETATM   13  C   UNL     1      42.720 -18.706   1.781  1.00  0.00     0.033 A 
BRANCH  11  14
HETATM   14  O   UNL     1      45.127 -20.370   4.045  1.00  0.00    -0.351 OA
BRANCH  14  15
HETATM   15  C   UNL     1      44.761 -21.117   5.205  1.00  0.00     0.171 C 
HETATM   16  C   UNL     1      44.768 -22.590   4.838  1.00  0.00     0.034 C 
ENDBRANCH  14  15
ENDBRANCH  11  14
ENDBRANCH   1   7
BRANCH   3  17
HETATM   17  C   UNL     1      38.929 -15.195   1.797  1.00  0.00     0.183 C 
BRANCH  17  18
HETATM   18  C   UNL     1      39.190 -13.957   2.626  1.00  0.00     0.053 A 
HETATM   19  N   UNL     1      38.689 -12.781   2.155  1.00  0.00    -0.264 NA
HETATM   20  C   UNL     1      38.964 -11.657   2.853  1.00  0.00     0.118 A 
HETATM   21  C   UNL     1      39.709 -11.639   4.014  1.00  0.00     0.043 A 
HETATM   22  C   UNL     1      40.202 -12.850   4.478  1.00  0.00     0.037 A 
HETATM   23 CL   UNL     1      41.135 -12.893   5.923  1.00  0.00    -0.084 Cl
HETATM   24  C   UNL     1      39.954 -14.028   3.784  1.00  0.00     0.052 A 
ENDBRANCH  17  18
ENDBRANCH   3  17
TORSDOF 5
ENDMDL
