MODEL 1
REMARK VINA RESULT:      -7.7      0.000      0.000
REMARK  7 active torsions:
REMARK  status: ('A' for Active; 'I' for Inactive)
REMARK    1  A    between atoms: C_5  and  C_6 
REMARK    2  A    between atoms: C_6  and  C_7 
REMARK    3  A    between atoms: C_7  and  S_8 
REMARK    4  A    between atoms: S_8  and  C_9 
REMARK    5  A    between atoms: C_15  and  C_16 
REMARK    6  A    between atoms: C_16  and  C_17 
REMARK    7  A    between atoms: C_25  and  N_26 
ROOT
HETATM    1  C   UNL     1      41.396 -12.816   2.343  1.00  0.00     0.116 A 
HETATM    2  N   UNL     1      40.343 -11.985   2.389  1.00  0.00    -0.203 NA
HETATM    3  S   UNL     1      40.089 -11.540   3.993  1.00  0.00     0.020 SA
HETATM    4  C   UNL     1      41.349 -12.457   4.593  1.00  0.00     0.080 A 
HETATM    5  C   UNL     1      41.972 -13.102   3.597  1.00  0.00     0.053 A 
HETATM    6  S   UNL     1      41.993 -12.732   6.097  1.00  0.00    -0.074 SA
HETATM    7  C   UNL     1      43.180 -13.815   5.407  1.00  0.00     0.084 A 
HETATM    8  C   UNL     1      43.056 -13.893   4.019  1.00  0.00     0.062 A 
ENDROOT
BRANCH   1   9
HETATM    9  S   UNL     1      41.921 -13.471   0.799  1.00  0.00    -0.101 SA
BRANCH   9  10
HETATM   10  C   UNL     1      40.482 -14.486   0.361  1.00  0.00     0.164 C 
BRANCH  10  11
HETATM   11  C   UNL     1      40.169 -15.431   1.500  1.00  0.00     0.169 C 
HETATM   12  O   UNL     1      39.105 -15.363   2.115  1.00  0.00    -0.291 OA
BRANCH  11  13
HETATM   13  C   UNL     1      41.178 -16.457   1.903  1.00  0.00     0.011 A 
HETATM   14  C   UNL     1      42.086 -17.020   0.999  1.00  0.00     0.016 A 
HETATM   15  C   UNL     1      43.013 -17.973   1.435  1.00  0.00     0.007 A 
HETATM   16  C   UNL     1      43.047 -18.373   2.776  1.00  0.00    -0.062 A 
HETATM   17  C   UNL     1      44.022 -19.414   3.243  1.00  0.00     0.048 C 
HETATM   18  C   UNL     1      42.123 -17.826   3.673  1.00  0.00     0.007 A 
HETATM   19  C   UNL     1      41.196 -16.876   3.240  1.00  0.00     0.016 A 
ENDBRANCH  11  13
ENDBRANCH  10  11
ENDBRANCH   9  10
ENDBRANCH   1   9
BRANCH   8  20
HETATM   20  N   UNL     1      43.864 -14.607   3.205  1.00  0.00    -0.397 N 
HETATM   21  H   UNL     1      44.372 -15.436   3.505  1.00  0.00     0.156 HD
HETATM   22  H   UNL     1      44.269 -14.187   2.367  1.00  0.00     0.156 HD
ENDBRANCH   8  20
BRANCH   7  23
HETATM   23  C   UNL     1      44.114 -14.442   6.330  1.00  0.00     0.201 C 
HETATM   24  O   UNL     1      44.989 -13.814   6.928  1.00  0.00    -0.286 OA
BRANCH  23  25
HETATM   25  C   UNL     1      44.029 -15.909   6.597  1.00  0.00     0.015 A 
HETATM   26  C   UNL     1      45.082 -16.784   6.308  1.00  0.00     0.016 A 
HETATM   27  C   UNL     1      44.947 -18.153   6.552  1.00  0.00     0.007 A 
HETATM   28  C   UNL     1      43.753 -18.670   7.068  1.00  0.00    -0.062 A 
HETATM   29  C   UNL     1      43.598 -20.139   7.333  1.00  0.00     0.048 C 
HETATM   30  C   UNL     1      42.696 -17.795   7.346  1.00  0.00     0.007 A 
HETATM   31  C   UNL     1      42.830 -16.426   7.107  1.00  0.00     0.016 A 
ENDBRANCH  23  25
ENDBRANCH   7  23
TORSDOF 7
ENDMDL
MODEL 2
REMARK VINA RESULT:      -7.6      2.011      4.819
REMARK  7 active torsions:
REMARK  status: ('A' for Active; 'I' for Inactive)
REMARK    1  A    between atoms: C_5  and  C_6 
REMARK    2  A    between atoms: C_6  and  C_7 
REMARK    3  A    between atoms: C_7  and  S_8 
REMARK    4  A    between atoms: S_8  and  C_9 
REMARK    5  A    between atoms: C_15  and  C_16 
REMARK    6  A    between atoms: C_16  and  C_17 
REMARK    7  A    between atoms: C_25  and  N_26 
ROOT
HETATM    1  C   UNL     1      40.941 -13.948   3.052  1.00  0.00     0.116 A 
HETATM    2  N   UNL     1      39.626 -13.719   2.913  1.00  0.00    -0.203 NA
HETATM    3  S   UNL     1      38.945 -15.024   2.095  1.00  0.00     0.020 SA
HETATM    4  C   UNL     1      40.386 -15.849   1.924  1.00  0.00     0.080 A 
HETATM    5  C   UNL     1      41.389 -15.156   2.481  1.00  0.00     0.053 A 
HETATM    6  S   UNL     1      40.843 -17.296   1.251  1.00  0.00    -0.074 SA
HETATM    7  C   UNL     1      42.507 -16.993   1.694  1.00  0.00     0.084 A 
HETATM    8  C   UNL     1      42.642 -15.789   2.388  1.00  0.00     0.062 A 
ENDROOT
BRANCH   1   9
HETATM    9  S   UNL     1      41.949 -12.761   3.867  1.00  0.00    -0.101 SA
BRANCH   9  10
HETATM   10  C   UNL     1      42.008 -13.465   5.538  1.00  0.00     0.164 C 
BRANCH  10  11
HETATM   11  C   UNL     1      43.346 -14.138   5.752  1.00  0.00     0.169 C 
HETATM   12  O   UNL     1      44.401 -13.569   5.472  1.00  0.00    -0.291 OA
BRANCH  11  13
HETATM   13  C   UNL     1      43.392 -15.529   6.297  1.00  0.00     0.011 A 
HETATM   14  C   UNL     1      42.238 -16.274   6.563  1.00  0.00     0.016 A 
HETATM   15  C   UNL     1      42.343 -17.575   7.067  1.00  0.00     0.007 A 
HETATM   16  C   UNL     1      43.597 -18.149   7.306  1.00  0.00    -0.062 A 
HETATM   17  C   UNL     1      43.714 -19.534   7.871  1.00  0.00     0.048 C 
HETATM   18  C   UNL     1      44.749 -17.393   7.060  1.00  0.00     0.007 A 
HETATM   19  C   UNL     1      44.647 -16.094   6.559  1.00  0.00     0.016 A 
ENDBRANCH  11  13
ENDBRANCH  10  11
ENDBRANCH   9  10
ENDBRANCH   1   9
BRANCH   8  20
HETATM   20  N   UNL     1      43.796 -15.314   2.902  1.00  0.00    -0.397 N 
HETATM   21  H   UNL     1      44.125 -15.532   3.840  1.00  0.00     0.156 HD
HETATM   22  H   UNL     1      44.228 -14.467   2.528  1.00  0.00     0.156 HD
ENDBRANCH   8  20
BRANCH   7  23
HETATM   23  C   UNL     1      43.482 -18.006   1.320  1.00  0.00     0.201 C 
HETATM   24  O   UNL     1      44.064 -18.007   0.235  1.00  0.00    -0.286 OA
BRANCH  23  25
HETATM   25  C   UNL     1      43.826 -19.101   2.276  1.00  0.00     0.015 A 
HETATM   26  C   UNL     1      44.170 -18.848   3.609  1.00  0.00     0.016 A 
HETATM   27  C   UNL     1      44.509 -19.903   4.461  1.00  0.00     0.007 A 
HETATM   28  C   UNL     1      44.529 -21.220   3.989  1.00  0.00    -0.062 A 
HETATM   29  C   UNL     1      44.891 -22.360   4.896  1.00  0.00     0.048 C 
HETATM   30  C   UNL     1      44.195 -21.472   2.653  1.00  0.00     0.007 A 
HETATM   31  C   UNL     1      43.851 -20.420   1.801  1.00  0.00     0.016 A 
ENDBRANCH  23  25
ENDBRANCH   7  23
TORSDOF 7
ENDMDL
MODEL 3
REMARK VINA RESULT:      -7.3      3.921      8.151
REMARK  7 active torsions:
REMARK  status: ('A' for Active; 'I' for Inactive)
REMARK    1  A    between atoms: C_5  and  C_6 
REMARK    2  A    between atoms: C_6  and  C_7 
REMARK    3  A    between atoms: C_7  and  S_8 
REMARK    4  A    between atoms: S_8  and  C_9 
REMARK    5  A    between atoms: C_15  and  C_16 
REMARK    6  A    between atoms: C_16  and  C_17 
REMARK    7  A    between atoms: C_25  and  N_26 
ROOT
HETATM    1  C   UNL     1      40.143 -15.364   1.837  1.00  0.00     0.116 A 
HETATM    2  N   UNL     1      39.546 -14.650   2.805  1.00  0.00    -0.203 NA
HETATM    3  S   UNL     1      39.085 -13.164   2.160  1.00  0.00     0.020 SA
HETATM    4  C   UNL     1      39.693 -13.479   0.637  1.00  0.00     0.080 A 
HETATM    5  C   UNL     1      40.243 -14.701   0.598  1.00  0.00     0.053 A 
HETATM    6  S   UNL     1      39.757 -12.652  -0.800  1.00  0.00    -0.074 SA
HETATM    7  C   UNL     1      40.603 -13.986  -1.548  1.00  0.00     0.084 A 
HETATM    8  C   UNL     1      40.772 -15.049  -0.659  1.00  0.00     0.062 A 
ENDROOT
BRANCH   1   9
HETATM    9  S   UNL     1      40.749 -16.975   2.193  1.00  0.00    -0.101 SA
BRANCH   9  10
HETATM   10  C   UNL     1      42.516 -16.625   2.410  1.00  0.00     0.164 C 
BRANCH  10  11
HETATM   11  C   UNL     1      43.327 -17.752   1.810  1.00  0.00     0.169 C 
HETATM   12  O   UNL     1      43.608 -17.772   0.612  1.00  0.00    -0.291 OA
BRANCH  11  13
HETATM   13  C   UNL     1      43.784 -18.877   2.683  1.00  0.00     0.011 A 
HETATM   14  C   UNL     1      44.065 -18.711   4.044  1.00  0.00     0.016 A 
HETATM   15  C   UNL     1      44.484 -19.801   4.813  1.00  0.00     0.007 A 
HETATM   16  C   UNL     1      44.622 -21.069   4.237  1.00  0.00    -0.062 A 
HETATM   17  C   UNL     1      45.095 -22.237   5.053  1.00  0.00     0.048 C 
HETATM   18  C   UNL     1      44.362 -21.228   2.872  1.00  0.00     0.007 A 
HETATM   19  C   UNL     1      43.946 -20.141   2.101  1.00  0.00     0.016 A 
ENDBRANCH  11  13
ENDBRANCH  10  11
ENDBRANCH   9  10
ENDBRANCH   1   9
BRANCH   8  20
HETATM   20  N   UNL     1      41.343 -16.235  -0.963  1.00  0.00    -0.397 N 
HETATM   21  H   UNL     1      40.865 -17.128  -0.869  1.00  0.00     0.156 HD
HETATM   22  H   UNL     1      42.359 -16.339  -0.981  1.00  0.00     0.156 HD
ENDBRANCH   8  20
BRANCH   7  23
HETATM   23  C   UNL     1      40.979 -13.827  -2.945  1.00  0.00     0.201 C 
HETATM   24  O   UNL     1      41.106 -14.778  -3.716  1.00  0.00    -0.286 OA
BRANCH  23  25
HETATM   25  C   UNL     1      41.216 -12.463  -3.503  1.00  0.00     0.015 A 
HETATM   26  C   UNL     1      40.243 -11.779  -4.243  1.00  0.00     0.016 A 
HETATM   27  C   UNL     1      40.519 -10.513  -4.768  1.00  0.00     0.007 A 
HETATM   28  C   UNL     1      41.773  -9.923  -4.580  1.00  0.00    -0.062 A 
HETATM   29  C   UNL     1      42.079  -8.564  -5.140  1.00  0.00     0.048 C 
HETATM   30  C   UNL     1      42.749 -10.612  -3.850  1.00  0.00     0.007 A 
HETATM   31  C   UNL     1      42.475 -11.875  -3.320  1.00  0.00     0.016 A 
ENDBRANCH  23  25
ENDBRANCH   7  23
TORSDOF 7
ENDMDL
MODEL 4
REMARK VINA RESULT:      -7.2      3.555      7.776
REMARK  7 active torsions:
REMARK  status: ('A' for Active; 'I' for Inactive)
REMARK    1  A    between atoms: C_5  and  C_6 
REMARK    2  A    between atoms: C_6  and  C_7 
REMARK    3  A    between atoms: C_7  and  S_8 
REMARK    4  A    between atoms: S_8  and  C_9 
REMARK    5  A    between atoms: C_15  and  C_16 
REMARK    6  A    between atoms: C_16  and  C_17 
REMARK    7  A    between atoms: C_25  and  N_26 
ROOT
HETATM    1  C   UNL     1      40.538 -15.216   2.815  1.00  0.00     0.116 A 
HETATM    2  N   UNL     1      40.208 -14.486   3.892  1.00  0.00    -0.203 NA
HETATM    3  S   UNL     1      39.651 -12.987   3.367  1.00  0.00     0.020 SA
HETATM    4  C   UNL     1      39.871 -13.317   1.745  1.00  0.00     0.080 A 
HETATM    5  C   UNL     1      40.361 -14.554   1.583  1.00  0.00     0.053 A 
HETATM    6  S   UNL     1      39.616 -12.489   0.329  1.00  0.00    -0.074 SA
HETATM    7  C   UNL     1      40.222 -13.846  -0.591  1.00  0.00     0.084 A 
HETATM    8  C   UNL     1      40.566 -14.915   0.239  1.00  0.00     0.062 A 
ENDROOT
BRANCH   1   9
HETATM    9  S   UNL     1      41.165 -16.844   3.024  1.00  0.00    -0.101 SA
BRANCH   9  10
HETATM   10  C   UNL     1      42.936 -16.556   2.761  1.00  0.00     0.164 C 
BRANCH  10  11
HETATM   11  C   UNL     1      43.522 -17.714   1.984  1.00  0.00     0.169 C 
HETATM   12  O   UNL     1      43.668 -17.658   0.763  1.00  0.00    -0.291 OA
BRANCH  11  13
HETATM   13  C   UNL     1      43.917 -18.962   2.707  1.00  0.00     0.011 A 
HETATM   14  C   UNL     1      43.941 -20.217   2.090  1.00  0.00     0.016 A 
HETATM   15  C   UNL     1      44.324 -21.350   2.816  1.00  0.00     0.007 A 
HETATM   16  C   UNL     1      44.692 -21.244   4.162  1.00  0.00    -0.062 A 
HETATM   17  C   UNL     1      45.080 -22.460   4.951  1.00  0.00     0.048 C 
HETATM   18  C   UNL     1      44.645 -19.991   4.783  1.00  0.00     0.007 A 
HETATM   19  C   UNL     1      44.261 -18.859   4.062  1.00  0.00     0.016 A 
ENDBRANCH  11  13
ENDBRANCH  10  11
ENDBRANCH   9  10
ENDBRANCH   1   9
BRANCH   8  20
HETATM   20  N   UNL     1      41.014 -16.116  -0.186  1.00  0.00    -0.397 N 
HETATM   21  H   UNL     1      41.877 -16.542   0.145  1.00  0.00     0.156 HD
HETATM   22  H   UNL     1      40.708 -16.505  -1.080  1.00  0.00     0.156 HD
ENDBRANCH   8  20
BRANCH   7  23
HETATM   23  C   UNL     1      40.260 -13.696  -2.038  1.00  0.00     0.201 C 
HETATM   24  O   UNL     1      41.306 -13.528  -2.666  1.00  0.00    -0.286 OA
BRANCH  23  25
HETATM   25  C   UNL     1      38.994 -13.757  -2.828  1.00  0.00     0.015 A 
HETATM   26  C   UNL     1      38.262 -12.609  -3.155  1.00  0.00     0.016 A 
HETATM   27  C   UNL     1      37.069 -12.717  -3.875  1.00  0.00     0.007 A 
HETATM   28  C   UNL     1      36.581 -13.971  -4.260  1.00  0.00    -0.062 A 
HETATM   29  C   UNL     1      35.301 -14.098  -5.033  1.00  0.00     0.048 C 
HETATM   30  C   UNL     1      37.308 -15.119  -3.923  1.00  0.00     0.007 A 
HETATM   31  C   UNL     1      38.503 -15.014  -3.207  1.00  0.00     0.016 A 
ENDBRANCH  23  25
ENDBRANCH   7  23
TORSDOF 7
ENDMDL
MODEL 5
REMARK VINA RESULT:      -7.2      2.768      6.773
REMARK  7 active torsions:
REMARK  status: ('A' for Active; 'I' for Inactive)
REMARK    1  A    between atoms: C_5  and  C_6 
REMARK    2  A    between atoms: C_6  and  C_7 
REMARK    3  A    between atoms: C_7  and  S_8 
REMARK    4  A    between atoms: S_8  and  C_9 
REMARK    5  A    between atoms: C_15  and  C_16 
REMARK    6  A    between atoms: C_16  and  C_17 
REMARK    7  A    between atoms: C_25  and  N_26 
ROOT
HETATM    1  C   UNL     1      41.932 -14.878   5.001  1.00  0.00     0.116 A 
HETATM    2  N   UNL     1      41.003 -14.506   5.895  1.00  0.00    -0.203 NA
HETATM    3  S   UNL     1      39.610 -14.064   5.058  1.00  0.00     0.020 SA
HETATM    4  C   UNL     1      40.259 -14.351   3.547  1.00  0.00     0.080 A 
HETATM    5  C   UNL     1      41.523 -14.783   3.656  1.00  0.00     0.053 A 
HETATM    6  S   UNL     1      39.705 -14.237   1.986  1.00  0.00    -0.074 SA
HETATM    7  C   UNL     1      41.257 -14.771   1.381  1.00  0.00     0.084 A 
HETATM    8  C   UNL     1      42.141 -15.057   2.423  1.00  0.00     0.062 A 
ENDROOT
BRANCH   1   9
HETATM    9  S   UNL     1      43.517 -15.396   5.558  1.00  0.00    -0.101 SA
BRANCH   9  10
HETATM   10  C   UNL     1      43.142 -17.085   6.103  1.00  0.00     0.164 C 
BRANCH  10  11
HETATM   11  C   UNL     1      44.317 -17.985   5.790  1.00  0.00     0.169 C 
HETATM   12  O   UNL     1      45.362 -17.924   6.438  1.00  0.00    -0.291 OA
BRANCH  11  13
HETATM   13  C   UNL     1      44.219 -18.958   4.659  1.00  0.00     0.011 A 
HETATM   14  C   UNL     1      43.493 -18.690   3.493  1.00  0.00     0.016 A 
HETATM   15  C   UNL     1      43.441 -19.636   2.464  1.00  0.00     0.007 A 
HETATM   16  C   UNL     1      44.115 -20.857   2.584  1.00  0.00    -0.062 A 
HETATM   17  C   UNL     1      44.041 -21.886   1.493  1.00  0.00     0.048 C 
HETATM   18  C   UNL     1      44.821 -21.133   3.759  1.00  0.00     0.007 A 
HETATM   19  C   UNL     1      44.873 -20.190   4.789  1.00  0.00     0.016 A 
ENDBRANCH  11  13
ENDBRANCH  10  11
ENDBRANCH   9  10
ENDBRANCH   1   9
BRANCH   8  20
HETATM   20  N   UNL     1      43.394 -15.538   2.269  1.00  0.00    -0.397 N 
HETATM   21  H   UNL     1      43.632 -16.285   1.621  1.00  0.00     0.156 HD
HETATM   22  H   UNL     1      44.094 -15.425   3.004  1.00  0.00     0.156 HD
ENDBRANCH   8  20
BRANCH   7  23
HETATM   23  C   UNL     1      41.402 -14.866  -0.063  1.00  0.00     0.201 C 
HETATM   24  O   UNL     1      41.261 -15.921  -0.682  1.00  0.00    -0.286 OA
BRANCH  23  25
HETATM   25  C   UNL     1      41.725 -13.647  -0.863  1.00  0.00     0.015 A 
HETATM   26  C   UNL     1      41.653 -13.630  -2.261  1.00  0.00     0.016 A 
HETATM   27  C   UNL     1      41.988 -12.472  -2.969  1.00  0.00     0.007 A 
HETATM   28  C   UNL     1      42.420 -11.325  -2.294  1.00  0.00    -0.062 A 
HETATM   29  C   UNL     1      42.783 -10.077  -3.045  1.00  0.00     0.048 C 
HETATM   30  C   UNL     1      42.502 -11.347  -0.896  1.00  0.00     0.007 A 
HETATM   31  C   UNL     1      42.163 -12.501  -0.186  1.00  0.00     0.016 A 
ENDBRANCH  23  25
ENDBRANCH   7  23
TORSDOF 7
ENDMDL
MODEL 6
REMARK VINA RESULT:      -7.1      2.860      4.978
REMARK  7 active torsions:
REMARK  status: ('A' for Active; 'I' for Inactive)
REMARK    1  A    between atoms: C_5  and  C_6 
REMARK    2  A    between atoms: C_6  and  C_7 
REMARK    3  A    between atoms: C_7  and  S_8 
REMARK    4  A    between atoms: S_8  and  C_9 
REMARK    5  A    between atoms: C_15  and  C_16 
REMARK    6  A    between atoms: C_16  and  C_17 
REMARK    7  A    between atoms: C_25  and  N_26 
ROOT
HETATM    1  C   UNL     1      41.042 -13.436   3.899  1.00  0.00     0.116 A 
HETATM    2  N   UNL     1      39.928 -13.023   4.524  1.00  0.00    -0.203 NA
HETATM    3  S   UNL     1      39.641 -14.048   5.829  1.00  0.00     0.020 SA
HETATM    4  C   UNL     1      40.968 -15.018   5.537  1.00  0.00     0.080 A 
HETATM    5  C   UNL     1      41.639 -14.581   4.462  1.00  0.00     0.053 A 
HETATM    6  S   UNL     1      41.633 -16.355   6.264  1.00  0.00    -0.074 SA
HETATM    7  C   UNL     1      42.899 -16.398   5.059  1.00  0.00     0.084 A 
HETATM    8  C   UNL     1      42.781 -15.343   4.154  1.00  0.00     0.062 A 
ENDROOT
BRANCH   1   9
HETATM    9  S   UNL     1      41.615 -12.572   2.480  1.00  0.00    -0.101 SA
BRANCH   9  10
HETATM   10  C   UNL     1      40.646 -13.386   1.180  1.00  0.00     0.164 C 
BRANCH  10  11
HETATM   11  C   UNL     1      41.583 -13.944   0.132  1.00  0.00     0.169 C 
HETATM   12  O   UNL     1      42.158 -15.020   0.295  1.00  0.00    -0.291 OA
BRANCH  11  13
HETATM   13  C   UNL     1      41.833 -13.168  -1.120  1.00  0.00     0.011 A 
HETATM   14  C   UNL     1      42.542 -11.961  -1.133  1.00  0.00     0.016 A 
HETATM   15  C   UNL     1      42.750 -11.281  -2.337  1.00  0.00     0.007 A 
HETATM   16  C   UNL     1      42.260 -11.797  -3.542  1.00  0.00    -0.062 A 
HETATM   17  C   UNL     1      42.460 -11.057  -4.833  1.00  0.00     0.048 C 
HETATM   18  C   UNL     1      41.532 -12.991  -3.525  1.00  0.00     0.007 A 
HETATM   19  C   UNL     1      41.321 -13.672  -2.323  1.00  0.00     0.016 A 
ENDBRANCH  11  13
ENDBRANCH  10  11
ENDBRANCH   9  10
ENDBRANCH   1   9
BRANCH   8  20
HETATM   20  N   UNL     1      43.641 -15.084   3.144  1.00  0.00    -0.397 N 
HETATM   21  H   UNL     1      44.448 -15.666   2.932  1.00  0.00     0.156 HD
HETATM   22  H   UNL     1      43.730 -14.142   2.759  1.00  0.00     0.156 HD
ENDBRANCH   8  20
BRANCH   7  23
HETATM   23  C   UNL     1      43.879 -17.468   5.174  1.00  0.00     0.201 C 
HETATM   24  O   UNL     1      44.713 -17.518   6.078  1.00  0.00    -0.286 OA
BRANCH  23  25
HETATM   25  C   UNL     1      43.894 -18.576   4.173  1.00  0.00     0.015 A 
HETATM   26  C   UNL     1      43.096 -18.556   3.023  1.00  0.00     0.016 A 
HETATM   27  C   UNL     1      43.124 -19.629   2.127  1.00  0.00     0.007 A 
HETATM   28  C   UNL     1      43.933 -20.743   2.377  1.00  0.00    -0.062 A 
HETATM   29  C   UNL     1      43.971 -21.900   1.421  1.00  0.00     0.048 C 
HETATM   30  C   UNL     1      44.723 -20.767   3.533  1.00  0.00     0.007 A 
HETATM   31  C   UNL     1      44.700 -19.695   4.428  1.00  0.00     0.016 A 
ENDBRANCH  23  25
ENDBRANCH   7  23
TORSDOF 7
ENDMDL
MODEL 7
REMARK VINA RESULT:      -7.1      2.616      6.566
REMARK  7 active torsions:
REMARK  status: ('A' for Active; 'I' for Inactive)
REMARK    1  A    between atoms: C_5  and  C_6 
REMARK    2  A    between atoms: C_6  and  C_7 
REMARK    3  A    between atoms: C_7  and  S_8 
REMARK    4  A    between atoms: S_8  and  C_9 
REMARK    5  A    between atoms: C_15  and  C_16 
REMARK    6  A    between atoms: C_16  and  C_17 
REMARK    7  A    between atoms: C_25  and  N_26 
ROOT
HETATM    1  C   UNL     1      40.514 -14.713   5.240  1.00  0.00     0.116 A 
HETATM    2  N   UNL     1      40.645 -13.808   6.222  1.00  0.00    -0.203 NA
HETATM    3  S   UNL     1      40.071 -12.328   5.659  1.00  0.00     0.020 SA
HETATM    4  C   UNL     1      39.682 -12.899   4.139  1.00  0.00     0.080 A 
HETATM    5  C   UNL     1      39.976 -14.203   4.041  1.00  0.00     0.053 A 
HETATM    6  S   UNL     1      39.022 -12.239   2.767  1.00  0.00    -0.074 SA
HETATM    7  C   UNL     1      39.150 -13.779   1.948  1.00  0.00     0.084 A 
HETATM    8  C   UNL     1      39.668 -14.765   2.789  1.00  0.00     0.062 A 
ENDROOT
BRANCH   1   9
HETATM    9  S   UNL     1      41.032 -16.370   5.509  1.00  0.00    -0.101 SA
BRANCH   9  10
HETATM   10  C   UNL     1      42.810 -16.222   5.183  1.00  0.00     0.164 C 
BRANCH  10  11
HETATM   11  C   UNL     1      43.082 -16.548   3.731  1.00  0.00     0.169 C 
HETATM   12  O   UNL     1      43.013 -15.684   2.856  1.00  0.00    -0.291 OA
BRANCH  11  13
HETATM   13  C   UNL     1      43.425 -17.950   3.343  1.00  0.00     0.011 A 
HETATM   14  C   UNL     1      43.033 -18.514   2.124  1.00  0.00     0.016 A 
HETATM   15  C   UNL     1      43.389 -19.831   1.812  1.00  0.00     0.007 A 
HETATM   16  C   UNL     1      44.141 -20.598   2.709  1.00  0.00    -0.062 A 
HETATM   17  C   UNL     1      44.503 -22.019   2.389  1.00  0.00     0.048 C 
HETATM   18  C   UNL     1      44.513 -20.040   3.937  1.00  0.00     0.007 A 
HETATM   19  C   UNL     1      44.158 -18.726   4.251  1.00  0.00     0.016 A 
ENDBRANCH  11  13
ENDBRANCH  10  11
ENDBRANCH   9  10
ENDBRANCH   1   9
BRANCH   8  20
HETATM   20  N   UNL     1      39.835 -16.063   2.455  1.00  0.00    -0.397 N 
HETATM   21  H   UNL     1      40.743 -16.483   2.273  1.00  0.00     0.156 HD
HETATM   22  H   UNL     1      39.070 -16.602   2.046  1.00  0.00     0.156 HD
ENDBRANCH   8  20
BRANCH   7  23
HETATM   23  C   UNL     1      38.694 -13.829   0.567  1.00  0.00     0.201 C 
HETATM   24  O   UNL     1      37.556 -14.175   0.249  1.00  0.00    -0.286 OA
BRANCH  23  25
HETATM   25  C   UNL     1      39.618 -13.438  -0.539  1.00  0.00     0.015 A 
HETATM   26  C   UNL     1      40.934 -13.911  -0.617  1.00  0.00     0.016 A 
HETATM   27  C   UNL     1      41.771 -13.498  -1.657  1.00  0.00     0.007 A 
HETATM   28  C   UNL     1      41.314 -12.591  -2.620  1.00  0.00    -0.062 A 
HETATM   29  C   UNL     1      42.205 -12.141  -3.741  1.00  0.00     0.048 C 
HETATM   30  C   UNL     1      40.002 -12.110  -2.536  1.00  0.00     0.007 A 
HETATM   31  C   UNL     1      39.162 -12.525  -1.500  1.00  0.00     0.016 A 
ENDBRANCH  23  25
ENDBRANCH   7  23
TORSDOF 7
ENDMDL
MODEL 8
REMARK VINA RESULT:      -7.0      3.104      4.503
REMARK  7 active torsions:
REMARK  status: ('A' for Active; 'I' for Inactive)
REMARK    1  A    between atoms: C_5  and  C_6 
REMARK    2  A    between atoms: C_6  and  C_7 
REMARK    3  A    between atoms: C_7  and  S_8 
REMARK    4  A    between atoms: S_8  and  C_9 
REMARK    5  A    between atoms: C_15  and  C_16 
REMARK    6  A    between atoms: C_16  and  C_17 
REMARK    7  A    between atoms: C_25  and  N_26 
ROOT
HETATM    1  C   UNL     1      41.440 -15.525   4.522  1.00  0.00     0.116 A 
HETATM    2  N   UNL     1      41.073 -16.814   4.604  1.00  0.00    -0.203 NA
HETATM    3  S   UNL     1      42.008 -17.556   5.792  1.00  0.00     0.020 SA
HETATM    4  C   UNL     1      42.884 -16.183   6.159  1.00  0.00     0.080 A 
HETATM    5  C   UNL     1      42.481 -15.156   5.397  1.00  0.00     0.053 A 
HETATM    6  S   UNL     1      44.094 -15.809   7.230  1.00  0.00    -0.074 SA
HETATM    7  C   UNL     1      44.129 -14.163   6.640  1.00  0.00     0.084 A 
HETATM    8  C   UNL     1      43.165 -13.953   5.652  1.00  0.00     0.062 A 
ENDROOT
BRANCH   1   9
HETATM    9  S   UNL     1      40.650 -14.468   3.362  1.00  0.00    -0.101 SA
BRANCH   9  10
HETATM   10  C   UNL     1      41.956 -14.308   2.114  1.00  0.00     0.164 C 
BRANCH  10  11
HETATM   11  C   UNL     1      41.817 -15.419   1.097  1.00  0.00     0.169 C 
HETATM   12  O   UNL     1      41.236 -15.239   0.026  1.00  0.00    -0.291 OA
BRANCH  11  13
HETATM   13  C   UNL     1      42.379 -16.770   1.401  1.00  0.00     0.011 A 
HETATM   14  C   UNL     1      41.607 -17.936   1.357  1.00  0.00     0.016 A 
HETATM   15  C   UNL     1      42.189 -19.175   1.646  1.00  0.00     0.007 A 
HETATM   16  C   UNL     1      43.546 -19.266   1.977  1.00  0.00    -0.062 A 
HETATM   17  C   UNL     1      44.168 -20.590   2.313  1.00  0.00     0.048 C 
HETATM   18  C   UNL     1      44.310 -18.096   2.043  1.00  0.00     0.007 A 
HETATM   19  C   UNL     1      43.731 -16.858   1.757  1.00  0.00     0.016 A 
ENDBRANCH  11  13
ENDBRANCH  10  11
ENDBRANCH   9  10
ENDBRANCH   1   9
BRANCH   8  20
HETATM   20  N   UNL     1      42.918 -12.772   5.045  1.00  0.00    -0.397 N 
HETATM   21  H   UNL     1      42.015 -12.524   4.648  1.00  0.00     0.156 HD
HETATM   22  H   UNL     1      43.679 -12.211   4.659  1.00  0.00     0.156 HD
ENDBRANCH   8  20
BRANCH   7  23
HETATM   23  C   UNL     1      45.098 -13.266   7.250  1.00  0.00     0.201 C 
HETATM   24  O   UNL     1      46.238 -13.112   6.810  1.00  0.00    -0.286 OA
BRANCH  23  25
HETATM   25  C   UNL     1      44.723 -12.470   8.456  1.00  0.00     0.015 A 
HETATM   26  C   UNL     1      43.527 -11.744   8.530  1.00  0.00     0.016 A 
HETATM   27  C   UNL     1      43.230 -10.993   9.671  1.00  0.00     0.007 A 
HETATM   28  C   UNL     1      44.129 -10.939  10.742  1.00  0.00    -0.062 A 
HETATM   29  C   UNL     1      43.818 -10.135  11.971  1.00  0.00     0.048 C 
HETATM   30  C   UNL     1      45.329 -11.655  10.662  1.00  0.00     0.007 A 
HETATM   31  C   UNL     1      45.627 -12.411   9.526  1.00  0.00     0.016 A 
ENDBRANCH  23  25
ENDBRANCH   7  23
TORSDOF 7
ENDMDL
MODEL 9
REMARK VINA RESULT:      -7.0      3.794      6.699
REMARK  7 active torsions:
REMARK  status: ('A' for Active; 'I' for Inactive)
REMARK    1  A    between atoms: C_5  and  C_6 
REMARK    2  A    between atoms: C_6  and  C_7 
REMARK    3  A    between atoms: C_7  and  S_8 
REMARK    4  A    between atoms: S_8  and  C_9 
REMARK    5  A    between atoms: C_15  and  C_16 
REMARK    6  A    between atoms: C_16  and  C_17 
REMARK    7  A    between atoms: C_25  and  N_26 
ROOT
HETATM    1  C   UNL     1      40.789 -12.940   4.267  1.00  0.00     0.116 A 
HETATM    2  N   UNL     1      40.816 -12.154   3.180  1.00  0.00    -0.203 NA
HETATM    3  S   UNL     1      41.899 -12.816   2.074  1.00  0.00     0.020 SA
HETATM    4  C   UNL     1      42.322 -14.104   3.048  1.00  0.00     0.080 A 
HETATM    5  C   UNL     1      41.654 -14.051   4.208  1.00  0.00     0.053 A 
HETATM    6  S   UNL     1      43.343 -15.404   2.903  1.00  0.00    -0.074 SA
HETATM    7  C   UNL     1      42.907 -15.945   4.508  1.00  0.00     0.084 A 
HETATM    8  C   UNL     1      41.948 -15.111   5.085  1.00  0.00     0.062 A 
ENDROOT
BRANCH   1   9
HETATM    9  S   UNL     1      39.751 -12.518   5.621  1.00  0.00    -0.101 SA
BRANCH   9  10
HETATM   10  C   UNL     1      40.905 -11.558   6.640  1.00  0.00     0.164 C 
BRANCH  10  11
HETATM   11  C   UNL     1      40.193 -11.073   7.883  1.00  0.00     0.169 C 
HETATM   12  O   UNL     1      38.980 -10.862   7.885  1.00  0.00    -0.291 OA
BRANCH  11  13
HETATM   13  C   UNL     1      40.976 -10.826   9.132  1.00  0.00     0.011 A 
HETATM   14  C   UNL     1      40.415 -10.929  10.409  1.00  0.00     0.016 A 
HETATM   15  C   UNL     1      41.199 -10.691  11.543  1.00  0.00     0.007 A 
HETATM   16  C   UNL     1      42.551 -10.355  11.417  1.00  0.00    -0.062 A 
HETATM   17  C   UNL     1      43.390 -10.075  12.630  1.00  0.00     0.048 C 
HETATM   18  C   UNL     1      43.105 -10.230  10.138  1.00  0.00     0.007 A 
HETATM   19  C   UNL     1      42.324 -10.465   9.004  1.00  0.00     0.016 A 
ENDBRANCH  11  13
ENDBRANCH  10  11
ENDBRANCH   9  10
ENDBRANCH   1   9
BRANCH   8  20
HETATM   20  N   UNL     1      41.379 -15.302   6.296  1.00  0.00    -0.397 N 
HETATM   21  H   UNL     1      41.230 -14.555   6.969  1.00  0.00     0.156 HD
HETATM   22  H   UNL     1      41.373 -16.225   6.733  1.00  0.00     0.156 HD
ENDBRANCH   8  20
BRANCH   7  23
HETATM   23  C   UNL     1      43.554 -17.153   4.994  1.00  0.00     0.201 C 
HETATM   24  O   UNL     1      44.001 -17.261   6.136  1.00  0.00    -0.286 OA
BRANCH  23  25
HETATM   25  C   UNL     1      43.688 -18.340   4.098  1.00  0.00     0.015 A 
HETATM   26  C   UNL     1      42.891 -18.511   2.959  1.00  0.00     0.016 A 
HETATM   27  C   UNL     1      43.035 -19.651   2.164  1.00  0.00     0.007 A 
HETATM   28  C   UNL     1      43.960 -20.645   2.505  1.00  0.00    -0.062 A 
HETATM   29  C   UNL     1      44.121 -21.873   1.657  1.00  0.00     0.048 C 
HETATM   30  C   UNL     1      44.748 -20.479   3.650  1.00  0.00     0.007 A 
HETATM   31  C   UNL     1      44.610 -19.338   4.444  1.00  0.00     0.016 A 
ENDBRANCH  23  25
ENDBRANCH   7  23
TORSDOF 7
ENDMDL
MODEL 10
REMARK VINA RESULT:      -7.0      3.597      5.199
REMARK  7 active torsions:
REMARK  status: ('A' for Active; 'I' for Inactive)
REMARK    1  A    between atoms: C_5  and  C_6 
REMARK    2  A    between atoms: C_6  and  C_7 
REMARK    3  A    between atoms: C_7  and  S_8 
REMARK    4  A    between atoms: S_8  and  C_9 
REMARK    5  A    between atoms: C_15  and  C_16 
REMARK    6  A    between atoms: C_16  and  C_17 
REMARK    7  A    between atoms: C_25  and  N_26 
ROOT
HETATM    1  C   UNL     1      41.003 -13.941   3.531  1.00  0.00     0.116 A 
HETATM    2  N   UNL     1      41.269 -13.596   2.262  1.00  0.00    -0.203 NA
HETATM    3  S   UNL     1      41.172 -11.920   2.137  1.00  0.00     0.020 SA
HETATM    4  C   UNL     1      40.767 -11.684   3.739  1.00  0.00     0.080 A 
HETATM    5  C   UNL     1      40.704 -12.858   4.382  1.00  0.00     0.053 A 
HETATM    6  S   UNL     1      40.447 -10.363   4.692  1.00  0.00    -0.074 SA
HETATM    7  C   UNL     1      40.170 -11.403   6.069  1.00  0.00     0.084 A 
HETATM    8  C   UNL     1      40.376 -12.746   5.746  1.00  0.00     0.062 A 
ENDROOT
BRANCH   1   9
HETATM    9  S   UNL     1      41.019 -15.636   3.994  1.00  0.00    -0.101 SA
BRANCH   9  10
HETATM   10  C   UNL     1      42.804 -15.930   4.125  1.00  0.00     0.164 C 
BRANCH  10  11
HETATM   11  C   UNL     1      43.046 -17.229   4.861  1.00  0.00     0.169 C 
HETATM   12  O   UNL     1      42.933 -17.302   6.085  1.00  0.00    -0.291 OA
BRANCH  11  13
HETATM   13  C   UNL     1      43.449 -18.446   4.094  1.00  0.00     0.011 A 
HETATM   14  C   UNL     1      44.369 -19.379   4.586  1.00  0.00     0.016 A 
HETATM   15  C   UNL     1      44.705 -20.504   3.825  1.00  0.00     0.007 A 
HETATM   16  C   UNL     1      44.124 -20.714   2.569  1.00  0.00    -0.062 A 
HETATM   17  C   UNL     1      44.500 -21.907   1.739  1.00  0.00     0.048 C 
HETATM   18  C   UNL     1      43.222 -19.769   2.069  1.00  0.00     0.007 A 
HETATM   19  C   UNL     1      42.887 -18.644   2.826  1.00  0.00     0.016 A 
ENDBRANCH  11  13
ENDBRANCH  10  11
ENDBRANCH   9  10
ENDBRANCH   1   9
BRANCH   8  20
HETATM   20  N   UNL     1      40.288 -13.777   6.614  1.00  0.00    -0.397 N 
HETATM   21  H   UNL     1      39.407 -14.127   6.981  1.00  0.00     0.156 HD
HETATM   22  H   UNL     1      41.084 -14.040   7.198  1.00  0.00     0.156 HD
ENDBRANCH   8  20
BRANCH   7  23
HETATM   23  C   UNL     1      39.803 -10.756   7.319  1.00  0.00     0.201 C 
HETATM   24  O   UNL     1      38.721 -10.195   7.491  1.00  0.00    -0.286 OA
BRANCH  23  25
HETATM   25  C   UNL     1      40.754 -10.766   8.471  1.00  0.00     0.015 A 
HETATM   26  C   UNL     1      42.136 -10.621   8.302  1.00  0.00     0.016 A 
HETATM   27  C   UNL     1      42.989 -10.662   9.407  1.00  0.00     0.007 A 
HETATM   28  C   UNL     1      42.478 -10.869  10.693  1.00  0.00    -0.062 A 
HETATM   29  C   UNL     1      43.386 -10.915  11.888  1.00  0.00     0.048 C 
HETATM   30  C   UNL     1      41.097 -11.026  10.861  1.00  0.00     0.007 A 
HETATM   31  C   UNL     1      40.241 -10.981   9.758  1.00  0.00     0.016 A 
ENDBRANCH  23  25
ENDBRANCH   7  23
TORSDOF 7
ENDMDL
