MODEL 1
REMARK VINA RESULT:      -8.8      0.000      0.000
REMARK  10 active torsions:
REMARK  status: ('A' for Active; 'I' for Inactive)
REMARK    1  A    between atoms: C_4  and  C_5 
REMARK    2  A    between atoms: C_8  and  O_9 
REMARK    3  A    between atoms: C_14  and  C_15 
REMARK    4  A    between atoms: C_18  and  C_19 
REMARK    5  A    between atoms: C_19  and  N_20 
REMARK    6  A    between atoms: N_20  and  C_21 
REMARK    7  A    between atoms: C_21  and  N_22 
REMARK    8  A    between atoms: N_22  and  C_23 
REMARK    9  A    between atoms: C_25  and  C_26 
REMARK   10  A    between atoms: C_26  and  O_27 
ROOT
HETATM    1  C   UNL     1      40.192 -14.905   0.808  1.00  0.00     0.067 C 
HETATM    2  C   UNL     1      40.296 -13.563   0.059  1.00  0.00     0.001 C 
HETATM    3  C   UNL     1      40.093 -12.358   1.001  1.00  0.00     0.040 C 
HETATM    4  C   UNL     1      38.693 -12.351   1.636  1.00  0.00     0.206 C 
HETATM    5  N   UNL     1      38.060 -13.703   1.317  1.00  0.00    -0.065 N 
HETATM    6  H   UNL     1      37.164 -13.787   1.819  1.00  0.00     0.280 HD
HETATM    7  C   UNL     1      38.957 -14.872   1.735  1.00  0.00     0.246 C 
HETATM    8  C   UNL     1      39.099 -13.526  -0.929  1.00  0.00     0.033 C 
HETATM    9  C   UNL     1      37.780 -13.779  -0.181  1.00  0.00     0.236 C 
ENDROOT
BRANCH   4  10
HETATM   10  C   UNL     1      38.698 -12.043   3.151  1.00  0.00     0.155 C 
BRANCH  10  11
HETATM   11  N   UNL     1      39.916 -12.507   3.814  1.00  0.00    -0.365 N 
HETATM   12  H   UNL     1      40.775 -12.009   3.599  1.00  0.00     0.161 HD
BRANCH  11  13
HETATM   13  C   UNL     1      39.981 -13.145   5.022  1.00  0.00     0.172 C 
HETATM   14  S   UNL     1      39.412 -12.528   6.466  1.00  0.00    -0.041 SA
BRANCH  13  15
HETATM   15  N   UNL     1      40.583 -14.371   5.050  1.00  0.00    -0.333 N 
HETATM   16  H   UNL     1      40.237 -14.990   4.320  1.00  0.00     0.168 HD
BRANCH  15  17
HETATM   17  C   UNL     1      41.673 -14.874   5.793  1.00  0.00     0.035 A 
HETATM   18  C   UNL     1      42.825 -14.143   6.085  1.00  0.00     0.047 A 
HETATM   19  C   UNL     1      43.881 -14.713   6.815  1.00  0.00     0.041 A 
HETATM   20  C   UNL     1      43.793 -16.044   7.233  1.00  0.00     0.018 A 
HETATM   21  C   UNL     1      42.660 -16.793   6.916  1.00  0.00     0.003 A 
HETATM   22  C   UNL     1      41.610 -16.211   6.199  1.00  0.00     0.029 A 
BRANCH  19  23
HETATM   23  C   UNL     1      45.055 -13.848   7.113  1.00  0.00     0.293 C 
HETATM   24  O   UNL     1      45.867 -13.518   6.260  1.00  0.00    -0.259 OA
BRANCH  23  25
HETATM   25  O   UNL     1      45.081 -13.504   8.421  1.00  0.00    -0.323 OA
HETATM   26  C   UNL     1      44.494 -12.234   8.709  1.00  0.00     0.213 C 
ENDBRANCH  23  25
ENDBRANCH  19  23
ENDBRANCH  15  17
ENDBRANCH  13  15
ENDBRANCH  11  13
ENDBRANCH  10  11
ENDBRANCH   4  10
BRANCH   1  27
HETATM   27  C   UNL     1      41.388 -15.523   1.480  1.00  0.00     0.038 C 
HETATM   28  N   UNL     1      42.431 -14.968   2.187  1.00  0.00    -0.277 N 
HETATM   29  C   UNL     1      42.811 -13.594   2.411  1.00  0.00     0.179 C 
HETATM   30  N   UNL     1      43.211 -15.885   2.781  1.00  0.00    -0.172 NA
HETATM   31  C   UNL     1      42.784 -17.072   2.344  1.00  0.00     0.089 C 
HETATM   32  C   UNL     1      41.651 -16.887   1.519  1.00  0.00     0.061 C 
BRANCH  31  33
HETATM   33  C   UNL     1      43.417 -18.327   2.750  1.00  0.00    -0.005 A 
HETATM   34  C   UNL     1      44.000 -18.450   4.017  1.00  0.00     0.016 A 
HETATM   35  C   UNL     1      44.563 -19.662   4.427  1.00  0.00     0.037 A 
HETATM   36  C   UNL     1      44.556 -20.771   3.581  1.00  0.00     0.068 A 
HETATM   37  C   UNL     1      44.007 -20.651   2.305  1.00  0.00     0.037 A 
HETATM   38  C   UNL     1      43.440 -19.436   1.893  1.00  0.00     0.016 A 
BRANCH  36  39
HETATM   39  O   UNL     1      45.119 -21.899   4.108  1.00  0.00    -0.356 OA
HETATM   40  C   UNL     1      44.758 -22.233   5.442  1.00  0.00     0.210 C 
ENDBRANCH  36  39
ENDBRANCH  31  33
ENDBRANCH   1  27
TORSDOF 10
ENDMDL
MODEL 2
REMARK VINA RESULT:      -8.4      4.308      7.221
REMARK  10 active torsions:
REMARK  status: ('A' for Active; 'I' for Inactive)
REMARK    1  A    between atoms: C_4  and  C_5 
REMARK    2  A    between atoms: C_8  and  O_9 
REMARK    3  A    between atoms: C_14  and  C_15 
REMARK    4  A    between atoms: C_18  and  C_19 
REMARK    5  A    between atoms: C_19  and  N_20 
REMARK    6  A    between atoms: N_20  and  C_21 
REMARK    7  A    between atoms: C_21  and  N_22 
REMARK    8  A    between atoms: N_22  and  C_23 
REMARK    9  A    between atoms: C_25  and  C_26 
REMARK   10  A    between atoms: C_26  and  O_27 
ROOT
HETATM    1  C   UNL     1      39.476 -14.308   2.583  1.00  0.00     0.067 C 
HETATM    2  C   UNL     1      39.153 -14.740   1.141  1.00  0.00     0.001 C 
HETATM    3  C   UNL     1      40.179 -14.191   0.128  1.00  0.00     0.040 C 
HETATM    4  C   UNL     1      40.187 -12.655   0.090  1.00  0.00     0.206 C 
HETATM    5  N   UNL     1      39.348 -12.181   1.274  1.00  0.00    -0.065 N 
HETATM    6  H   UNL     1      39.417 -11.157   1.355  1.00  0.00     0.280 HD
HETATM    7  C   UNL     1      39.816 -12.800   2.595  1.00  0.00     0.246 C 
HETATM    8  C   UNL     1      37.805 -14.060   0.778  1.00  0.00     0.033 C 
HETATM    9  C   UNL     1      37.887 -12.545   1.024  1.00  0.00     0.236 C 
ENDROOT
BRANCH   4  10
HETATM   10  C   UNL     1      41.605 -12.038   0.086  1.00  0.00     0.155 C 
BRANCH  10  11
HETATM   11  N   UNL     1      42.437 -12.553  -1.000  1.00  0.00    -0.365 N 
HETATM   12  H   UNL     1      42.847 -13.473  -0.870  1.00  0.00     0.161 HD
BRANCH  11  13
HETATM   13  C   UNL     1      42.325 -12.223  -2.324  1.00  0.00     0.172 C 
HETATM   14  S   UNL     1      42.474 -10.681  -2.947  1.00  0.00    -0.041 SA
BRANCH  13  15
HETATM   15  N   UNL     1      42.045 -13.235  -3.197  1.00  0.00    -0.333 N 
HETATM   16  H   UNL     1      42.849 -13.493  -3.764  1.00  0.00     0.168 HD
BRANCH  15  17
HETATM   17  C   UNL     1      40.914 -14.066  -3.352  1.00  0.00     0.035 A 
HETATM   18  C   UNL     1      39.610 -13.593  -3.502  1.00  0.00     0.047 A 
HETATM   19  C   UNL     1      38.526 -14.478  -3.633  1.00  0.00     0.041 A 
HETATM   20  C   UNL     1      38.750 -15.856  -3.583  1.00  0.00     0.018 A 
HETATM   21  C   UNL     1      40.046 -16.338  -3.398  1.00  0.00     0.003 A 
HETATM   22  C   UNL     1      41.118 -15.448  -3.281  1.00  0.00     0.029 A 
BRANCH  19  23
HETATM   23  C   UNL     1      37.175 -13.885  -3.826  1.00  0.00     0.293 C 
HETATM   24  O   UNL     1      36.881 -12.765  -3.430  1.00  0.00    -0.259 OA
BRANCH  23  25
HETATM   25  O   UNL     1      36.360 -14.745  -4.478  1.00  0.00    -0.323 OA
HETATM   26  C   UNL     1      35.222 -14.133  -5.088  1.00  0.00     0.213 C 
ENDBRANCH  23  25
ENDBRANCH  19  23
ENDBRANCH  15  17
ENDBRANCH  13  15
ENDBRANCH  11  13
ENDBRANCH  10  11
ENDBRANCH   4  10
BRANCH   1  27
HETATM   27  C   UNL     1      40.413 -15.105   3.449  1.00  0.00     0.038 C 
HETATM   28  N   UNL     1      40.635 -15.099   4.808  1.00  0.00    -0.277 N 
HETATM   29  C   UNL     1      40.147 -14.233   5.854  1.00  0.00     0.179 C 
HETATM   30  N   UNL     1      41.438 -16.097   5.214  1.00  0.00    -0.172 NA
HETATM   31  C   UNL     1      41.886 -16.685   4.103  1.00  0.00     0.089 C 
HETATM   32  C   UNL     1      41.277 -16.088   2.978  1.00  0.00     0.061 C 
BRANCH  31  33
HETATM   33  C   UNL     1      42.823 -17.809   4.140  1.00  0.00    -0.005 A 
HETATM   34  C   UNL     1      43.448 -18.172   5.339  1.00  0.00     0.016 A 
HETATM   35  C   UNL     1      44.307 -19.275   5.388  1.00  0.00     0.037 A 
HETATM   36  C   UNL     1      44.558 -20.032   4.244  1.00  0.00     0.068 A 
HETATM   37  C   UNL     1      43.965 -19.660   3.038  1.00  0.00     0.037 A 
HETATM   38  C   UNL     1      43.103 -18.556   2.987  1.00  0.00     0.016 A 
BRANCH  36  39
HETATM   39  O   UNL     1      45.397 -21.094   4.431  1.00  0.00    -0.356 OA
HETATM   40  C   UNL     1      44.912 -22.162   5.233  1.00  0.00     0.210 C 
ENDBRANCH  36  39
ENDBRANCH  31  33
ENDBRANCH   1  27
TORSDOF 10
ENDMDL
MODEL 3
REMARK VINA RESULT:      -8.3      2.844      4.514
REMARK  10 active torsions:
REMARK  status: ('A' for Active; 'I' for Inactive)
REMARK    1  A    between atoms: C_4  and  C_5 
REMARK    2  A    between atoms: C_8  and  O_9 
REMARK    3  A    between atoms: C_14  and  C_15 
REMARK    4  A    between atoms: C_18  and  C_19 
REMARK    5  A    between atoms: C_19  and  N_20 
REMARK    6  A    between atoms: N_20  and  C_21 
REMARK    7  A    between atoms: C_21  and  N_22 
REMARK    8  A    between atoms: N_22  and  C_23 
REMARK    9  A    between atoms: C_25  and  C_26 
REMARK   10  A    between atoms: C_26  and  O_27 
ROOT
HETATM    1  C   UNL     1      40.686 -13.441   4.174  1.00  0.00     0.067 C 
HETATM    2  C   UNL     1      41.040 -12.032   3.663  1.00  0.00     0.001 C 
HETATM    3  C   UNL     1      41.407 -11.075   4.816  1.00  0.00     0.040 C 
HETATM    4  C   UNL     1      40.235 -10.862   5.786  1.00  0.00     0.206 C 
HETATM    5  N   UNL     1      39.169 -11.892   5.420  1.00  0.00    -0.065 N 
HETATM    6  H   UNL     1      38.412 -11.862   6.116  1.00  0.00     0.280 HD
HETATM    7  C   UNL     1      39.733 -13.316   5.384  1.00  0.00     0.246 C 
HETATM    8  C   UNL     1      39.737 -11.457   3.045  1.00  0.00     0.033 C 
HETATM    9  C   UNL     1      38.584 -11.536   4.057  1.00  0.00     0.236 C 
ENDROOT
BRANCH   4  10
HETATM   10  C   UNL     1      40.639 -10.935   7.277  1.00  0.00     0.155 C 
BRANCH  10  11
HETATM   11  N   UNL     1      39.487 -10.862   8.174  1.00  0.00    -0.365 N 
HETATM   12  H   UNL     1      38.765 -11.568   8.055  1.00  0.00     0.161 HD
BRANCH  11  13
HETATM   13  C   UNL     1      39.481 -10.331   9.435  1.00  0.00     0.172 C 
HETATM   14  S   UNL     1      38.678  -8.938   9.888  1.00  0.00    -0.041 SA
BRANCH  13  15
HETATM   15  N   UNL     1      40.212 -10.980  10.389  1.00  0.00    -0.333 N 
HETATM   16  H   UNL     1      39.789 -11.862  10.670  1.00  0.00     0.168 HD
BRANCH  15  17
HETATM   17  C   UNL     1      41.489 -10.729  10.938  1.00  0.00     0.035 A 
HETATM   18  C   UNL     1      42.668 -11.310  10.472  1.00  0.00     0.047 A 
HETATM   19  C   UNL     1      43.905 -11.030  11.078  1.00  0.00     0.041 A 
HETATM   20  C   UNL     1      43.955 -10.177  12.184  1.00  0.00     0.018 A 
HETATM   21  C   UNL     1      42.776  -9.619  12.678  1.00  0.00     0.003 A 
HETATM   22  C   UNL     1      41.553  -9.896  12.059  1.00  0.00     0.029 A 
BRANCH  19  23
HETATM   23  C   UNL     1      45.116 -11.665  10.491  1.00  0.00     0.293 C 
HETATM   24  O   UNL     1      45.677 -12.622  11.007  1.00  0.00    -0.259 OA
BRANCH  23  25
HETATM   25  O   UNL     1      45.483 -11.040   9.349  1.00  0.00    -0.323 OA
HETATM   26  C   UNL     1      46.146 -11.881   8.403  1.00  0.00     0.213 C 
ENDBRANCH  23  25
ENDBRANCH  19  23
ENDBRANCH  15  17
ENDBRANCH  13  15
ENDBRANCH  11  13
ENDBRANCH  10  11
ENDBRANCH   4  10
BRANCH   1  27
HETATM   27  C   UNL     1      41.747 -14.485   4.395  1.00  0.00     0.038 C 
HETATM   28  N   UNL     1      42.785 -14.560   5.297  1.00  0.00    -0.277 N 
HETATM   29  C   UNL     1      43.296 -13.606   6.249  1.00  0.00     0.179 C 
HETATM   30  N   UNL     1      43.407 -15.751   5.284  1.00  0.00    -0.172 NA
HETATM   31  C   UNL     1      42.887 -16.428   4.257  1.00  0.00     0.089 C 
HETATM   32  C   UNL     1      41.853 -15.666   3.669  1.00  0.00     0.061 C 
BRANCH  31  33
HETATM   33  C   UNL     1      43.342 -17.772   3.900  1.00  0.00    -0.005 A 
HETATM   34  C   UNL     1      42.995 -18.333   2.665  1.00  0.00     0.016 A 
HETATM   35  C   UNL     1      43.468 -19.597   2.301  1.00  0.00     0.037 A 
HETATM   36  C   UNL     1      44.293 -20.324   3.160  1.00  0.00     0.068 A 
HETATM   37  C   UNL     1      44.618 -19.787   4.405  1.00  0.00     0.037 A 
HETATM   38  C   UNL     1      44.147 -18.519   4.771  1.00  0.00     0.016 A 
BRANCH  36  39
HETATM   39  O   UNL     1      44.702 -21.534   2.676  1.00  0.00    -0.356 OA
HETATM   40  C   UNL     1      44.098 -21.981   1.469  1.00  0.00     0.210 C 
ENDBRANCH  36  39
ENDBRANCH  31  33
ENDBRANCH   1  27
TORSDOF 10
ENDMDL
MODEL 4
REMARK VINA RESULT:      -8.3      3.127      4.395
REMARK  10 active torsions:
REMARK  status: ('A' for Active; 'I' for Inactive)
REMARK    1  A    between atoms: C_4  and  C_5 
REMARK    2  A    between atoms: C_8  and  O_9 
REMARK    3  A    between atoms: C_14  and  C_15 
REMARK    4  A    between atoms: C_18  and  C_19 
REMARK    5  A    between atoms: C_19  and  N_20 
REMARK    6  A    between atoms: N_20  and  C_21 
REMARK    7  A    between atoms: C_21  and  N_22 
REMARK    8  A    between atoms: N_22  and  C_23 
REMARK    9  A    between atoms: C_25  and  C_26 
REMARK   10  A    between atoms: C_26  and  O_27 
ROOT
HETATM    1  C   UNL     1      40.304 -14.276   2.183  1.00  0.00     0.067 C 
HETATM    2  C   UNL     1      40.842 -12.868   1.866  1.00  0.00     0.001 C 
HETATM    3  C   UNL     1      41.765 -12.337   2.982  1.00  0.00     0.040 C 
HETATM    4  C   UNL     1      41.025 -12.187   4.321  1.00  0.00     0.206 C 
HETATM    5  N   UNL     1      39.671 -12.874   4.153  1.00  0.00    -0.065 N 
HETATM    6  H   UNL     1      39.186 -12.897   5.061  1.00  0.00     0.280 HD
HETATM    7  C   UNL     1      39.814 -14.312   3.648  1.00  0.00     0.246 C 
HETATM    8  C   UNL     1      39.608 -11.926   1.862  1.00  0.00     0.033 C 
HETATM    9  C   UNL     1      38.824 -12.066   3.176  1.00  0.00     0.236 C 
ENDROOT
BRANCH   4  10
HETATM   10  C   UNL     1      41.816 -12.728   5.534  1.00  0.00     0.155 C 
BRANCH  10  11
HETATM   11  N   UNL     1      41.360 -12.156   6.800  1.00  0.00    -0.365 N 
HETATM   12  H   UNL     1      40.972 -12.801   7.483  1.00  0.00     0.161 HD
BRANCH  11  13
HETATM   13  C   UNL     1      41.837 -11.015   7.385  1.00  0.00     0.172 C 
HETATM   14  S   UNL     1      41.322  -9.466   7.031  1.00  0.00    -0.041 SA
BRANCH  13  15
HETATM   15  N   UNL     1      42.829 -11.157   8.313  1.00  0.00    -0.333 N 
HETATM   16  H   UNL     1      43.744 -11.288   7.887  1.00  0.00     0.168 HD
BRANCH  15  17
HETATM   17  C   UNL     1      42.840 -11.013   9.718  1.00  0.00     0.035 A 
HETATM   18  C   UNL     1      41.697 -11.046  10.516  1.00  0.00     0.047 A 
HETATM   19  C   UNL     1      41.778 -10.877  11.909  1.00  0.00     0.041 A 
HETATM   20  C   UNL     1      43.020 -10.643  12.505  1.00  0.00     0.018 A 
HETATM   21  C   UNL     1      44.164 -10.574  11.711  1.00  0.00     0.003 A 
HETATM   22  C   UNL     1      44.072 -10.755  10.327  1.00  0.00     0.029 A 
BRANCH  19  23
HETATM   23  C   UNL     1      40.511 -10.965  12.686  1.00  0.00     0.293 C 
HETATM   24  O   UNL     1      40.060 -12.024  13.099  1.00  0.00    -0.259 OA
BRANCH  23  25
HETATM   25  O   UNL     1      39.962  -9.740  12.851  1.00  0.00    -0.323 OA
HETATM   26  C   UNL     1      38.708  -9.562  12.190  1.00  0.00     0.213 C 
ENDBRANCH  23  25
ENDBRANCH  19  23
ENDBRANCH  15  17
ENDBRANCH  13  15
ENDBRANCH  11  13
ENDBRANCH  10  11
ENDBRANCH   4  10
BRANCH   1  27
HETATM   27  C   UNL     1      41.078 -15.513   1.814  1.00  0.00     0.038 C 
HETATM   28  N   UNL     1      41.502 -16.001   0.599  1.00  0.00    -0.277 N 
HETATM   29  C   UNL     1      41.236 -15.569  -0.751  1.00  0.00     0.179 C 
HETATM   30  N   UNL     1      42.326 -17.056   0.715  1.00  0.00    -0.172 NA
HETATM   31  C   UNL     1      42.331 -17.380   2.010  1.00  0.00     0.089 C 
HETATM   32  C   UNL     1      41.554 -16.445   2.730  1.00  0.00     0.061 C 
BRANCH  31  33
HETATM   33  C   UNL     1      43.097 -18.515   2.526  1.00  0.00    -0.005 A 
HETATM   34  C   UNL     1      43.680 -18.458   3.797  1.00  0.00     0.016 A 
HETATM   35  C   UNL     1      44.371 -19.558   4.313  1.00  0.00     0.037 A 
HETATM   36  C   UNL     1      44.494 -20.732   3.570  1.00  0.00     0.068 A 
HETATM   37  C   UNL     1      43.944 -20.789   2.291  1.00  0.00     0.037 A 
HETATM   38  C   UNL     1      43.249 -19.687   1.773  1.00  0.00     0.016 A 
BRANCH  36  39
HETATM   39  O   UNL     1      45.175 -21.739   4.196  1.00  0.00    -0.356 OA
HETATM   40  C   UNL     1      44.768 -22.063   5.519  1.00  0.00     0.210 C 
ENDBRANCH  36  39
ENDBRANCH  31  33
ENDBRANCH   1  27
TORSDOF 10
ENDMDL
MODEL 5
REMARK VINA RESULT:      -8.3      2.008      2.900
REMARK  10 active torsions:
REMARK  status: ('A' for Active; 'I' for Inactive)
REMARK    1  A    between atoms: C_4  and  C_5 
REMARK    2  A    between atoms: C_8  and  O_9 
REMARK    3  A    between atoms: C_14  and  C_15 
REMARK    4  A    between atoms: C_18  and  C_19 
REMARK    5  A    between atoms: C_19  and  N_20 
REMARK    6  A    between atoms: N_20  and  C_21 
REMARK    7  A    between atoms: C_21  and  N_22 
REMARK    8  A    between atoms: N_22  and  C_23 
REMARK    9  A    between atoms: C_25  and  C_26 
REMARK   10  A    between atoms: C_26  and  O_27 
ROOT
HETATM    1  C   UNL     1      41.271 -14.834  -0.537  1.00  0.00     0.067 C 
HETATM    2  C   UNL     1      42.086 -13.531  -0.646  1.00  0.00     0.001 C 
HETATM    3  C   UNL     1      41.390 -12.353   0.066  1.00  0.00     0.040 C 
HETATM    4  C   UNL     1      40.027 -12.022  -0.562  1.00  0.00     0.206 C 
HETATM    5  N   UNL     1      39.700 -13.159  -1.527  1.00  0.00    -0.065 N 
HETATM    6  H   UNL     1      38.743 -13.037  -1.887  1.00  0.00     0.280 HD
HETATM    7  C   UNL     1      39.789 -14.531  -0.851  1.00  0.00     0.246 C 
HETATM    8  C   UNL     1      42.101 -13.157  -2.153  1.00  0.00     0.033 C 
HETATM    9  C   UNL     1      40.668 -13.103  -2.705  1.00  0.00     0.236 C 
ENDROOT
BRANCH   4  10
HETATM   10  C   UNL     1      38.904 -11.786   0.475  1.00  0.00     0.155 C 
BRANCH  10  11
HETATM   11  N   UNL     1      39.280 -12.224   1.818  1.00  0.00    -0.365 N 
HETATM   12  H   UNL     1      40.053 -12.880   1.889  1.00  0.00     0.161 HD
BRANCH  11  13
HETATM   13  C   UNL     1      39.102 -11.515   2.975  1.00  0.00     0.172 C 
HETATM   14  S   UNL     1      38.070 -10.215   3.156  1.00  0.00    -0.041 SA
BRANCH  13  15
HETATM   15  N   UNL     1      39.848 -11.889   4.057  1.00  0.00    -0.333 N 
HETATM   16  H   UNL     1      39.546 -11.431   4.913  1.00  0.00     0.168 HD
BRANCH  15  17
HETATM   17  C   UNL     1      40.842 -12.878   4.226  1.00  0.00     0.035 A 
HETATM   18  C   UNL     1      40.735 -13.951   5.111  1.00  0.00     0.047 A 
HETATM   19  C   UNL     1      41.772 -14.890   5.242  1.00  0.00     0.041 A 
HETATM   20  C   UNL     1      42.944 -14.735   4.497  1.00  0.00     0.018 A 
HETATM   21  C   UNL     1      43.074 -13.645   3.636  1.00  0.00     0.003 A 
HETATM   22  C   UNL     1      42.030 -12.723   3.504  1.00  0.00     0.029 A 
BRANCH  19  23
HETATM   23  C   UNL     1      41.556 -16.023   6.183  1.00  0.00     0.293 C 
HETATM   24  O   UNL     1      40.540 -16.705   6.175  1.00  0.00    -0.259 OA
BRANCH  23  25
HETATM   25  O   UNL     1      42.614 -16.170   7.012  1.00  0.00    -0.323 OA
HETATM   26  C   UNL     1      42.775 -17.488   7.537  1.00  0.00     0.213 C 
ENDBRANCH  23  25
ENDBRANCH  19  23
ENDBRANCH  15  17
ENDBRANCH  13  15
ENDBRANCH  11  13
ENDBRANCH  10  11
ENDBRANCH   4  10
BRANCH   1  27
HETATM   27  C   UNL     1      41.422 -15.757   0.642  1.00  0.00     0.038 C 
HETATM   28  N   UNL     1      40.566 -16.078   1.670  1.00  0.00    -0.277 N 
HETATM   29  C   UNL     1      39.282 -15.541   2.051  1.00  0.00     0.179 C 
HETATM   30  N   UNL     1      41.017 -17.088   2.434  1.00  0.00    -0.172 NA
HETATM   31  C   UNL     1      42.257 -17.344   2.013  1.00  0.00     0.089 C 
HETATM   32  C   UNL     1      42.552 -16.525   0.899  1.00  0.00     0.061 C 
BRANCH  31  33
HETATM   33  C   UNL     1      43.094 -18.371   2.633  1.00  0.00    -0.005 A 
HETATM   34  C   UNL     1      43.524 -18.232   3.958  1.00  0.00     0.016 A 
HETATM   35  C   UNL     1      44.283 -19.235   4.568  1.00  0.00     0.037 A 
HETATM   36  C   UNL     1      44.628 -20.391   3.869  1.00  0.00     0.068 A 
HETATM   37  C   UNL     1      44.232 -20.526   2.539  1.00  0.00     0.037 A 
HETATM   38  C   UNL     1      43.469 -19.522   1.926  1.00  0.00     0.016 A 
BRANCH  36  39
HETATM   39  O   UNL     1      45.353 -21.301   4.585  1.00  0.00    -0.356 OA
HETATM   40  C   UNL     1      44.761 -22.577   4.789  1.00  0.00     0.210 C 
ENDBRANCH  36  39
ENDBRANCH  31  33
ENDBRANCH   1  27
TORSDOF 10
ENDMDL
MODEL 6
REMARK VINA RESULT:      -8.2      2.118      3.635
REMARK  10 active torsions:
REMARK  status: ('A' for Active; 'I' for Inactive)
REMARK    1  A    between atoms: C_4  and  C_5 
REMARK    2  A    between atoms: C_8  and  O_9 
REMARK    3  A    between atoms: C_14  and  C_15 
REMARK    4  A    between atoms: C_18  and  C_19 
REMARK    5  A    between atoms: C_19  and  N_20 
REMARK    6  A    between atoms: N_20  and  C_21 
REMARK    7  A    between atoms: C_21  and  N_22 
REMARK    8  A    between atoms: N_22  and  C_23 
REMARK    9  A    between atoms: C_25  and  C_26 
REMARK   10  A    between atoms: C_26  and  O_27 
ROOT
HETATM    1  C   UNL     1      40.433 -14.296   2.485  1.00  0.00     0.067 C 
HETATM    2  C   UNL     1      41.056 -12.911   2.226  1.00  0.00     0.001 C 
HETATM    3  C   UNL     1      41.983 -12.470   3.377  1.00  0.00     0.040 C 
HETATM    4  C   UNL     1      41.225 -12.323   4.706  1.00  0.00     0.206 C 
HETATM    5  N   UNL     1      39.839 -12.926   4.490  1.00  0.00    -0.065 N 
HETATM    6  H   UNL     1      39.334 -12.951   5.387  1.00  0.00     0.280 HD
HETATM    7  C   UNL     1      39.911 -14.353   3.938  1.00  0.00     0.246 C 
HETATM    8  C   UNL     1      39.877 -11.901   2.231  1.00  0.00     0.033 C 
HETATM    9  C   UNL     1      39.059 -12.039   3.524  1.00  0.00     0.236 C 
ENDROOT
BRANCH   4  10
HETATM   10  C   UNL     1      41.960 -12.948   5.915  1.00  0.00     0.155 C 
BRANCH  10  11
HETATM   11  N   UNL     1      42.942 -13.954   5.515  1.00  0.00    -0.365 N 
HETATM   12  H   UNL     1      43.410 -13.812   4.624  1.00  0.00     0.161 HD
BRANCH  11  13
HETATM   13  C   UNL     1      43.675 -14.743   6.359  1.00  0.00     0.172 C 
HETATM   14  S   UNL     1      43.164 -16.198   7.001  1.00  0.00    -0.041 SA
BRANCH  13  15
HETATM   15  N   UNL     1      44.910 -14.288   6.723  1.00  0.00    -0.333 N 
HETATM   16  H   UNL     1      45.657 -14.713   6.178  1.00  0.00     0.168 HD
BRANCH  15  17
HETATM   17  C   UNL     1      45.320 -13.255   7.594  1.00  0.00     0.035 A 
HETATM   18  C   UNL     1      44.513 -12.705   8.590  1.00  0.00     0.047 A 
HETATM   19  C   UNL     1      44.979 -11.664   9.412  1.00  0.00     0.041 A 
HETATM   20  C   UNL     1      46.262 -11.148   9.211  1.00  0.00     0.018 A 
HETATM   21  C   UNL     1      47.063 -11.667   8.194  1.00  0.00     0.003 A 
HETATM   22  C   UNL     1      46.593 -12.711   7.391  1.00  0.00     0.029 A 
BRANCH  19  23
HETATM   23  C   UNL     1      44.064 -11.165  10.473  1.00  0.00     0.293 C 
HETATM   24  O   UNL     1      43.722  -9.994  10.555  1.00  0.00    -0.259 OA
BRANCH  23  25
HETATM   25  O   UNL     1      43.689 -12.170  11.298  1.00  0.00    -0.323 OA
HETATM   26  C   UNL     1      43.043 -11.739  12.497  1.00  0.00     0.213 C 
ENDBRANCH  23  25
ENDBRANCH  19  23
ENDBRANCH  15  17
ENDBRANCH  13  15
ENDBRANCH  11  13
ENDBRANCH  10  11
ENDBRANCH   4  10
BRANCH   1  27
HETATM   27  C   UNL     1      41.144 -15.562   2.089  1.00  0.00     0.038 C 
HETATM   28  N   UNL     1      41.509 -16.062   0.860  1.00  0.00    -0.277 N 
HETATM   29  C   UNL     1      41.217 -15.616  -0.481  1.00  0.00     0.179 C 
HETATM   30  N   UNL     1      42.292 -17.150   0.946  1.00  0.00    -0.172 NA
HETATM   31  C   UNL     1      42.326 -17.478   2.240  1.00  0.00     0.089 C 
HETATM   32  C   UNL     1      41.612 -16.515   2.987  1.00  0.00     0.061 C 
BRANCH  31  33
HETATM   33  C   UNL     1      43.062 -18.645   2.729  1.00  0.00    -0.005 A 
HETATM   34  C   UNL     1      43.190 -19.789   1.932  1.00  0.00     0.016 A 
HETATM   35  C   UNL     1      43.933 -20.886   2.377  1.00  0.00     0.037 A 
HETATM   36  C   UNL     1      44.560 -20.863   3.623  1.00  0.00     0.068 A 
HETATM   37  C   UNL     1      44.413 -19.742   4.437  1.00  0.00     0.037 A 
HETATM   38  C   UNL     1      43.669 -18.639   3.992  1.00  0.00     0.016 A 
BRANCH  36  39
HETATM   39  O   UNL     1      45.271 -21.989   3.929  1.00  0.00    -0.356 OA
HETATM   40  C   UNL     1      45.150 -22.484   5.256  1.00  0.00     0.210 C 
ENDBRANCH  36  39
ENDBRANCH  31  33
ENDBRANCH   1  27
TORSDOF 10
ENDMDL
MODEL 7
REMARK VINA RESULT:      -8.1      3.101      5.992
REMARK  10 active torsions:
REMARK  status: ('A' for Active; 'I' for Inactive)
REMARK    1  A    between atoms: C_4  and  C_5 
REMARK    2  A    between atoms: C_8  and  O_9 
REMARK    3  A    between atoms: C_14  and  C_15 
REMARK    4  A    between atoms: C_18  and  C_19 
REMARK    5  A    between atoms: C_19  and  N_20 
REMARK    6  A    between atoms: N_20  and  C_21 
REMARK    7  A    between atoms: C_21  and  N_22 
REMARK    8  A    between atoms: N_22  and  C_23 
REMARK    9  A    between atoms: C_25  and  C_26 
REMARK   10  A    between atoms: C_26  and  O_27 
ROOT
HETATM    1  C   UNL     1      41.971 -13.104   5.558  1.00  0.00     0.067 C 
HETATM    2  C   UNL     1      40.531 -13.155   6.103  1.00  0.00     0.001 C 
HETATM    3  C   UNL     1      39.521 -13.601   5.026  1.00  0.00     0.040 C 
HETATM    4  C   UNL     1      39.463 -12.620   3.845  1.00  0.00     0.206 C 
HETATM    5  N   UNL     1      40.635 -11.656   4.018  1.00  0.00    -0.065 N 
HETATM    6  H   UNL     1      40.704 -11.050   3.188  1.00  0.00     0.280 HD
HETATM    7  C   UNL     1      41.967 -12.394   4.185  1.00  0.00     0.246 C 
HETATM    8  C   UNL     1      40.150 -11.690   6.450  1.00  0.00     0.033 C 
HETATM    9  C   UNL     1      40.378 -10.776   5.237  1.00  0.00     0.236 C 
ENDROOT
BRANCH   4  10
HETATM   10  C   UNL     1      39.464 -13.309   2.461  1.00  0.00     0.155 C 
BRANCH  10  11
HETATM   11  N   UNL     1      39.797 -14.730   2.544  1.00  0.00    -0.365 N 
HETATM   12  H   UNL     1      39.416 -15.248   3.331  1.00  0.00     0.161 HD
BRANCH  11  13
HETATM   13  C   UNL     1      40.095 -15.549   1.489  1.00  0.00     0.172 C 
HETATM   14  S   UNL     1      40.811 -17.053   1.612  1.00  0.00    -0.041 SA
BRANCH  13  15
HETATM   15  N   UNL     1      39.807 -15.084   0.237  1.00  0.00    -0.333 N 
HETATM   16  H   UNL     1      38.807 -15.049   0.057  1.00  0.00     0.168 HD
BRANCH  15  17
HETATM   17  C   UNL     1      40.617 -14.521  -0.774  1.00  0.00     0.035 A 
HETATM   18  C   UNL     1      41.318 -13.323  -0.638  1.00  0.00     0.047 A 
HETATM   19  C   UNL     1      42.092 -12.810  -1.692  1.00  0.00     0.041 A 
HETATM   20  C   UNL     1      42.140 -13.494  -2.910  1.00  0.00     0.018 A 
HETATM   21  C   UNL     1      41.414 -14.674  -3.067  1.00  0.00     0.003 A 
HETATM   22  C   UNL     1      40.657 -15.182  -2.006  1.00  0.00     0.029 A 
BRANCH  19  23
HETATM   23  C   UNL     1      42.836 -11.545  -1.445  1.00  0.00     0.293 C 
HETATM   24  O   UNL     1      43.288 -11.247  -0.349  1.00  0.00    -0.259 OA
BRANCH  23  25
HETATM   25  O   UNL     1      42.924 -10.809  -2.577  1.00  0.00    -0.323 OA
HETATM   26  C   UNL     1      42.954  -9.397  -2.362  1.00  0.00     0.213 C 
ENDBRANCH  23  25
ENDBRANCH  19  23
ENDBRANCH  15  17
ENDBRANCH  13  15
ENDBRANCH  11  13
ENDBRANCH  10  11
ENDBRANCH   4  10
BRANCH   1  27
HETATM   27  C   UNL     1      42.854 -14.322   5.562  1.00  0.00     0.038 C 
HETATM   28  N   UNL     1      43.836 -14.740   6.432  1.00  0.00    -0.277 N 
HETATM   29  C   UNL     1      44.453 -14.090   7.563  1.00  0.00     0.179 C 
HETATM   30  N   UNL     1      44.271 -15.984   6.176  1.00  0.00    -0.172 NA
HETATM   31  C   UNL     1      43.692 -16.350   5.030  1.00  0.00     0.089 C 
HETATM   32  C   UNL     1      42.805 -15.333   4.609  1.00  0.00     0.061 C 
BRANCH  31  33
HETATM   33  C   UNL     1      43.950 -17.647   4.405  1.00  0.00    -0.005 A 
HETATM   34  C   UNL     1      44.233 -18.770   5.191  1.00  0.00     0.016 A 
HETATM   35  C   UNL     1      44.432 -20.021   4.599  1.00  0.00     0.037 A 
HETATM   36  C   UNL     1      44.355 -20.173   3.215  1.00  0.00     0.068 A 
HETATM   37  C   UNL     1      44.106 -19.055   2.420  1.00  0.00     0.037 A 
HETATM   38  C   UNL     1      43.903 -17.800   3.012  1.00  0.00     0.016 A 
BRANCH  36  39
HETATM   39  O   UNL     1      44.549 -21.449   2.766  1.00  0.00    -0.356 OA
HETATM   40  C   UNL     1      43.743 -21.875   1.675  1.00  0.00     0.210 C 
ENDBRANCH  36  39
ENDBRANCH  31  33
ENDBRANCH   1  27
TORSDOF 10
ENDMDL
MODEL 8
REMARK VINA RESULT:      -8.1      3.714      7.001
REMARK  10 active torsions:
REMARK  status: ('A' for Active; 'I' for Inactive)
REMARK    1  A    between atoms: C_4  and  C_5 
REMARK    2  A    between atoms: C_8  and  O_9 
REMARK    3  A    between atoms: C_14  and  C_15 
REMARK    4  A    between atoms: C_18  and  C_19 
REMARK    5  A    between atoms: C_19  and  N_20 
REMARK    6  A    between atoms: N_20  and  C_21 
REMARK    7  A    between atoms: C_21  and  N_22 
REMARK    8  A    between atoms: N_22  and  C_23 
REMARK    9  A    between atoms: C_25  and  C_26 
REMARK   10  A    between atoms: C_26  and  O_27 
ROOT
HETATM    1  C   UNL     1      41.864 -13.431   5.650  1.00  0.00     0.067 C 
HETATM    2  C   UNL     1      40.357 -13.588   5.926  1.00  0.00     0.001 C 
HETATM    3  C   UNL     1      39.569 -13.944   4.648  1.00  0.00     0.040 C 
HETATM    4  C   UNL     1      39.664 -12.840   3.584  1.00  0.00     0.206 C 
HETATM    5  N   UNL     1      40.739 -11.864   4.059  1.00  0.00    -0.065 N 
HETATM    6  H   UNL     1      40.917 -11.168   3.322  1.00  0.00     0.280 HD
HETATM    7  C   UNL     1      42.058 -12.573   4.379  1.00  0.00     0.246 C 
HETATM    8  C   UNL     1      39.848 -12.184   6.351  1.00  0.00     0.033 C 
HETATM    9  C   UNL     1      40.233 -11.134   5.298  1.00  0.00     0.236 C 
ENDROOT
BRANCH   4  10
HETATM   10  C   UNL     1      39.936 -13.371   2.158  1.00  0.00     0.155 C 
BRANCH  10  11
HETATM   11  N   UNL     1      40.335 -14.777   2.150  1.00  0.00    -0.365 N 
HETATM   12  H   UNL     1      39.761 -15.422   2.686  1.00  0.00     0.161 HD
BRANCH  11  13
HETATM   13  C   UNL     1      41.025 -15.412   1.153  1.00  0.00     0.172 C 
HETATM   14  S   UNL     1      41.217 -17.065   1.020  1.00  0.00    -0.041 SA
BRANCH  13  15
HETATM   15  N   UNL     1      41.623 -14.626   0.210  1.00  0.00    -0.333 N 
HETATM   16  H   UNL     1      42.551 -14.318   0.492  1.00  0.00     0.168 HD
BRANCH  15  17
HETATM   17  C   UNL     1      41.259 -14.291  -1.113  1.00  0.00     0.035 A 
HETATM   18  C   UNL     1      40.181 -14.856  -1.795  1.00  0.00     0.047 A 
HETATM   19  C   UNL     1      39.886 -14.490  -3.119  1.00  0.00     0.041 A 
HETATM   20  C   UNL     1      40.701 -13.567  -3.778  1.00  0.00     0.018 A 
HETATM   21  C   UNL     1      41.802 -13.023  -3.117  1.00  0.00     0.003 A 
HETATM   22  C   UNL     1      42.079 -13.386  -1.795  1.00  0.00     0.029 A 
BRANCH  19  23
HETATM   23  C   UNL     1      38.695 -15.116  -3.754  1.00  0.00     0.293 C 
HETATM   24  O   UNL     1      38.772 -16.090  -4.489  1.00  0.00    -0.259 OA
BRANCH  23  25
HETATM   25  O   UNL     1      37.563 -14.460  -3.407  1.00  0.00    -0.323 OA
HETATM   26  C   UNL     1      36.538 -14.485  -4.401  1.00  0.00     0.213 C 
ENDBRANCH  23  25
ENDBRANCH  19  23
ENDBRANCH  15  17
ENDBRANCH  13  15
ENDBRANCH  11  13
ENDBRANCH  10  11
ENDBRANCH   4  10
BRANCH   1  27
HETATM   27  C   UNL     1      42.794 -14.613   5.682  1.00  0.00     0.038 C 
HETATM   28  N   UNL     1      43.856 -14.922   6.502  1.00  0.00    -0.277 N 
HETATM   29  C   UNL     1      44.531 -14.158   7.523  1.00  0.00     0.179 C 
HETATM   30  N   UNL     1      44.321 -16.168   6.313  1.00  0.00    -0.172 NA
HETATM   31  C   UNL     1      43.671 -16.648   5.251  1.00  0.00     0.089 C 
HETATM   32  C   UNL     1      42.714 -15.701   4.821  1.00  0.00     0.061 C 
BRANCH  31  33
HETATM   33  C   UNL     1      43.934 -17.983   4.714  1.00  0.00    -0.005 A 
HETATM   34  C   UNL     1      43.751 -18.249   3.352  1.00  0.00     0.016 A 
HETATM   35  C   UNL     1      44.048 -19.510   2.827  1.00  0.00     0.037 A 
HETATM   36  C   UNL     1      44.529 -20.528   3.651  1.00  0.00     0.068 A 
HETATM   37  C   UNL     1      44.685 -20.284   5.014  1.00  0.00     0.037 A 
HETATM   38  C   UNL     1      44.389 -19.019   5.542  1.00  0.00     0.016 A 
BRANCH  36  39
HETATM   39  O   UNL     1      44.800 -21.705   3.011  1.00  0.00    -0.356 OA
HETATM   40  C   UNL     1      44.123 -21.938   1.782  1.00  0.00     0.210 C 
ENDBRANCH  36  39
ENDBRANCH  31  33
ENDBRANCH   1  27
TORSDOF 10
ENDMDL
MODEL 9
REMARK VINA RESULT:      -8.0      3.524      8.079
REMARK  10 active torsions:
REMARK  status: ('A' for Active; 'I' for Inactive)
REMARK    1  A    between atoms: C_4  and  C_5 
REMARK    2  A    between atoms: C_8  and  O_9 
REMARK    3  A    between atoms: C_14  and  C_15 
REMARK    4  A    between atoms: C_18  and  C_19 
REMARK    5  A    between atoms: C_19  and  N_20 
REMARK    6  A    between atoms: N_20  and  C_21 
REMARK    7  A    between atoms: C_21  and  N_22 
REMARK    8  A    between atoms: N_22  and  C_23 
REMARK    9  A    between atoms: C_25  and  C_26 
REMARK   10  A    between atoms: C_26  and  O_27 
ROOT
HETATM    1  C   UNL     1      41.405 -14.830   5.774  1.00  0.00     0.067 C 
HETATM    2  C   UNL     1      42.920 -14.880   5.502  1.00  0.00     0.001 C 
HETATM    3  C   UNL     1      43.285 -15.955   4.458  1.00  0.00     0.040 C 
HETATM    4  C   UNL     1      42.921 -17.370   4.934  1.00  0.00     0.206 C 
HETATM    5  N   UNL     1      42.068 -17.204   6.189  1.00  0.00    -0.065 N 
HETATM    6  H   UNL     1      41.706 -18.124   6.480  1.00  0.00     0.280 HD
HETATM    7  C   UNL     1      40.877 -16.270   5.957  1.00  0.00     0.246 C 
HETATM    8  C   UNL     1      43.581 -15.345   6.827  1.00  0.00     0.033 C 
HETATM    9  C   UNL     1      42.942 -16.655   7.313  1.00  0.00     0.236 C 
ENDROOT
BRANCH   4  10
HETATM   10  C   UNL     1      42.224 -18.230   3.855  1.00  0.00     0.155 C 
BRANCH  10  11
HETATM   11  N   UNL     1      41.647 -17.423   2.781  1.00  0.00    -0.365 N 
HETATM   12  H   UNL     1      41.122 -16.598   3.056  1.00  0.00     0.161 HD
BRANCH  11  13
HETATM   13  C   UNL     1      42.128 -17.323   1.503  1.00  0.00     0.172 C 
HETATM   14  S   UNL     1      43.684 -17.699   1.029  1.00  0.00    -0.041 SA
BRANCH  13  15
HETATM   15  N   UNL     1      41.270 -16.853   0.549  1.00  0.00    -0.333 N 
HETATM   16  H   UNL     1      40.385 -17.355   0.541  1.00  0.00     0.168 HD
BRANCH  15  17
HETATM   17  C   UNL     1      41.329 -15.732  -0.308  1.00  0.00     0.035 A 
HETATM   18  C   UNL     1      41.717 -14.456   0.099  1.00  0.00     0.047 A 
HETATM   19  C   UNL     1      41.736 -13.379  -0.803  1.00  0.00     0.041 A 
HETATM   20  C   UNL     1      41.332 -13.580  -2.126  1.00  0.00     0.018 A 
HETATM   21  C   UNL     1      40.909 -14.845  -2.533  1.00  0.00     0.003 A 
HETATM   22  C   UNL     1      40.906 -15.911  -1.629  1.00  0.00     0.029 A 
BRANCH  19  23
HETATM   23  C   UNL     1      42.199 -12.061  -0.291  1.00  0.00     0.293 C 
HETATM   24  O   UNL     1      42.505 -11.877   0.879  1.00  0.00    -0.259 OA
BRANCH  23  25
HETATM   25  O   UNL     1      42.223 -11.140  -1.281  1.00  0.00    -0.323 OA
HETATM   26  C   UNL     1      43.424 -10.368  -1.340  1.00  0.00     0.213 C 
ENDBRANCH  23  25
ENDBRANCH  19  23
ENDBRANCH  15  17
ENDBRANCH  13  15
ENDBRANCH  11  13
ENDBRANCH  10  11
ENDBRANCH   4  10
BRANCH   1  27
HETATM   27  C   UNL     1      40.483 -13.993   4.929  1.00  0.00     0.038 C 
HETATM   28  N   UNL     1      39.781 -12.841   5.203  1.00  0.00    -0.277 N 
HETATM   29  C   UNL     1      39.576 -12.115   6.432  1.00  0.00     0.179 C 
HETATM   30  N   UNL     1      39.206 -12.304   4.114  1.00  0.00    -0.172 NA
HETATM   31  C   UNL     1      39.391 -13.183   3.127  1.00  0.00     0.089 C 
HETATM   32  C   UNL     1      40.177 -14.259   3.599  1.00  0.00     0.061 C 
BRANCH  31  33
HETATM   33  C   UNL     1      38.871 -12.961   1.777  1.00  0.00    -0.005 A 
HETATM   34  C   UNL     1      38.306 -14.017   1.052  1.00  0.00     0.016 A 
HETATM   35  C   UNL     1      37.765 -13.798  -0.218  1.00  0.00     0.037 A 
HETATM   36  C   UNL     1      37.778 -12.524  -0.787  1.00  0.00     0.068 A 
HETATM   37  C   UNL     1      38.366 -11.472  -0.087  1.00  0.00     0.037 A 
HETATM   38  C   UNL     1      38.908 -11.690   1.188  1.00  0.00     0.016 A 
BRANCH  36  39
HETATM   39  O   UNL     1      37.199 -12.441  -2.022  1.00  0.00    -0.356 OA
HETATM   40  C   UNL     1      37.722 -13.291  -3.035  1.00  0.00     0.210 C 
ENDBRANCH  36  39
ENDBRANCH  31  33
ENDBRANCH   1  27
TORSDOF 10
ENDMDL
MODEL 10
REMARK VINA RESULT:      -8.0      1.461      2.240
REMARK  10 active torsions:
REMARK  status: ('A' for Active; 'I' for Inactive)
REMARK    1  A    between atoms: C_4  and  C_5 
REMARK    2  A    between atoms: C_8  and  O_9 
REMARK    3  A    between atoms: C_14  and  C_15 
REMARK    4  A    between atoms: C_18  and  C_19 
REMARK    5  A    between atoms: C_19  and  N_20 
REMARK    6  A    between atoms: N_20  and  C_21 
REMARK    7  A    between atoms: C_21  and  N_22 
REMARK    8  A    between atoms: N_22  and  C_23 
REMARK    9  A    between atoms: C_25  and  C_26 
REMARK   10  A    between atoms: C_26  and  O_27 
ROOT
HETATM    1  C   UNL     1      39.226 -13.127  -0.374  1.00  0.00     0.067 C 
HETATM    2  C   UNL     1      39.838 -11.717  -0.270  1.00  0.00     0.001 C 
HETATM    3  C   UNL     1      39.980 -11.255   1.195  1.00  0.00     0.040 C 
HETATM    4  C   UNL     1      38.619 -11.150   1.902  1.00  0.00     0.206 C 
HETATM    5  N   UNL     1      37.593 -11.802   0.978  1.00  0.00    -0.065 N 
HETATM    6  H   UNL     1      36.685 -11.856   1.460  1.00  0.00     0.280 HD
HETATM    7  C   UNL     1      38.005 -13.219   0.568  1.00  0.00     0.246 C 
HETATM    8  C   UNL     1      38.807 -10.751  -0.913  1.00  0.00     0.033 C 
HETATM    9  C   UNL     1      37.425 -10.934  -0.266  1.00  0.00     0.236 C 
ENDROOT
BRANCH   4  10
HETATM   10  C   UNL     1      38.607 -11.760   3.323  1.00  0.00     0.155 C 
BRANCH  10  11
HETATM   11  N   UNL     1      39.814 -12.533   3.611  1.00  0.00    -0.365 N 
HETATM   12  H   UNL     1      40.662 -12.262   3.121  1.00  0.00     0.161 HD
BRANCH  11  13
HETATM   13  C   UNL     1      40.085 -13.196   4.777  1.00  0.00     0.172 C 
HETATM   14  S   UNL     1      39.471 -12.794   6.277  1.00  0.00    -0.041 SA
BRANCH  13  15
HETATM   15  N   UNL     1      40.947 -14.254   4.707  1.00  0.00    -0.333 N 
HETATM   16  H   UNL     1      40.933 -14.707   3.797  1.00  0.00     0.168 HD
BRANCH  15  17
HETATM   17  C   UNL     1      41.935 -14.730   5.597  1.00  0.00     0.035 A 
HETATM   18  C   UNL     1      43.084 -14.020   5.942  1.00  0.00     0.047 A 
HETATM   19  C   UNL     1      44.037 -14.563   6.821  1.00  0.00     0.041 A 
HETATM   20  C   UNL     1      43.848 -15.848   7.337  1.00  0.00     0.018 A 
HETATM   21  C   UNL     1      42.719 -16.579   6.969  1.00  0.00     0.003 A 
HETATM   22  C   UNL     1      41.771 -16.024   6.103  1.00  0.00     0.029 A 
BRANCH  19  23
HETATM   23  C   UNL     1      45.214 -13.719   7.164  1.00  0.00     0.293 C 
HETATM   24  O   UNL     1      46.088 -13.443   6.354  1.00  0.00    -0.259 OA
BRANCH  23  25
HETATM   25  O   UNL     1      45.166 -13.327   8.458  1.00  0.00    -0.323 OA
HETATM   26  C   UNL     1      45.903 -12.138   8.742  1.00  0.00     0.213 C 
ENDBRANCH  23  25
ENDBRANCH  19  23
ENDBRANCH  15  17
ENDBRANCH  13  15
ENDBRANCH  11  13
ENDBRANCH  10  11
ENDBRANCH   4  10
BRANCH   1  27
HETATM   27  C   UNL     1      40.085 -14.361  -0.309  1.00  0.00     0.038 C 
HETATM   28  N   UNL     1      40.646 -15.140  -1.296  1.00  0.00    -0.277 N 
HETATM   29  C   UNL     1      40.492 -15.126  -2.730  1.00  0.00     0.179 C 
HETATM   30  N   UNL     1      41.499 -16.061  -0.817  1.00  0.00    -0.172 NA
HETATM   31  C   UNL     1      41.394 -16.006   0.513  1.00  0.00     0.089 C 
HETATM   32  C   UNL     1      40.511 -14.961   0.870  1.00  0.00     0.061 C 
BRANCH  31  33
HETATM   33  C   UNL     1      42.155 -16.893   1.392  1.00  0.00    -0.005 A 
HETATM   34  C   UNL     1      43.471 -17.250   1.074  1.00  0.00     0.016 A 
HETATM   35  C   UNL     1      44.217 -18.058   1.937  1.00  0.00     0.037 A 
HETATM   36  C   UNL     1      43.665 -18.526   3.129  1.00  0.00     0.068 A 
HETATM   37  C   UNL     1      42.345 -18.203   3.441  1.00  0.00     0.037 A 
HETATM   38  C   UNL     1      41.595 -17.390   2.578  1.00  0.00     0.016 A 
BRANCH  36  39
HETATM   39  O   UNL     1      44.505 -19.288   3.891  1.00  0.00    -0.356 OA
HETATM   40  C   UNL     1      44.532 -20.683   3.616  1.00  0.00     0.210 C 
ENDBRANCH  36  39
ENDBRANCH  31  33
ENDBRANCH   1  27
TORSDOF 10
ENDMDL
