MODEL 1
REMARK VINA RESULT:      -9.4      0.000      0.000
REMARK  8 active torsions:
REMARK  status: ('A' for Active; 'I' for Inactive)
REMARK    1  A    between atoms: C_4  and  O_5 
REMARK    2  A    between atoms: O_5  and  C_6 
REMARK    3  A    between atoms: C_6  and  C_7 
REMARK       I    between atoms: C_7  and  N_8 
REMARK    4  A    between atoms: N_8  and  C_9 
REMARK    5  A    between atoms: C_9  and  N_10 
REMARK    6  A    between atoms: N_10  and  C_11 
REMARK    7  A    between atoms: C_14  and  N_15 
REMARK    8  A    between atoms: N_18  and  C_19 
ROOT
HETATM    1  C   UNL     1      40.560 -11.891   6.632  1.00  0.00     0.034 A 
HETATM    2  C   UNL     1      39.590 -12.865   6.380  1.00  0.00     0.031 A 
HETATM    3  C   UNL     1      39.927 -14.096   5.797  1.00  0.00     0.026 A 
HETATM    4  C   UNL     1      41.244 -14.398   5.433  1.00  0.00     0.010 A 
HETATM    5  C   UNL     1      42.187 -13.374   5.617  1.00  0.00     0.026 A 
HETATM    6  C   UNL     1      41.859 -12.145   6.215  1.00  0.00     0.031 A 
ENDROOT
BRANCH   4   7
HETATM    7  N   UNL     1      41.638 -15.630   4.876  1.00  0.00    -0.280 NA
HETATM    8  C   UNL     1      41.202 -16.867   5.571  1.00  0.00     0.115 C 
HETATM    9  C   UNL     1      41.555 -18.137   4.760  1.00  0.00     0.138 C 
HETATM   10  N   UNL     1      43.002 -18.173   4.440  1.00  0.00    -0.374 N 
HETATM   11  C   UNL     1      43.424 -16.950   3.709  1.00  0.00     0.138 C 
HETATM   12  C   UNL     1      43.083 -15.677   4.517  1.00  0.00     0.115 C 
BRANCH  10  13
HETATM   13  C   UNL     1      43.574 -19.371   3.968  1.00  0.00     0.115 A 
HETATM   14  C   UNL     1      43.432 -19.853   2.650  1.00  0.00     0.187 A 
HETATM   15  F   UNL     1      42.760 -19.143   1.729  1.00  0.00    -0.200 F 
HETATM   16  C   UNL     1      43.999 -21.062   2.241  1.00  0.00     0.199 A 
HETATM   17  F   UNL     1      43.844 -21.472   0.974  1.00  0.00    -0.199 F 
HETATM   18  C   UNL     1      44.718 -21.835   3.132  1.00  0.00     0.199 A 
HETATM   19  F   UNL     1      45.261 -22.994   2.734  1.00  0.00    -0.199 F 
HETATM   20  C   UNL     1      44.872 -21.408   4.438  1.00  0.00     0.199 A 
HETATM   21  F   UNL     1      45.558 -22.157   5.313  1.00  0.00    -0.199 F 
HETATM   22  C   UNL     1      44.305 -20.202   4.849  1.00  0.00     0.187 A 
HETATM   23  F   UNL     1      44.443 -19.854   6.140  1.00  0.00    -0.200 F 
ENDBRANCH  10  13
ENDBRANCH   4   7
BRANCH   1  24
HETATM   24  N   UNL     1      40.115 -10.719   7.276  1.00  0.00    -0.333 N 
HETATM   25  H   UNL     1      39.822  -9.983   6.633  1.00  0.00     0.168 HD
BRANCH  24  26
HETATM   26  C   UNL     1      39.882 -10.403   8.596  1.00  0.00     0.178 C 
HETATM   27  S   UNL     1      38.589  -9.609   9.293  1.00  0.00    -0.040 SA
BRANCH  26  28
HETATM   28  N   UNL     1      40.908 -10.758   9.459  1.00  0.00    -0.302 N 
HETATM   29  C   UNL     1      42.240 -10.367   9.444  1.00  0.00     0.248 C 
HETATM   30  O   UNL     1      42.751  -9.713   8.536  1.00  0.00    -0.271 OA
HETATM   31  H   UNL     1      40.600 -11.283  10.272  1.00  0.00     0.171 HD
BRANCH  29  32
HETATM   32  C   UNL     1      43.038 -10.851  10.649  1.00  0.00     0.278 C 
BRANCH  32  33
HETATM   33  O   UNL     1      43.663 -12.111  10.438  1.00  0.00    -0.342 OA
BRANCH  33  34
HETATM   34  C   UNL     1      44.680 -12.143   9.520  1.00  0.00     0.069 A 
HETATM   35  C   UNL     1      45.794 -11.301   9.512  1.00  0.00     0.037 A 
HETATM   36  C   UNL     1      46.778 -11.451   8.529  1.00  0.00     0.003 A 
HETATM   37  C   UNL     1      46.655 -12.438   7.555  1.00  0.00     0.000 A 
HETATM   38  C   UNL     1      45.549 -13.286   7.567  1.00  0.00     0.003 A 
HETATM   39  C   UNL     1      44.571 -13.144   8.552  1.00  0.00     0.037 A 
ENDBRANCH  33  34
ENDBRANCH  32  33
ENDBRANCH  29  32
ENDBRANCH  26  28
ENDBRANCH  24  26
ENDBRANCH   1  24
TORSDOF 8
ENDMDL
MODEL 2
REMARK VINA RESULT:      -9.4      2.193      3.012
REMARK  8 active torsions:
REMARK  status: ('A' for Active; 'I' for Inactive)
REMARK    1  A    between atoms: C_4  and  O_5 
REMARK    2  A    between atoms: O_5  and  C_6 
REMARK    3  A    between atoms: C_6  and  C_7 
REMARK       I    between atoms: C_7  and  N_8 
REMARK    4  A    between atoms: N_8  and  C_9 
REMARK    5  A    between atoms: C_9  and  N_10 
REMARK    6  A    between atoms: N_10  and  C_11 
REMARK    7  A    between atoms: C_14  and  N_15 
REMARK    8  A    between atoms: N_18  and  C_19 
ROOT
HETATM    1  C   UNL     1      40.497 -11.554   5.916  1.00  0.00     0.034 A 
HETATM    2  C   UNL     1      41.640 -11.676   5.122  1.00  0.00     0.031 A 
HETATM    3  C   UNL     1      42.066 -12.926   4.645  1.00  0.00     0.026 A 
HETATM    4  C   UNL     1      41.373 -14.102   4.952  1.00  0.00     0.010 A 
HETATM    5  C   UNL     1      40.277 -13.966   5.820  1.00  0.00     0.026 A 
HETATM    6  C   UNL     1      39.836 -12.716   6.287  1.00  0.00     0.031 A 
ENDROOT
BRANCH   4   7
HETATM    7  N   UNL     1      41.742 -15.373   4.471  1.00  0.00    -0.280 NA
HETATM    8  C   UNL     1      41.220 -16.558   5.197  1.00  0.00     0.115 C 
HETATM    9  C   UNL     1      41.559 -17.877   4.461  1.00  0.00     0.138 C 
HETATM   10  N   UNL     1      43.017 -17.986   4.217  1.00  0.00    -0.374 N 
HETATM   11  C   UNL     1      43.526 -16.816   3.456  1.00  0.00     0.138 C 
HETATM   12  C   UNL     1      43.200 -15.494   4.189  1.00  0.00     0.115 C 
BRANCH  10  13
HETATM   13  C   UNL     1      43.561 -19.226   3.828  1.00  0.00     0.115 A 
HETATM   14  C   UNL     1      43.419 -19.786   2.542  1.00  0.00     0.187 A 
HETATM   15  F   UNL     1      42.776 -19.119   1.570  1.00  0.00    -0.200 F 
HETATM   16  C   UNL     1      43.956 -21.033   2.216  1.00  0.00     0.199 A 
HETATM   17  F   UNL     1      43.802 -21.519   0.976  1.00  0.00    -0.199 F 
HETATM   18  C   UNL     1      44.645 -21.768   3.163  1.00  0.00     0.199 A 
HETATM   19  F   UNL     1      45.160 -22.964   2.845  1.00  0.00    -0.199 F 
HETATM   20  C   UNL     1      44.797 -21.263   4.441  1.00  0.00     0.199 A 
HETATM   21  F   UNL     1      45.454 -21.974   5.369  1.00  0.00    -0.199 F 
HETATM   22  C   UNL     1      44.260 -20.019   4.768  1.00  0.00     0.187 A 
HETATM   23  F   UNL     1      44.395 -19.594   6.036  1.00  0.00    -0.200 F 
ENDBRANCH  10  13
ENDBRANCH   4   7
BRANCH   1  24
HETATM   24  N   UNL     1      40.130 -10.244   6.286  1.00  0.00    -0.333 N 
HETATM   25  H   UNL     1      39.266  -9.921   5.849  1.00  0.00     0.168 HD
BRANCH  24  26
HETATM   26  C   UNL     1      40.632  -9.352   7.206  1.00  0.00     0.178 C 
HETATM   27  S   UNL     1      41.301  -7.840   6.976  1.00  0.00    -0.040 SA
BRANCH  26  28
HETATM   28  N   UNL     1      40.623  -9.814   8.515  1.00  0.00    -0.302 N 
HETATM   29  C   UNL     1      39.582 -10.384   9.235  1.00  0.00     0.248 C 
HETATM   30  O   UNL     1      38.422 -10.446   8.828  1.00  0.00    -0.271 OA
HETATM   31  H   UNL     1      41.540  -9.836   8.950  1.00  0.00     0.171 HD
BRANCH  29  32
HETATM   32  C   UNL     1      39.994 -10.905  10.606  1.00  0.00     0.278 C 
BRANCH  32  33
HETATM   33  O   UNL     1      41.402 -11.036  10.756  1.00  0.00    -0.342 OA
BRANCH  33  34
HETATM   34  C   UNL     1      41.941 -10.544  11.917  1.00  0.00     0.069 A 
HETATM   35  C   UNL     1      43.148  -9.850  12.023  1.00  0.00     0.037 A 
HETATM   36  C   UNL     1      43.578  -9.378  13.267  1.00  0.00     0.003 A 
HETATM   37  C   UNL     1      42.807  -9.595  14.407  1.00  0.00     0.000 A 
HETATM   38  C   UNL     1      41.598 -10.279  14.302  1.00  0.00     0.003 A 
HETATM   39  C   UNL     1      41.163 -10.743  13.060  1.00  0.00     0.037 A 
ENDBRANCH  33  34
ENDBRANCH  32  33
ENDBRANCH  29  32
ENDBRANCH  26  28
ENDBRANCH  24  26
ENDBRANCH   1  24
TORSDOF 8
ENDMDL
MODEL 3
REMARK VINA RESULT:      -9.1      2.139      3.533
REMARK  8 active torsions:
REMARK  status: ('A' for Active; 'I' for Inactive)
REMARK    1  A    between atoms: C_4  and  O_5 
REMARK    2  A    between atoms: O_5  and  C_6 
REMARK    3  A    between atoms: C_6  and  C_7 
REMARK       I    between atoms: C_7  and  N_8 
REMARK    4  A    between atoms: N_8  and  C_9 
REMARK    5  A    between atoms: C_9  and  N_10 
REMARK    6  A    between atoms: N_10  and  C_11 
REMARK    7  A    between atoms: C_14  and  N_15 
REMARK    8  A    between atoms: N_18  and  C_19 
ROOT
HETATM    1  C   UNL     1      40.444 -11.700   5.897  1.00  0.00     0.034 A 
HETATM    2  C   UNL     1      39.617 -12.817   6.046  1.00  0.00     0.031 A 
HETATM    3  C   UNL     1      40.122 -14.120   5.917  1.00  0.00     0.026 A 
HETATM    4  C   UNL     1      41.469 -14.358   5.624  1.00  0.00     0.010 A 
HETATM    5  C   UNL     1      42.263 -13.222   5.395  1.00  0.00     0.026 A 
HETATM    6  C   UNL     1      41.767 -11.915   5.539  1.00  0.00     0.031 A 
ENDROOT
BRANCH   4   7
HETATM    7  N   UNL     1      42.030 -15.645   5.518  1.00  0.00    -0.280 NA
HETATM    8  C   UNL     1      43.483 -15.739   5.227  1.00  0.00     0.115 C 
HETATM    9  C   UNL     1      43.992 -17.198   5.311  1.00  0.00     0.138 C 
HETATM   10  N   UNL     1      43.202 -18.085   4.424  1.00  0.00    -0.374 N 
HETATM   11  C   UNL     1      41.752 -18.017   4.746  1.00  0.00     0.138 C 
HETATM   12  C   UNL     1      41.233 -16.563   4.656  1.00  0.00     0.115 C 
BRANCH  10  13
HETATM   13  C   UNL     1      43.683 -19.376   4.134  1.00  0.00     0.115 A 
HETATM   14  C   UNL     1      44.240 -20.249   5.092  1.00  0.00     0.187 A 
HETATM   15  F   UNL     1      44.297 -19.900   6.387  1.00  0.00    -0.200 F 
HETATM   16  C   UNL     1      44.727 -21.511   4.745  1.00  0.00     0.199 A 
HETATM   17  F   UNL     1      45.238 -22.309   5.694  1.00  0.00    -0.199 F 
HETATM   18  C   UNL     1      44.684 -21.943   3.432  1.00  0.00     0.199 A 
HETATM   19  F   UNL     1      45.152 -23.156   3.105  1.00  0.00    -0.199 F 
HETATM   20  C   UNL     1      44.158 -21.114   2.459  1.00  0.00     0.199 A 
HETATM   21  F   UNL     1      44.123 -21.520   1.181  1.00  0.00    -0.199 F 
HETATM   22  C   UNL     1      43.673 -19.853   2.802  1.00  0.00     0.187 A 
HETATM   23  F   UNL     1      43.215 -19.068   1.812  1.00  0.00    -0.200 F 
ENDBRANCH  10  13
ENDBRANCH   4   7
BRANCH   1  24
HETATM   24  N   UNL     1      39.841 -10.444   6.109  1.00  0.00    -0.333 N 
HETATM   25  H   UNL     1      38.974 -10.312   5.586  1.00  0.00     0.168 HD
BRANCH  24  26
HETATM   26  C   UNL     1      40.114  -9.403   6.967  1.00  0.00     0.178 C 
HETATM   27  S   UNL     1      40.235  -7.766   6.659  1.00  0.00    -0.040 SA
BRANCH  26  28
HETATM   28  N   UNL     1      40.379  -9.792   8.272  1.00  0.00    -0.302 N 
HETATM   29  C   UNL     1      39.563 -10.469   9.168  1.00  0.00     0.248 C 
HETATM   30  O   UNL     1      38.377 -10.721   8.955  1.00  0.00    -0.271 OA
HETATM   31  H   UNL     1      41.346  -9.656   8.554  1.00  0.00     0.171 HD
BRANCH  29  32
HETATM   32  C   UNL     1      40.258 -10.851  10.468  1.00  0.00     0.278 C 
BRANCH  32  33
HETATM   33  O   UNL     1      41.531 -10.237  10.625  1.00  0.00    -0.342 OA
BRANCH  33  34
HETATM   34  C   UNL     1      41.967 -10.056  11.911  1.00  0.00     0.069 A 
HETATM   35  C   UNL     1      43.188  -9.489  12.284  1.00  0.00     0.037 A 
HETATM   36  C   UNL     1      43.507  -9.338  13.637  1.00  0.00     0.003 A 
HETATM   37  C   UNL     1      42.611  -9.749  14.621  1.00  0.00     0.000 A 
HETATM   38  C   UNL     1      41.388 -10.305  14.253  1.00  0.00     0.003 A 
HETATM   39  C   UNL     1      41.065 -10.449  12.902  1.00  0.00     0.037 A 
ENDBRANCH  33  34
ENDBRANCH  32  33
ENDBRANCH  29  32
ENDBRANCH  26  28
ENDBRANCH  24  26
ENDBRANCH   1  24
TORSDOF 8
ENDMDL
MODEL 4
REMARK VINA RESULT:      -9.0      1.305      2.790
REMARK  8 active torsions:
REMARK  status: ('A' for Active; 'I' for Inactive)
REMARK    1  A    between atoms: C_4  and  O_5 
REMARK    2  A    between atoms: O_5  and  C_6 
REMARK    3  A    between atoms: C_6  and  C_7 
REMARK       I    between atoms: C_7  and  N_8 
REMARK    4  A    between atoms: N_8  and  C_9 
REMARK    5  A    between atoms: C_9  and  N_10 
REMARK    6  A    between atoms: N_10  and  C_11 
REMARK    7  A    between atoms: C_14  and  N_15 
REMARK    8  A    between atoms: N_18  and  C_19 
ROOT
HETATM    1  C   UNL     1      40.088 -11.731   5.540  1.00  0.00     0.034 A 
HETATM    2  C   UNL     1      41.432 -11.829   5.166  1.00  0.00     0.031 A 
HETATM    3  C   UNL     1      42.081 -13.072   5.103  1.00  0.00     0.026 A 
HETATM    4  C   UNL     1      41.418 -14.262   5.421  1.00  0.00     0.010 A 
HETATM    5  C   UNL     1      40.096 -14.132   5.874  1.00  0.00     0.026 A 
HETATM    6  C   UNL     1      39.434 -12.893   5.924  1.00  0.00     0.031 A 
ENDROOT
BRANCH   4   7
HETATM    7  N   UNL     1      42.017 -15.534   5.341  1.00  0.00    -0.280 NA
HETATM    8  C   UNL     1      43.415 -15.605   4.848  1.00  0.00     0.115 C 
HETATM    9  C   UNL     1      43.998 -17.033   4.976  1.00  0.00     0.138 C 
HETATM   10  N   UNL     1      43.130 -18.021   4.293  1.00  0.00    -0.374 N 
HETATM   11  C   UNL     1      41.740 -17.973   4.819  1.00  0.00     0.138 C 
HETATM   12  C   UNL     1      41.147 -16.552   4.686  1.00  0.00     0.115 C 
BRANCH  10  13
HETATM   13  C   UNL     1      43.623 -19.317   4.044  1.00  0.00     0.115 A 
HETATM   14  C   UNL     1      44.191 -20.153   5.028  1.00  0.00     0.187 A 
HETATM   15  F   UNL     1      44.248 -19.761   6.311  1.00  0.00    -0.200 F 
HETATM   16  C   UNL     1      44.690 -21.420   4.722  1.00  0.00     0.199 A 
HETATM   17  F   UNL     1      45.212 -22.182   5.694  1.00  0.00    -0.199 F 
HETATM   18  C   UNL     1      44.648 -21.895   3.423  1.00  0.00     0.199 A 
HETATM   19  F   UNL     1      45.127 -23.113   3.135  1.00  0.00    -0.199 F 
HETATM   20  C   UNL     1      44.112 -21.104   2.425  1.00  0.00     0.199 A 
HETATM   21  F   UNL     1      44.077 -21.551   1.161  1.00  0.00    -0.199 F 
HETATM   22  C   UNL     1      43.615 -19.837   2.729  1.00  0.00     0.187 A 
HETATM   23  F   UNL     1      43.147 -19.089   1.714  1.00  0.00    -0.200 F 
ENDBRANCH  10  13
ENDBRANCH   4   7
BRANCH   1  24
HETATM   24  N   UNL     1      39.525 -10.440   5.509  1.00  0.00    -0.333 N 
HETATM   25  H   UNL     1      39.047 -10.222   4.633  1.00  0.00     0.168 HD
BRANCH  24  26
HETATM   26  C   UNL     1      39.380  -9.454   6.458  1.00  0.00     0.178 C 
HETATM   27  S   UNL     1      38.599  -7.982   6.363  1.00  0.00    -0.040 SA
BRANCH  26  28
HETATM   28  N   UNL     1      40.033  -9.714   7.655  1.00  0.00    -0.302 N 
HETATM   29  C   UNL     1      39.523 -10.235   8.837  1.00  0.00     0.248 C 
HETATM   30  O   UNL     1      38.324 -10.433   9.035  1.00  0.00    -0.271 OA
HETATM   31  H   UNL     1      41.042  -9.610   7.605  1.00  0.00     0.171 HD
BRANCH  29  32
HETATM   32  C   UNL     1      40.582 -10.516   9.895  1.00  0.00     0.278 C 
BRANCH  32  33
HETATM   33  O   UNL     1      41.789  -9.792   9.687  1.00  0.00    -0.342 OA
BRANCH  33  34
HETATM   34  C   UNL     1      42.947 -10.524   9.689  1.00  0.00     0.069 A 
HETATM   35  C   UNL     1      43.337 -11.433   8.703  1.00  0.00     0.037 A 
HETATM   36  C   UNL     1      44.560 -12.103   8.810  1.00  0.00     0.003 A 
HETATM   37  C   UNL     1      45.397 -11.868   9.898  1.00  0.00     0.000 A 
HETATM   38  C   UNL     1      45.016 -10.954  10.878  1.00  0.00     0.003 A 
HETATM   39  C   UNL     1      43.799 -10.278  10.768  1.00  0.00     0.037 A 
ENDBRANCH  33  34
ENDBRANCH  32  33
ENDBRANCH  29  32
ENDBRANCH  26  28
ENDBRANCH  24  26
ENDBRANCH   1  24
TORSDOF 8
ENDMDL
MODEL 5
REMARK VINA RESULT:      -8.7      2.084      3.187
REMARK  8 active torsions:
REMARK  status: ('A' for Active; 'I' for Inactive)
REMARK    1  A    between atoms: C_4  and  O_5 
REMARK    2  A    between atoms: O_5  and  C_6 
REMARK    3  A    between atoms: C_6  and  C_7 
REMARK       I    between atoms: C_7  and  N_8 
REMARK    4  A    between atoms: N_8  and  C_9 
REMARK    5  A    between atoms: C_9  and  N_10 
REMARK    6  A    between atoms: N_10  and  C_11 
REMARK    7  A    between atoms: C_14  and  N_15 
REMARK    8  A    between atoms: N_18  and  C_19 
ROOT
HETATM    1  C   UNL     1      40.381  -9.907   8.745  1.00  0.00     0.034 A 
HETATM    2  C   UNL     1      39.435 -10.756   8.163  1.00  0.00     0.031 A 
HETATM    3  C   UNL     1      39.813 -11.748   7.245  1.00  0.00     0.026 A 
HETATM    4  C   UNL     1      41.147 -11.924   6.865  1.00  0.00     0.010 A 
HETATM    5  C   UNL     1      42.069 -11.007   7.396  1.00  0.00     0.026 A 
HETATM    6  C   UNL     1      41.699 -10.022   8.328  1.00  0.00     0.031 A 
ENDROOT
BRANCH   4   7
HETATM    7  N   UNL     1      41.580 -12.926   5.975  1.00  0.00    -0.280 NA
HETATM    8  C   UNL     1      40.641 -14.039   5.686  1.00  0.00     0.115 C 
HETATM    9  C   UNL     1      41.176 -14.966   4.568  1.00  0.00     0.138 C 
HETATM   10  N   UNL     1      42.530 -15.468   4.900  1.00  0.00    -0.374 N 
HETATM   11  C   UNL     1      43.475 -14.348   5.149  1.00  0.00     0.138 C 
HETATM   12  C   UNL     1      42.953 -13.422   6.271  1.00  0.00     0.115 C 
BRANCH  10  13
HETATM   13  C   UNL     1      43.067 -16.543   4.165  1.00  0.00     0.115 A 
HETATM   14  C   UNL     1      43.390 -16.482   2.793  1.00  0.00     0.187 A 
HETATM   15  F   UNL     1      43.241 -15.340   2.103  1.00  0.00    -0.200 F 
HETATM   16  C   UNL     1      43.895 -17.587   2.104  1.00  0.00     0.199 A 
HETATM   17  F   UNL     1      44.196 -17.477   0.802  1.00  0.00    -0.199 F 
HETATM   18  C   UNL     1      44.090 -18.791   2.757  1.00  0.00     0.199 A 
HETATM   19  F   UNL     1      44.577 -19.847   2.091  1.00  0.00    -0.199 F 
HETATM   20  C   UNL     1      43.775 -18.898   4.098  1.00  0.00     0.199 A 
HETATM   21  F   UNL     1      43.949 -20.065   4.736  1.00  0.00    -0.199 F 
HETATM   22  C   UNL     1      43.268 -17.797   4.787  1.00  0.00     0.187 A 
HETATM   23  F   UNL     1      42.934 -17.966   6.078  1.00  0.00    -0.200 F 
ENDBRANCH  10  13
ENDBRANCH   4   7
BRANCH   1  24
HETATM   24  N   UNL     1      39.895  -8.990   9.698  1.00  0.00    -0.333 N 
HETATM   25  H   UNL     1      39.865  -8.027   9.362  1.00  0.00     0.168 HD
BRANCH  24  26
HETATM   26  C   UNL     1      39.339  -9.140  10.948  1.00  0.00     0.178 C 
HETATM   27  S   UNL     1      37.763  -8.914  11.453  1.00  0.00    -0.040 SA
BRANCH  26  28
HETATM   28  N   UNL     1      40.247  -9.481  11.941  1.00  0.00    -0.302 N 
HETATM   29  C   UNL     1      40.503 -10.722  12.506  1.00  0.00     0.248 C 
HETATM   30  O   UNL     1      39.832 -11.728  12.279  1.00  0.00    -0.271 OA
HETATM   31  H   UNL     1      40.881  -8.729  12.194  1.00  0.00     0.171 HD
BRANCH  29  32
HETATM   32  C   UNL     1      41.682 -10.730  13.471  1.00  0.00     0.278 C 
BRANCH  32  33
HETATM   33  O   UNL     1      42.836 -10.078  12.951  1.00  0.00    -0.342 OA
BRANCH  33  34
HETATM   34  C   UNL     1      43.579 -10.786  12.044  1.00  0.00     0.069 A 
HETATM   35  C   UNL     1      43.698 -12.176  11.997  1.00  0.00     0.037 A 
HETATM   36  C   UNL     1      44.473 -12.782  11.003  1.00  0.00     0.003 A 
HETATM   37  C   UNL     1      45.131 -12.003  10.053  1.00  0.00     0.000 A 
HETATM   38  C   UNL     1      45.007 -10.616  10.092  1.00  0.00     0.003 A 
HETATM   39  C   UNL     1      44.226 -10.011  11.078  1.00  0.00     0.037 A 
ENDBRANCH  33  34
ENDBRANCH  32  33
ENDBRANCH  29  32
ENDBRANCH  26  28
ENDBRANCH  24  26
ENDBRANCH   1  24
TORSDOF 8
ENDMDL
MODEL 6
REMARK VINA RESULT:      -8.7      2.274      3.247
REMARK  8 active torsions:
REMARK  status: ('A' for Active; 'I' for Inactive)
REMARK    1  A    between atoms: C_4  and  O_5 
REMARK    2  A    between atoms: O_5  and  C_6 
REMARK    3  A    between atoms: C_6  and  C_7 
REMARK       I    between atoms: C_7  and  N_8 
REMARK    4  A    between atoms: N_8  and  C_9 
REMARK    5  A    between atoms: C_9  and  N_10 
REMARK    6  A    between atoms: N_10  and  C_11 
REMARK    7  A    between atoms: C_14  and  N_15 
REMARK    8  A    between atoms: N_18  and  C_19 
ROOT
HETATM    1  C   UNL     1      39.900 -11.011   5.212  1.00  0.00     0.034 A 
HETATM    2  C   UNL     1      39.099 -12.146   5.363  1.00  0.00     0.031 A 
HETATM    3  C   UNL     1      39.662 -13.428   5.465  1.00  0.00     0.026 A 
HETATM    4  C   UNL     1      41.046 -13.626   5.409  1.00  0.00     0.010 A 
HETATM    5  C   UNL     1      41.826 -12.483   5.172  1.00  0.00     0.026 A 
HETATM    6  C   UNL     1      41.270 -11.195   5.086  1.00  0.00     0.031 A 
ENDROOT
BRANCH   4   7
HETATM    7  N   UNL     1      41.660 -14.887   5.539  1.00  0.00    -0.280 NA
HETATM    8  C   UNL     1      43.144 -14.932   5.521  1.00  0.00     0.115 C 
HETATM    9  C   UNL     1      43.679 -16.348   5.846  1.00  0.00     0.138 C 
HETATM   10  N   UNL     1      43.092 -17.357   4.932  1.00  0.00    -0.374 N 
HETATM   11  C   UNL     1      41.607 -17.334   4.984  1.00  0.00     0.138 C 
HETATM   12  C   UNL     1      41.063 -15.925   4.652  1.00  0.00     0.115 C 
BRANCH  10  13
HETATM   13  C   UNL     1      43.661 -18.644   4.869  1.00  0.00     0.115 A 
HETATM   14  C   UNL     1      44.213 -19.211   3.701  1.00  0.00     0.187 A 
HETATM   15  F   UNL     1      44.270 -18.509   2.559  1.00  0.00    -0.200 F 
HETATM   16  C   UNL     1      44.741 -20.504   3.688  1.00  0.00     0.199 A 
HETATM   17  F   UNL     1      45.264 -20.995   2.554  1.00  0.00    -0.199 F 
HETATM   18  C   UNL     1      44.731 -21.277   4.834  1.00  0.00     0.199 A 
HETATM   19  F   UNL     1      45.241 -22.517   4.815  1.00  0.00    -0.199 F 
HETATM   20  C   UNL     1      44.189 -20.765   5.998  1.00  0.00     0.199 A 
HETATM   21  F   UNL     1      44.164 -21.513   7.111  1.00  0.00    -0.199 F 
HETATM   22  C   UNL     1      43.659 -19.476   6.013  1.00  0.00     0.187 A 
HETATM   23  F   UNL     1      43.101 -19.043   7.157  1.00  0.00    -0.200 F 
ENDBRANCH  10  13
ENDBRANCH   4   7
BRANCH   1  24
HETATM   24  N   UNL     1      39.229  -9.773   5.183  1.00  0.00    -0.333 N 
HETATM   25  H   UNL     1      38.819  -9.549   4.275  1.00  0.00     0.168 HD
BRANCH  24  26
HETATM   26  C   UNL     1      38.908  -8.854   6.157  1.00  0.00     0.178 C 
HETATM   27  S   UNL     1      37.713  -7.687   6.175  1.00  0.00    -0.040 SA
BRANCH  26  28
HETATM   28  N   UNL     1      39.745  -8.878   7.263  1.00  0.00    -0.302 N 
HETATM   29  C   UNL     1      39.595  -9.566   8.460  1.00  0.00     0.248 C 
HETATM   30  O   UNL     1      38.579 -10.186   8.770  1.00  0.00    -0.271 OA
HETATM   31  H   UNL     1      40.637  -8.416   7.115  1.00  0.00     0.171 HD
BRANCH  29  32
HETATM   32  C   UNL     1      40.801  -9.461   9.386  1.00  0.00     0.278 C 
BRANCH  32  33
HETATM   33  O   UNL     1      41.050 -10.654  10.119  1.00  0.00    -0.342 OA
BRANCH  33  34
HETATM   34  C   UNL     1      41.522 -10.499  11.396  1.00  0.00     0.069 A 
HETATM   35  C   UNL     1      40.801 -10.746  12.566  1.00  0.00     0.037 A 
HETATM   36  C   UNL     1      41.407 -10.571  13.814  1.00  0.00     0.003 A 
HETATM   37  C   UNL     1      42.732 -10.149  13.899  1.00  0.00     0.000 A 
HETATM   38  C   UNL     1      43.457  -9.911  12.734  1.00  0.00     0.003 A 
HETATM   39  C   UNL     1      42.856 -10.094  11.488  1.00  0.00     0.037 A 
ENDBRANCH  33  34
ENDBRANCH  32  33
ENDBRANCH  29  32
ENDBRANCH  26  28
ENDBRANCH  24  26
ENDBRANCH   1  24
TORSDOF 8
ENDMDL
MODEL 7
REMARK VINA RESULT:      -8.3      6.361      9.607
REMARK  8 active torsions:
REMARK  status: ('A' for Active; 'I' for Inactive)
REMARK    1  A    between atoms: C_4  and  O_5 
REMARK    2  A    between atoms: O_5  and  C_6 
REMARK    3  A    between atoms: C_6  and  C_7 
REMARK       I    between atoms: C_7  and  N_8 
REMARK    4  A    between atoms: N_8  and  C_9 
REMARK    5  A    between atoms: C_9  and  N_10 
REMARK    6  A    between atoms: N_10  and  C_11 
REMARK    7  A    between atoms: C_14  and  N_15 
REMARK    8  A    between atoms: N_18  and  C_19 
ROOT
HETATM    1  C   UNL     1      42.398 -17.153   5.393  1.00  0.00     0.034 A 
HETATM    2  C   UNL     1      41.355 -17.405   4.498  1.00  0.00     0.031 A 
HETATM    3  C   UNL     1      41.236 -16.690   3.296  1.00  0.00     0.026 A 
HETATM    4  C   UNL     1      42.149 -15.688   2.947  1.00  0.00     0.010 A 
HETATM    5  C   UNL     1      43.139 -15.394   3.898  1.00  0.00     0.026 A 
HETATM    6  C   UNL     1      43.273 -16.118   5.096  1.00  0.00     0.031 A 
ENDROOT
BRANCH   4   7
HETATM    7  N   UNL     1      42.092 -14.967   1.739  1.00  0.00    -0.280 NA
HETATM    8  C   UNL     1      41.884 -13.500   1.826  1.00  0.00     0.115 C 
HETATM    9  C   UNL     1      42.016 -12.818   0.442  1.00  0.00     0.138 C 
HETATM   10  N   UNL     1      41.099 -13.441  -0.543  1.00  0.00    -0.374 N 
HETATM   11  C   UNL     1      41.340 -14.904  -0.654  1.00  0.00     0.138 C 
HETATM   12  C   UNL     1      41.201 -15.594   0.722  1.00  0.00     0.115 C 
BRANCH  10  13
HETATM   13  C   UNL     1      40.855 -12.787  -1.767  1.00  0.00     0.115 A 
HETATM   14  C   UNL     1      39.571 -12.439  -2.237  1.00  0.00     0.187 A 
HETATM   15  F   UNL     1      38.480 -12.677  -1.493  1.00  0.00    -0.200 F 
HETATM   16  C   UNL     1      39.383 -11.814  -3.472  1.00  0.00     0.199 A 
HETATM   17  F   UNL     1      38.143 -11.494  -3.871  1.00  0.00    -0.199 F 
HETATM   18  C   UNL     1      40.464 -11.523  -4.283  1.00  0.00     0.199 A 
HETATM   19  F   UNL     1      40.278 -10.923  -5.466  1.00  0.00    -0.199 F 
HETATM   20  C   UNL     1      41.739 -11.859  -3.866  1.00  0.00     0.199 A 
HETATM   21  F   UNL     1      42.793 -11.592  -4.651  1.00  0.00    -0.199 F 
HETATM   22  C   UNL     1      41.929 -12.485  -2.635  1.00  0.00     0.187 A 
HETATM   23  F   UNL     1      43.183 -12.833  -2.298  1.00  0.00    -0.200 F 
ENDBRANCH  10  13
ENDBRANCH   4   7
BRANCH   1  24
HETATM   24  N   UNL     1      42.451 -17.974   6.537  1.00  0.00    -0.333 N 
HETATM   25  H   UNL     1      41.535 -18.286   6.861  1.00  0.00     0.168 HD
BRANCH  24  26
HETATM   26  C   UNL     1      43.491 -18.540   7.240  1.00  0.00     0.178 C 
HETATM   27  S   UNL     1      44.140 -18.116   8.719  1.00  0.00    -0.040 SA
BRANCH  26  28
HETATM   28  N   UNL     1      44.119 -19.590   6.585  1.00  0.00    -0.302 N 
HETATM   29  C   UNL     1      43.957 -20.957   6.764  1.00  0.00     0.248 C 
HETATM   30  O   UNL     1      43.287 -21.454   7.668  1.00  0.00    -0.271 OA
HETATM   31  H   UNL     1      44.685 -19.301   5.792  1.00  0.00     0.171 HD
BRANCH  29  32
HETATM   32  C   UNL     1      44.717 -21.806   5.751  1.00  0.00     0.278 C 
BRANCH  32  33
HETATM   33  O   UNL     1      45.378 -21.034   4.757  1.00  0.00    -0.342 OA
BRANCH  33  34
HETATM   34  C   UNL     1      44.666 -20.768   3.617  1.00  0.00     0.069 A 
HETATM   35  C   UNL     1      44.249 -19.504   3.194  1.00  0.00     0.037 A 
HETATM   36  C   UNL     1      43.545 -19.362   1.994  1.00  0.00     0.003 A 
HETATM   37  C   UNL     1      43.257 -20.478   1.212  1.00  0.00     0.000 A 
HETATM   38  C   UNL     1      43.680 -21.739   1.626  1.00  0.00     0.003 A 
HETATM   39  C   UNL     1      44.390 -21.881   2.819  1.00  0.00     0.037 A 
ENDBRANCH  33  34
ENDBRANCH  32  33
ENDBRANCH  29  32
ENDBRANCH  26  28
ENDBRANCH  24  26
ENDBRANCH   1  24
TORSDOF 8
ENDMDL
MODEL 8
REMARK VINA RESULT:      -8.2      6.055      9.312
REMARK  8 active torsions:
REMARK  status: ('A' for Active; 'I' for Inactive)
REMARK    1  A    between atoms: C_4  and  O_5 
REMARK    2  A    between atoms: O_5  and  C_6 
REMARK    3  A    between atoms: C_6  and  C_7 
REMARK       I    between atoms: C_7  and  N_8 
REMARK    4  A    between atoms: N_8  and  C_9 
REMARK    5  A    between atoms: C_9  and  N_10 
REMARK    6  A    between atoms: N_10  and  C_11 
REMARK    7  A    between atoms: C_14  and  N_15 
REMARK    8  A    between atoms: N_18  and  C_19 
ROOT
HETATM    1  C   UNL     1      43.828 -18.833   3.085  1.00  0.00     0.034 A 
HETATM    2  C   UNL     1      42.933 -19.353   2.146  1.00  0.00     0.031 A 
HETATM    3  C   UNL     1      42.036 -18.522   1.456  1.00  0.00     0.026 A 
HETATM    4  C   UNL     1      41.991 -17.142   1.687  1.00  0.00     0.010 A 
HETATM    5  C   UNL     1      42.839 -16.654   2.694  1.00  0.00     0.026 A 
HETATM    6  C   UNL     1      43.751 -17.479   3.376  1.00  0.00     0.031 A 
ENDROOT
BRANCH   4   7
HETATM    7  N   UNL     1      41.133 -16.263   0.997  1.00  0.00    -0.280 NA
HETATM    8  C   UNL     1      41.728 -15.426  -0.075  1.00  0.00     0.115 C 
HETATM    9  C   UNL     1      40.646 -14.643  -0.858  1.00  0.00     0.138 C 
HETATM   10  N   UNL     1      39.809 -13.836   0.062  1.00  0.00    -0.374 N 
HETATM   11  C   UNL     1      39.185 -14.686   1.110  1.00  0.00     0.138 C 
HETATM   12  C   UNL     1      40.259 -15.465   1.903  1.00  0.00     0.115 C 
BRANCH  10  13
HETATM   13  C   UNL     1      38.968 -12.837  -0.467  1.00  0.00     0.115 A 
HETATM   14  C   UNL     1      38.024 -13.056  -1.492  1.00  0.00     0.187 A 
HETATM   15  F   UNL     1      37.836 -14.284  -2.001  1.00  0.00    -0.200 F 
HETATM   16  C   UNL     1      37.233 -12.024  -1.999  1.00  0.00     0.199 A 
HETATM   17  F   UNL     1      36.342 -12.284  -2.967  1.00  0.00    -0.199 F 
HETATM   18  C   UNL     1      37.361 -10.737  -1.510  1.00  0.00     0.199 A 
HETATM   19  F   UNL     1      36.599  -9.750  -2.000  1.00  0.00    -0.199 F 
HETATM   20  C   UNL     1      38.284 -10.475  -0.514  1.00  0.00     0.199 A 
HETATM   21  F   UNL     1      38.423  -9.228  -0.041  1.00  0.00    -0.199 F 
HETATM   22  C   UNL     1      39.076 -11.504  -0.007  1.00  0.00     0.187 A 
HETATM   23  F   UNL     1      39.989 -11.188   0.926  1.00  0.00    -0.200 F 
ENDBRANCH  10  13
ENDBRANCH   4   7
BRANCH   1  24
HETATM   24  N   UNL     1      44.722 -19.752   3.670  1.00  0.00    -0.333 N 
HETATM   25  H   UNL     1      45.672 -19.690   3.302  1.00  0.00     0.168 HD
BRANCH  24  26
HETATM   26  C   UNL     1      44.609 -20.636   4.719  1.00  0.00     0.178 C 
HETATM   27  S   UNL     1      44.905 -22.278   4.771  1.00  0.00    -0.040 SA
BRANCH  26  28
HETATM   28  N   UNL     1      44.126 -20.073   5.892  1.00  0.00    -0.302 N 
HETATM   29  C   UNL     1      44.565 -18.942   6.567  1.00  0.00     0.248 C 
HETATM   30  O   UNL     1      45.583 -18.319   6.267  1.00  0.00    -0.271 OA
HETATM   31  H   UNL     1      43.262 -20.491   6.224  1.00  0.00     0.171 HD
BRANCH  29  32
HETATM   32  C   UNL     1      43.686 -18.549   7.748  1.00  0.00     0.278 C 
BRANCH  32  33
HETATM   33  O   UNL     1      43.661 -17.146   7.985  1.00  0.00    -0.342 OA
BRANCH  33  34
HETATM   34  C   UNL     1      42.925 -16.392   7.109  1.00  0.00     0.069 A 
HETATM   35  C   UNL     1      41.625 -16.674   6.686  1.00  0.00     0.037 A 
HETATM   36  C   UNL     1      40.971 -15.809   5.803  1.00  0.00     0.003 A 
HETATM   37  C   UNL     1      41.611 -14.662   5.340  1.00  0.00     0.000 A 
HETATM   38  C   UNL     1      42.904 -14.372   5.768  1.00  0.00     0.003 A 
HETATM   39  C   UNL     1      43.554 -15.230   6.657  1.00  0.00     0.037 A 
ENDBRANCH  33  34
ENDBRANCH  32  33
ENDBRANCH  29  32
ENDBRANCH  26  28
ENDBRANCH  24  26
ENDBRANCH   1  24
TORSDOF 8
ENDMDL
MODEL 9
REMARK VINA RESULT:      -8.2      5.906      7.933
REMARK  8 active torsions:
REMARK  status: ('A' for Active; 'I' for Inactive)
REMARK    1  A    between atoms: C_4  and  O_5 
REMARK    2  A    between atoms: O_5  and  C_6 
REMARK    3  A    between atoms: C_6  and  C_7 
REMARK       I    between atoms: C_7  and  N_8 
REMARK    4  A    between atoms: N_8  and  C_9 
REMARK    5  A    between atoms: C_9  and  N_10 
REMARK    6  A    between atoms: N_10  and  C_11 
REMARK    7  A    between atoms: C_14  and  N_15 
REMARK    8  A    between atoms: N_18  and  C_19 
ROOT
HETATM    1  C   UNL     1      37.838 -12.197   0.859  1.00  0.00     0.034 A 
HETATM    2  C   UNL     1      38.875 -11.790   1.703  1.00  0.00     0.031 A 
HETATM    3  C   UNL     1      39.712 -12.725   2.332  1.00  0.00     0.026 A 
HETATM    4  C   UNL     1      39.538 -14.102   2.151  1.00  0.00     0.010 A 
HETATM    5  C   UNL     1      38.439 -14.490   1.368  1.00  0.00     0.026 A 
HETATM    6  C   UNL     1      37.608 -13.558   0.722  1.00  0.00     0.031 A 
ENDROOT
BRANCH   4   7
HETATM    7  N   UNL     1      40.371 -15.077   2.732  1.00  0.00    -0.280 NA
HETATM    8  C   UNL     1      41.823 -14.778   2.816  1.00  0.00     0.115 C 
HETATM    9  C   UNL     1      42.585 -15.853   3.628  1.00  0.00     0.138 C 
HETATM   10  N   UNL     1      42.339 -17.206   3.074  1.00  0.00    -0.374 N 
HETATM   11  C   UNL     1      40.885 -17.515   3.031  1.00  0.00     0.138 C 
HETATM   12  C   UNL     1      40.117 -16.451   2.213  1.00  0.00     0.115 C 
BRANCH  10  13
HETATM   13  C   UNL     1      43.159 -18.277   3.480  1.00  0.00     0.115 A 
HETATM   14  C   UNL     1      43.790 -19.174   2.593  1.00  0.00     0.187 A 
HETATM   15  F   UNL     1      43.677 -19.018   1.265  1.00  0.00    -0.200 F 
HETATM   16  C   UNL     1      44.573 -20.236   3.050  1.00  0.00     0.199 A 
HETATM   17  F   UNL     1      45.160 -21.056   2.167  1.00  0.00    -0.199 F 
HETATM   18  C   UNL     1      44.746 -20.446   4.406  1.00  0.00     0.199 A 
HETATM   19  F   UNL     1      45.500 -21.466   4.839  1.00  0.00    -0.199 F 
HETATM   20  C   UNL     1      44.135 -19.598   5.311  1.00  0.00     0.199 A 
HETATM   21  F   UNL     1      44.289 -19.801   6.628  1.00  0.00    -0.199 F 
HETATM   22  C   UNL     1      43.352 -18.539   4.857  1.00  0.00     0.187 A 
HETATM   23  F   UNL     1      42.742 -17.773   5.777  1.00  0.00    -0.200 F 
ENDBRANCH  10  13
ENDBRANCH   4   7
BRANCH   1  24
HETATM   24  N   UNL     1      37.102 -11.169   0.235  1.00  0.00    -0.333 N 
HETATM   25  H   UNL     1      37.178 -10.266   0.705  1.00  0.00     0.168 HD
BRANCH  24  26
HETATM   26  C   UNL     1      36.397 -11.102  -0.945  1.00  0.00     0.178 C 
HETATM   27  S   UNL     1      34.797 -10.708  -1.215  1.00  0.00    -0.040 SA
BRANCH  26  28
HETATM   28  N   UNL     1      37.126 -11.470  -2.068  1.00  0.00    -0.302 N 
HETATM   29  C   UNL     1      38.330 -10.963  -2.536  1.00  0.00     0.248 C 
HETATM   30  O   UNL     1      38.886  -9.973  -2.061  1.00  0.00    -0.271 OA
HETATM   31  H   UNL     1      36.773 -12.301  -2.533  1.00  0.00     0.171 HD
BRANCH  29  32
HETATM   32  C   UNL     1      38.898 -11.724  -3.727  1.00  0.00     0.278 C 
BRANCH  32  33
HETATM   33  O   UNL     1      40.261 -12.095  -3.556  1.00  0.00    -0.342 OA
BRANCH  33  34
HETATM   34  C   UNL     1      40.493 -13.304  -2.953  1.00  0.00     0.069 A 
HETATM   35  C   UNL     1      40.248 -14.556  -3.521  1.00  0.00     0.037 A 
HETATM   36  C   UNL     1      40.551 -15.721  -2.809  1.00  0.00     0.003 A 
HETATM   37  C   UNL     1      41.099 -15.641  -1.531  1.00  0.00     0.000 A 
HETATM   38  C   UNL     1      41.354 -14.393  -0.965  1.00  0.00     0.003 A 
HETATM   39  C   UNL     1      41.060 -13.230  -1.679  1.00  0.00     0.037 A 
ENDBRANCH  33  34
ENDBRANCH  32  33
ENDBRANCH  29  32
ENDBRANCH  26  28
ENDBRANCH  24  26
ENDBRANCH   1  24
TORSDOF 8
ENDMDL
MODEL 10
REMARK VINA RESULT:      -8.1      6.088     10.509
REMARK  8 active torsions:
REMARK  status: ('A' for Active; 'I' for Inactive)
REMARK    1  A    between atoms: C_4  and  O_5 
REMARK    2  A    between atoms: O_5  and  C_6 
REMARK    3  A    between atoms: C_6  and  C_7 
REMARK       I    between atoms: C_7  and  N_8 
REMARK    4  A    between atoms: N_8  and  C_9 
REMARK    5  A    between atoms: C_9  and  N_10 
REMARK    6  A    between atoms: N_10  and  C_11 
REMARK    7  A    between atoms: C_14  and  N_15 
REMARK    8  A    between atoms: N_18  and  C_19 
ROOT
HETATM    1  C   UNL     1      39.613 -13.811   2.525  1.00  0.00     0.034 A 
HETATM    2  C   UNL     1      39.168 -12.487   2.582  1.00  0.00     0.031 A 
HETATM    3  C   UNL     1      39.120 -11.786   3.797  1.00  0.00     0.026 A 
HETATM    4  C   UNL     1      39.505 -12.383   5.002  1.00  0.00     0.010 A 
HETATM    5  C   UNL     1      39.868 -13.738   4.934  1.00  0.00     0.026 A 
HETATM    6  C   UNL     1      39.933 -14.441   3.718  1.00  0.00     0.031 A 
ENDROOT
BRANCH   4   7
HETATM    7  N   UNL     1      39.506 -11.713   6.240  1.00  0.00    -0.280 NA
HETATM    8  C   UNL     1      40.615 -10.761   6.504  1.00  0.00     0.115 C 
HETATM    9  C   UNL     1      40.396  -9.974   7.818  1.00  0.00     0.138 C 
HETATM   10  N   UNL     1      40.189 -10.897   8.959  1.00  0.00    -0.374 N 
HETATM   11  C   UNL     1      39.052 -11.820   8.706  1.00  0.00     0.138 C 
HETATM   12  C   UNL     1      39.267 -12.618   7.400  1.00  0.00     0.115 C 
BRANCH  10  13
HETATM   13  C   UNL     1      40.263 -10.396  10.274  1.00  0.00     0.115 A 
HETATM   14  C   UNL     1      39.280  -9.578  10.867  1.00  0.00     0.187 A 
HETATM   15  F   UNL     1      38.157  -9.262  10.203  1.00  0.00    -0.200 F 
HETATM   16  C   UNL     1      39.416  -9.086  12.167  1.00  0.00     0.199 A 
HETATM   17  F   UNL     1      38.449  -8.319  12.691  1.00  0.00    -0.199 F 
HETATM   18  C   UNL     1      40.539  -9.386  12.916  1.00  0.00     0.199 A 
HETATM   19  F   UNL     1      40.664  -8.913  14.164  1.00  0.00    -0.199 F 
HETATM   20  C   UNL     1      41.533 -10.175  12.369  1.00  0.00     0.199 A 
HETATM   21  F   UNL     1      42.631 -10.461  13.084  1.00  0.00    -0.199 F 
HETATM   22  C   UNL     1      41.400 -10.665  11.070  1.00  0.00     0.187 A 
HETATM   23  F   UNL     1      42.416 -11.388  10.568  1.00  0.00    -0.200 F 
ENDBRANCH  10  13
ENDBRANCH   4   7
BRANCH   1  24
HETATM   24  N   UNL     1      39.676 -14.393   1.243  1.00  0.00    -0.333 N 
HETATM   25  H   UNL     1      38.774 -14.723   0.897  1.00  0.00     0.168 HD
BRANCH  24  26
HETATM   26  C   UNL     1      40.681 -14.502   0.308  1.00  0.00     0.178 C 
HETATM   27  S   UNL     1      40.775 -13.880  -1.239  1.00  0.00    -0.040 SA
BRANCH  26  28
HETATM   28  N   UNL     1      41.749 -15.293   0.706  1.00  0.00    -0.302 N 
HETATM   29  C   UNL     1      41.762 -16.638   1.051  1.00  0.00     0.248 C 
HETATM   30  O   UNL     1      40.747 -17.321   1.179  1.00  0.00    -0.271 OA
HETATM   31  H   UNL     1      42.654 -14.840   0.617  1.00  0.00     0.171 HD
BRANCH  29  32
HETATM   32  C   UNL     1      43.158 -17.199   1.293  1.00  0.00     0.278 C 
BRANCH  32  33
HETATM   33  O   UNL     1      43.512 -17.245   2.670  1.00  0.00    -0.342 OA
BRANCH  33  34
HETATM   34  C   UNL     1      43.937 -18.456   3.151  1.00  0.00     0.069 A 
HETATM   35  C   UNL     1      44.307 -18.723   4.471  1.00  0.00     0.037 A 
HETATM   36  C   UNL     1      44.703 -20.012   4.842  1.00  0.00     0.003 A 
HETATM   37  C   UNL     1      44.729 -21.037   3.899  1.00  0.00     0.000 A 
HETATM   38  C   UNL     1      44.351 -20.777   2.584  1.00  0.00     0.003 A 
HETATM   39  C   UNL     1      43.947 -19.493   2.215  1.00  0.00     0.037 A 
ENDBRANCH  33  34
ENDBRANCH  32  33
ENDBRANCH  29  32
ENDBRANCH  26  28
ENDBRANCH  24  26
ENDBRANCH   1  24
TORSDOF 8
ENDMDL
