MODEL 1
REMARK VINA RESULT:      -8.6      0.000      0.000
REMARK  2 active torsions:
REMARK  status: ('A' for Active; 'I' for Inactive)
REMARK    1  A    between atoms: C_11  and  N_12 
REMARK    2  A    between atoms: N_12  and  C_13 
ROOT
HETATM    1  C   UNL     1      41.856 -13.700  -0.790  1.00  0.00     0.010 C 
HETATM    2  C   UNL     1      40.733 -14.731  -0.630  1.00  0.00    -0.014 C 
HETATM    3  C   UNL     1      39.809 -14.388   0.558  1.00  0.00     0.051 C 
HETATM    4  C   UNL     1      40.414 -14.830   1.858  1.00  0.00    -0.008 A 
HETATM    5  C   UNL     1      41.450 -15.736   2.008  1.00  0.00    -0.028 A 
HETATM    6  C   UNL     1      41.822 -15.901   3.408  1.00  0.00     0.053 A 
HETATM    7  C   UNL     1      40.975 -15.148   4.216  1.00  0.00     0.114 A 
HETATM    8  N   UNL     1      40.995 -15.067   5.555  1.00  0.00    -0.234 NA
HETATM    9  C   UNL     1      41.962 -15.807   6.091  1.00  0.00     0.236 A 
HETATM   10  N   UNL     1      42.861 -16.557   5.445  1.00  0.00    -0.223 NA
HETATM   11  C   UNL     1      42.837 -16.627   4.090  1.00  0.00     0.143 A 
HETATM   12  S   UNL     1      39.824 -14.251   3.339  1.00  0.00    -0.073 SA
HETATM   13  C   UNL     1      42.088 -16.380   0.809  1.00  0.00     0.041 C 
HETATM   14  C   UNL     1      41.286 -16.162  -0.484  1.00  0.00     0.009 C 
ENDROOT
BRANCH  11  15
HETATM   15  N   UNL     1      43.786 -17.408   3.411  1.00  0.00    -0.340 N 
HETATM   16  H   UNL     1      44.572 -16.883   3.069  1.00  0.00     0.167 HD
BRANCH  15  17
HETATM   17  C   UNL     1      43.943 -18.799   3.259  1.00  0.00     0.036 A 
HETATM   18  C   UNL     1      44.452 -19.530   4.350  1.00  0.00     0.069 A 
HETATM   19  C   UNL     1      44.630 -20.892   4.217  1.00  0.00     0.107 A 
HETATM   20  C   UNL     1      44.336 -21.550   3.050  1.00  0.00     0.105 A 
HETATM   21  O   UNL     1      45.098 -21.729   5.182  1.00  0.00    -0.323 OA
HETATM   22  O   UNL     1      44.578 -22.885   3.129  1.00  0.00    -0.323 OA
HETATM   23  C   UNL     1      43.854 -20.878   1.952  1.00  0.00     0.042 A 
HETATM   24  C   UNL     1      45.060 -22.992   4.484  1.00  0.00     0.352 A 
HETATM   25  C   UNL     1      43.665 -19.494   2.062  1.00  0.00     0.032 A 
ENDBRANCH  15  17
ENDBRANCH  11  15
TORSDOF 2
ENDMDL
MODEL 2
REMARK VINA RESULT:      -8.6      3.676      6.672
REMARK  2 active torsions:
REMARK  status: ('A' for Active; 'I' for Inactive)
REMARK    1  A    between atoms: C_11  and  N_12 
REMARK    2  A    between atoms: N_12  and  C_13 
ROOT
HETATM    1  C   UNL     1      43.433 -21.858   2.142  1.00  0.00     0.010 C 
HETATM    2  C   UNL     1      44.485 -20.747   2.049  1.00  0.00    -0.014 C 
HETATM    3  C   UNL     1      45.095 -20.422   3.428  1.00  0.00     0.051 C 
HETATM    4  C   UNL     1      44.195 -19.518   4.218  1.00  0.00    -0.008 A 
HETATM    5  C   UNL     1      43.153 -18.760   3.712  1.00  0.00    -0.028 A 
HETATM    6  C   UNL     1      42.455 -18.033   4.764  1.00  0.00     0.053 A 
HETATM    7  C   UNL     1      43.083 -18.250   5.987  1.00  0.00     0.114 A 
HETATM    8  N   UNL     1      42.741 -17.729   7.175  1.00  0.00    -0.234 NA
HETATM    9  C   UNL     1      41.674 -16.940   7.092  1.00  0.00     0.236 A 
HETATM   10  N   UNL     1      40.956 -16.659   5.999  1.00  0.00    -0.223 NA
HETATM   11  C   UNL     1      41.306 -17.196   4.803  1.00  0.00     0.143 A 
HETATM   12  S   UNL     1      44.411 -19.310   5.888  1.00  0.00    -0.073 SA
HETATM   13  C   UNL     1      42.823 -18.790   2.245  1.00  0.00     0.041 C 
HETATM   14  C   UNL     1      43.913 -19.471   1.401  1.00  0.00     0.009 C 
ENDROOT
BRANCH  11  15
HETATM   15  N   UNL     1      40.549 -16.908   3.657  1.00  0.00    -0.340 N 
HETATM   16  H   UNL     1      39.798 -17.557   3.493  1.00  0.00     0.167 HD
BRANCH  15  17
HETATM   17  C   UNL     1      40.521 -15.801   2.786  1.00  0.00     0.036 A 
HETATM   18  C   UNL     1      41.633 -14.938   2.777  1.00  0.00     0.069 A 
HETATM   19  C   UNL     1      41.620 -13.838   1.943  1.00  0.00     0.107 A 
HETATM   20  C   UNL     1      40.549 -13.558   1.133  1.00  0.00     0.105 A 
HETATM   21  O   UNL     1      42.621 -12.926   1.817  1.00  0.00    -0.323 OA
HETATM   22  O   UNL     1      40.738 -12.436   0.389  1.00  0.00    -0.323 OA
HETATM   23  C   UNL     1      39.433 -14.360   1.118  1.00  0.00     0.042 A 
HETATM   24  C   UNL     1      42.054 -12.041   0.827  1.00  0.00     0.352 A 
HETATM   25  C   UNL     1      39.423 -15.483   1.958  1.00  0.00     0.032 A 
ENDBRANCH  15  17
ENDBRANCH  11  15
TORSDOF 2
ENDMDL
MODEL 3
REMARK VINA RESULT:      -8.1      4.260      7.649
REMARK  2 active torsions:
REMARK  status: ('A' for Active; 'I' for Inactive)
REMARK    1  A    between atoms: C_11  and  N_12 
REMARK    2  A    between atoms: N_12  and  C_13 
ROOT
HETATM    1  C   UNL     1      45.464 -17.952   6.329  1.00  0.00     0.010 C 
HETATM    2  C   UNL     1      44.546 -19.161   6.116  1.00  0.00    -0.014 C 
HETATM    3  C   UNL     1      44.584 -19.656   4.655  1.00  0.00     0.051 C 
HETATM    4  C   UNL     1      43.701 -18.818   3.778  1.00  0.00    -0.008 A 
HETATM    5  C   UNL     1      42.700 -17.963   4.208  1.00  0.00    -0.028 A 
HETATM    6  C   UNL     1      42.070 -17.268   3.092  1.00  0.00     0.053 A 
HETATM    7  C   UNL     1      42.607 -17.716   1.889  1.00  0.00     0.114 A 
HETATM    8  N   UNL     1      42.261 -17.325   0.654  1.00  0.00    -0.234 NA
HETATM    9  C   UNL     1      41.303 -16.403   0.665  1.00  0.00     0.236 A 
HETATM   10  N   UNL     1      40.712 -15.862   1.736  1.00  0.00    -0.223 NA
HETATM   11  C   UNL     1      41.074 -16.258   2.982  1.00  0.00     0.143 A 
HETATM   12  S   UNL     1      43.838 -18.875   2.088  1.00  0.00    -0.073 SA
HETATM   13  C   UNL     1      42.408 -17.796   5.673  1.00  0.00     0.041 C 
HETATM   14  C   UNL     1      43.096 -18.861   6.544  1.00  0.00     0.009 C 
ENDROOT
BRANCH  11  15
HETATM   15  N   UNL     1      40.460 -15.685   4.107  1.00  0.00    -0.340 N 
HETATM   16  H   UNL     1      39.751 -16.265   4.521  1.00  0.00     0.167 HD
BRANCH  15  17
HETATM   17  C   UNL     1      40.752 -14.539   4.872  1.00  0.00     0.036 A 
HETATM   18  C   UNL     1      39.676 -13.839   5.450  1.00  0.00     0.069 A 
HETATM   19  C   UNL     1      39.938 -12.704   6.191  1.00  0.00     0.107 A 
HETATM   20  C   UNL     1      41.214 -12.234   6.367  1.00  0.00     0.105 A 
HETATM   21  O   UNL     1      39.008 -11.933   6.818  1.00  0.00    -0.323 OA
HETATM   22  O   UNL     1      41.255 -11.109   7.130  1.00  0.00    -0.323 OA
HETATM   23  C   UNL     1      42.295 -12.871   5.808  1.00  0.00     0.042 A 
HETATM   24  C   UNL     1      39.853 -10.925   7.412  1.00  0.00     0.352 A 
HETATM   25  C   UNL     1      42.055 -14.027   5.051  1.00  0.00     0.032 A 
ENDBRANCH  15  17
ENDBRANCH  11  15
TORSDOF 2
ENDMDL
MODEL 4
REMARK VINA RESULT:      -8.1      3.813      6.703
REMARK  2 active torsions:
REMARK  status: ('A' for Active; 'I' for Inactive)
REMARK    1  A    between atoms: C_11  and  N_12 
REMARK    2  A    between atoms: N_12  and  C_13 
ROOT
HETATM    1  C   UNL     1      42.858 -21.780   1.775  1.00  0.00     0.010 C 
HETATM    2  C   UNL     1      44.347 -21.548   2.056  1.00  0.00    -0.014 C 
HETATM    3  C   UNL     1      44.717 -21.910   3.510  1.00  0.00     0.051 C 
HETATM    4  C   UNL     1      44.355 -20.800   4.452  1.00  0.00    -0.008 A 
HETATM    5  C   UNL     1      44.079 -19.489   4.100  1.00  0.00    -0.028 A 
HETATM    6  C   UNL     1      43.719 -18.685   5.260  1.00  0.00     0.053 A 
HETATM    7  C   UNL     1      43.824 -19.449   6.419  1.00  0.00     0.114 A 
HETATM    8  N   UNL     1      43.596 -19.044   7.677  1.00  0.00    -0.234 NA
HETATM    9  C   UNL     1      43.226 -17.769   7.739  1.00  0.00     0.236 A 
HETATM   10  N   UNL     1      43.059 -16.923   6.716  1.00  0.00    -0.223 NA
HETATM   11  C   UNL     1      43.285 -17.343   5.446  1.00  0.00     0.143 A 
HETATM   12  S   UNL     1      44.284 -21.061   6.126  1.00  0.00    -0.073 SA
HETATM   13  C   UNL     1      44.119 -19.056   2.661  1.00  0.00     0.041 C 
HETATM   14  C   UNL     1      44.770 -20.100   1.739  1.00  0.00     0.009 C 
ENDROOT
BRANCH  11  15
HETATM   15  N   UNL     1      43.102 -16.459   4.372  1.00  0.00    -0.340 N 
HETATM   16  H   UNL     1      43.960 -16.091   3.998  1.00  0.00     0.167 HD
BRANCH  15  17
HETATM   17  C   UNL     1      41.973 -16.113   3.602  1.00  0.00     0.036 A 
HETATM   18  C   UNL     1      41.544 -14.773   3.624  1.00  0.00     0.069 A 
HETATM   19  C   UNL     1      40.431 -14.415   2.891  1.00  0.00     0.107 A 
HETATM   20  C   UNL     1      39.726 -15.331   2.153  1.00  0.00     0.105 A 
HETATM   21  O   UNL     1      39.906 -13.162   2.804  1.00  0.00    -0.323 OA
HETATM   22  O   UNL     1      38.669 -14.776   1.503  1.00  0.00    -0.323 OA
HETATM   23  C   UNL     1      40.095 -16.655   2.114  1.00  0.00     0.042 A 
HETATM   24  C   UNL     1      38.790 -13.400   1.920  1.00  0.00     0.352 A 
HETATM   25  C   UNL     1      41.222 -17.042   2.851  1.00  0.00     0.032 A 
ENDBRANCH  15  17
ENDBRANCH  11  15
TORSDOF 2
ENDMDL
MODEL 5
REMARK VINA RESULT:      -8.1      1.700      2.488
REMARK  2 active torsions:
REMARK  status: ('A' for Active; 'I' for Inactive)
REMARK    1  A    between atoms: C_11  and  N_12 
REMARK    2  A    between atoms: N_12  and  C_13 
ROOT
HETATM    1  C   UNL     1      41.720 -16.106   0.257  1.00  0.00     0.010 C 
HETATM    2  C   UNL     1      40.610 -15.512   1.132  1.00  0.00    -0.014 C 
HETATM    3  C   UNL     1      41.060 -14.203   1.814  1.00  0.00     0.051 C 
HETATM    4  C   UNL     1      41.885 -14.486   3.035  1.00  0.00    -0.008 A 
HETATM    5  C   UNL     1      41.955 -15.693   3.709  1.00  0.00    -0.028 A 
HETATM    6  C   UNL     1      42.889 -15.632   4.826  1.00  0.00     0.053 A 
HETATM    7  C   UNL     1      43.400 -14.343   4.948  1.00  0.00     0.114 A 
HETATM    8  N   UNL     1      44.267 -13.901   5.871  1.00  0.00    -0.234 NA
HETATM    9  C   UNL     1      44.635 -14.858   6.717  1.00  0.00     0.236 A 
HETATM   10  N   UNL     1      44.251 -16.139   6.710  1.00  0.00    -0.223 NA
HETATM   11  C   UNL     1      43.379 -16.579   5.768  1.00  0.00     0.143 A 
HETATM   12  S   UNL     1      42.827 -13.273   3.754  1.00  0.00    -0.073 SA
HETATM   13  C   UNL     1      41.167 -16.884   3.237  1.00  0.00     0.041 C 
HETATM   14  C   UNL     1      40.109 -16.520   2.183  1.00  0.00     0.009 C 
ENDROOT
BRANCH  11  15
HETATM   15  N   UNL     1      42.981 -17.925   5.754  1.00  0.00    -0.340 N 
HETATM   16  H   UNL     1      42.066 -18.081   6.141  1.00  0.00     0.167 HD
BRANCH  15  17
HETATM   17  C   UNL     1      43.531 -19.076   5.157  1.00  0.00     0.036 A 
HETATM   18  C   UNL     1      43.393 -19.228   3.765  1.00  0.00     0.069 A 
HETATM   19  C   UNL     1      43.910 -20.357   3.160  1.00  0.00     0.107 A 
HETATM   20  C   UNL     1      44.542 -21.337   3.882  1.00  0.00     0.105 A 
HETATM   21  O   UNL     1      43.865 -20.636   1.830  1.00  0.00    -0.323 OA
HETATM   22  O   UNL     1      44.979 -22.359   3.099  1.00  0.00    -0.323 OA
HETATM   23  C   UNL     1      44.685 -21.244   5.245  1.00  0.00     0.042 A 
HETATM   24  C   UNL     1      44.548 -21.907   1.800  1.00  0.00     0.352 A 
HETATM   25  C   UNL     1      44.168 -20.106   5.881  1.00  0.00     0.032 A 
ENDBRANCH  15  17
ENDBRANCH  11  15
TORSDOF 2
ENDMDL
MODEL 6
REMARK VINA RESULT:      -8.0      4.443      6.823
REMARK  2 active torsions:
REMARK  status: ('A' for Active; 'I' for Inactive)
REMARK    1  A    between atoms: C_11  and  N_12 
REMARK    2  A    between atoms: N_12  and  C_13 
ROOT
HETATM    1  C   UNL     1      41.835 -18.026   1.464  1.00  0.00     0.010 C 
HETATM    2  C   UNL     1      43.367 -17.997   1.501  1.00  0.00    -0.014 C 
HETATM    3  C   UNL     1      43.938 -19.098   2.419  1.00  0.00     0.051 C 
HETATM    4  C   UNL     1      43.885 -18.682   3.859  1.00  0.00    -0.008 A 
HETATM    5  C   UNL     1      43.715 -17.390   4.328  1.00  0.00    -0.028 A 
HETATM    6  C   UNL     1      43.664 -17.349   5.784  1.00  0.00     0.053 A 
HETATM    7  C   UNL     1      43.875 -18.623   6.303  1.00  0.00     0.114 A 
HETATM    8  N   UNL     1      43.922 -18.972   7.597  1.00  0.00    -0.234 NA
HETATM    9  C   UNL     1      43.728 -17.935   8.407  1.00  0.00     0.236 A 
HETATM   10  N   UNL     1      43.490 -16.666   8.056  1.00  0.00    -0.223 NA
HETATM   11  C   UNL     1      43.437 -16.324   6.745  1.00  0.00     0.143 A 
HETATM   12  S   UNL     1      44.075 -19.817   5.105  1.00  0.00    -0.073 SA
HETATM   13  C   UNL     1      43.556 -16.240   3.373  1.00  0.00     0.041 C 
HETATM   14  C   UNL     1      43.904 -16.615   1.923  1.00  0.00     0.009 C 
ENDROOT
BRANCH  11  15
HETATM   15  N   UNL     1      43.180 -14.995   6.376  1.00  0.00    -0.340 N 
HETATM   16  H   UNL     1      43.978 -14.389   6.462  1.00  0.00     0.167 HD
BRANCH  15  17
HETATM   17  C   UNL     1      42.081 -14.375   5.751  1.00  0.00     0.036 A 
HETATM   18  C   UNL     1      42.278 -13.106   5.174  1.00  0.00     0.069 A 
HETATM   19  C   UNL     1      41.211 -12.472   4.570  1.00  0.00     0.107 A 
HETATM   20  C   UNL     1      39.962 -13.039   4.529  1.00  0.00     0.105 A 
HETATM   21  O   UNL     1      41.250 -11.255   3.963  1.00  0.00    -0.323 OA
HETATM   22  O   UNL     1      39.055 -12.256   3.887  1.00  0.00    -0.323 OA
HETATM   23  C   UNL     1      39.715 -14.267   5.093  1.00  0.00     0.042 A 
HETATM   24  C   UNL     1      39.879 -11.127   3.530  1.00  0.00     0.352 A 
HETATM   25  C   UNL     1      40.784 -14.930   5.713  1.00  0.00     0.032 A 
ENDBRANCH  15  17
ENDBRANCH  11  15
TORSDOF 2
ENDMDL
MODEL 7
REMARK VINA RESULT:      -8.0      1.630      3.741
REMARK  2 active torsions:
REMARK  status: ('A' for Active; 'I' for Inactive)
REMARK    1  A    between atoms: C_11  and  N_12 
REMARK    2  A    between atoms: N_12  and  C_13 
ROOT
HETATM    1  C   UNL     1      40.304 -17.042   6.674  1.00  0.00     0.010 C 
HETATM    2  C   UNL     1      40.993 -15.681   6.519  1.00  0.00    -0.014 C 
HETATM    3  C   UNL     1      40.291 -14.804   5.462  1.00  0.00     0.051 C 
HETATM    4  C   UNL     1      40.714 -15.188   4.074  1.00  0.00    -0.008 A 
HETATM    5  C   UNL     1      41.828 -15.941   3.741  1.00  0.00    -0.028 A 
HETATM    6  C   UNL     1      41.914 -16.166   2.304  1.00  0.00     0.053 A 
HETATM    7  C   UNL     1      40.883 -15.494   1.655  1.00  0.00     0.114 A 
HETATM    8  N   UNL     1      40.652 -15.448   0.334  1.00  0.00    -0.234 NA
HETATM    9  C   UNL     1      41.542 -16.152  -0.359  1.00  0.00     0.236 A 
HETATM   10  N   UNL     1      42.565 -16.865   0.125  1.00  0.00    -0.223 NA
HETATM   11  C   UNL     1      42.787 -16.911   1.463  1.00  0.00     0.143 A 
HETATM   12  S   UNL     1      39.835 -14.675   2.718  1.00  0.00    -0.073 SA
HETATM   13  C   UNL     1      42.748 -16.465   4.807  1.00  0.00     0.041 C 
HETATM   14  C   UNL     1      42.489 -15.832   6.184  1.00  0.00     0.009 C 
ENDROOT
BRANCH  11  15
HETATM   15  N   UNL     1      43.855 -17.665   1.971  1.00  0.00    -0.340 N 
HETATM   16  H   UNL     1      44.638 -17.109   2.271  1.00  0.00     0.167 HD
BRANCH  15  17
HETATM   17  C   UNL     1      43.988 -19.028   2.304  1.00  0.00     0.036 A 
HETATM   18  C   UNL     1      44.498 -19.351   3.575  1.00  0.00     0.069 A 
HETATM   19  C   UNL     1      44.652 -20.680   3.917  1.00  0.00     0.107 A 
HETATM   20  C   UNL     1      44.333 -21.691   3.046  1.00  0.00     0.105 A 
HETATM   21  O   UNL     1      45.118 -21.145   5.107  1.00  0.00    -0.323 OA
HETATM   22  O   UNL     1      44.554 -22.923   3.576  1.00  0.00    -0.323 OA
HETATM   23  C   UNL     1      43.849 -21.426   1.788  1.00  0.00     0.042 A 
HETATM   24  C   UNL     1      45.050 -22.569   4.883  1.00  0.00     0.352 A 
HETATM   25  C   UNL     1      43.685 -20.084   1.418  1.00  0.00     0.032 A 
ENDBRANCH  15  17
ENDBRANCH  11  15
TORSDOF 2
ENDMDL
MODEL 8
REMARK VINA RESULT:      -8.0      3.836      7.045
REMARK  2 active torsions:
REMARK  status: ('A' for Active; 'I' for Inactive)
REMARK    1  A    between atoms: C_11  and  N_12 
REMARK    2  A    between atoms: N_12  and  C_13 
ROOT
HETATM    1  C   UNL     1      44.476 -15.136   6.784  1.00  0.00     0.010 C 
HETATM    2  C   UNL     1      43.571 -16.212   7.394  1.00  0.00    -0.014 C 
HETATM    3  C   UNL     1      44.204 -17.616   7.293  1.00  0.00     0.051 C 
HETATM    4  C   UNL     1      44.000 -18.204   5.928  1.00  0.00    -0.008 A 
HETATM    5  C   UNL     1      43.082 -17.774   4.984  1.00  0.00    -0.028 A 
HETATM    6  C   UNL     1      43.184 -18.539   3.748  1.00  0.00     0.053 A 
HETATM    7  C   UNL     1      44.136 -19.544   3.889  1.00  0.00     0.114 A 
HETATM    8  N   UNL     1      44.487 -20.460   2.973  1.00  0.00    -0.234 NA
HETATM    9  C   UNL     1      43.814 -20.319   1.835  1.00  0.00     0.236 A 
HETATM   10  N   UNL     1      42.894 -19.392   1.546  1.00  0.00    -0.223 NA
HETATM   11  C   UNL     1      42.551 -18.466   2.476  1.00  0.00     0.143 A 
HETATM   12  S   UNL     1      44.904 -19.541   5.408  1.00  0.00    -0.073 SA
HETATM   13  C   UNL     1      42.169 -16.615   5.272  1.00  0.00     0.041 C 
HETATM   14  C   UNL     1      42.168 -16.209   6.755  1.00  0.00     0.009 C 
ENDROOT
BRANCH  11  15
HETATM   15  N   UNL     1      41.592 -17.488   2.172  1.00  0.00    -0.340 N 
HETATM   16  H   UNL     1      40.769 -17.533   2.749  1.00  0.00     0.167 HD
BRANCH  15  17
HETATM   17  C   UNL     1      41.618 -16.353   1.338  1.00  0.00     0.036 A 
HETATM   18  C   UNL     1      42.018 -15.127   1.903  1.00  0.00     0.069 A 
HETATM   19  C   UNL     1      42.035 -13.998   1.108  1.00  0.00     0.107 A 
HETATM   20  C   UNL     1      41.662 -14.037  -0.211  1.00  0.00     0.105 A 
HETATM   21  O   UNL     1      42.407 -12.752   1.507  1.00  0.00    -0.323 OA
HETATM   22  O   UNL     1      41.755 -12.823  -0.815  1.00  0.00    -0.323 OA
HETATM   23  C   UNL     1      41.248 -15.206  -0.804  1.00  0.00     0.042 A 
HETATM   24  C   UNL     1      42.229 -12.013   0.280  1.00  0.00     0.352 A 
HETATM   25  C   UNL     1      41.221 -16.366  -0.016  1.00  0.00     0.032 A 
ENDBRANCH  15  17
ENDBRANCH  11  15
TORSDOF 2
ENDMDL
MODEL 9
REMARK VINA RESULT:      -7.5      2.139      3.066
REMARK  2 active torsions:
REMARK  status: ('A' for Active; 'I' for Inactive)
REMARK    1  A    between atoms: C_11  and  N_12 
REMARK    2  A    between atoms: N_12  and  C_13 
ROOT
HETATM    1  C   UNL     1      41.106 -13.252  -3.588  1.00  0.00     0.010 C 
HETATM    2  C   UNL     1      40.130 -14.412  -3.361  1.00  0.00    -0.014 C 
HETATM    3  C   UNL     1      38.923 -13.984  -2.501  1.00  0.00     0.051 C 
HETATM    4  C   UNL     1      39.274 -13.980  -1.042  1.00  0.00    -0.008 A 
HETATM    5  C   UNL     1      40.365 -14.607  -0.464  1.00  0.00    -0.028 A 
HETATM    6  C   UNL     1      40.430 -14.361   0.970  1.00  0.00     0.053 A 
HETATM    7  C   UNL     1      39.326 -13.616   1.375  1.00  0.00     0.114 A 
HETATM    8  N   UNL     1      39.031 -13.219   2.622  1.00  0.00    -0.234 NA
HETATM    9  C   UNL     1      39.945 -13.610   3.505  1.00  0.00     0.236 A 
HETATM   10  N   UNL     1      41.062 -14.303   3.263  1.00  0.00    -0.223 NA
HETATM   11  C   UNL     1      41.355 -14.695   1.998  1.00  0.00     0.143 A 
HETATM   12  S   UNL     1      38.290 -13.192   0.093  1.00  0.00    -0.073 SA
HETATM   13  C   UNL     1      41.341 -15.381  -1.306  1.00  0.00     0.041 C 
HETATM   14  C   UNL     1      40.829 -15.634  -2.734  1.00  0.00     0.009 C 
ENDROOT
BRANCH  11  15
HETATM   15  N   UNL     1      42.532 -15.416   1.741  1.00  0.00    -0.340 N 
HETATM   16  H   UNL     1      43.244 -14.879   1.277  1.00  0.00     0.167 HD
BRANCH  15  17
HETATM   17  C   UNL     1      42.981 -16.686   2.153  1.00  0.00     0.036 A 
HETATM   18  C   UNL     1      43.424 -16.833   3.481  1.00  0.00     0.069 A 
HETATM   19  C   UNL     1      43.884 -18.065   3.900  1.00  0.00     0.107 A 
HETATM   20  C   UNL     1      43.932 -19.145   3.056  1.00  0.00     0.105 A 
HETATM   21  O   UNL     1      44.331 -18.361   5.151  1.00  0.00    -0.323 OA
HETATM   22  O   UNL     1      44.411 -20.261   3.665  1.00  0.00    -0.323 OA
HETATM   23  C   UNL     1      43.527 -19.048   1.746  1.00  0.00     0.042 A 
HETATM   24  C   UNL     1      44.661 -19.758   4.993  1.00  0.00     0.352 A 
HETATM   25  C   UNL     1      43.056 -17.806   1.297  1.00  0.00     0.032 A 
ENDBRANCH  15  17
ENDBRANCH  11  15
TORSDOF 2
ENDMDL
MODEL 10
REMARK VINA RESULT:      -7.5      3.709      6.715
REMARK  2 active torsions:
REMARK  status: ('A' for Active; 'I' for Inactive)
REMARK    1  A    between atoms: C_11  and  N_12 
REMARK    2  A    between atoms: N_12  and  C_13 
ROOT
HETATM    1  C   UNL     1      43.565 -19.762   6.751  1.00  0.00     0.010 C 
HETATM    2  C   UNL     1      44.688 -19.157   5.901  1.00  0.00    -0.014 C 
HETATM    3  C   UNL     1      45.233 -17.853   6.519  1.00  0.00     0.051 C 
HETATM    4  C   UNL     1      44.344 -16.689   6.193  1.00  0.00    -0.008 A 
HETATM    5  C   UNL     1      43.385 -16.650   5.195  1.00  0.00    -0.028 A 
HETATM    6  C   UNL     1      42.671 -15.380   5.183  1.00  0.00     0.053 A 
HETATM    7  C   UNL     1      43.208 -14.525   6.142  1.00  0.00     0.114 A 
HETATM    8  N   UNL     1      42.827 -13.266   6.407  1.00  0.00    -0.234 NA
HETATM    9  C   UNL     1      41.819 -12.870   5.635  1.00  0.00     0.236 A 
HETATM   10  N   UNL     1      41.189 -13.584   4.696  1.00  0.00    -0.223 NA
HETATM   11  C   UNL     1      41.576 -14.858   4.439  1.00  0.00     0.143 A 
HETATM   12  S   UNL     1      44.470 -15.226   7.043  1.00  0.00    -0.073 SA
HETATM   13  C   UNL     1      43.144 -17.844   4.314  1.00  0.00     0.041 C 
HETATM   14  C   UNL     1      44.239 -18.916   4.447  1.00  0.00     0.009 C 
ENDROOT
BRANCH  11  15
HETATM   15  N   UNL     1      40.911 -15.610   3.459  1.00  0.00    -0.340 N 
HETATM   16  H   UNL     1      40.167 -16.182   3.822  1.00  0.00     0.167 HD
BRANCH  15  17
HETATM   17  C   UNL     1      40.960 -15.599   2.051  1.00  0.00     0.036 A 
HETATM   18  C   UNL     1      40.219 -14.614   1.372  1.00  0.00     0.069 A 
HETATM   19  C   UNL     1      40.239 -14.595  -0.008  1.00  0.00     0.107 A 
HETATM   20  C   UNL     1      40.952 -15.515  -0.734  1.00  0.00     0.105 A 
HETATM   21  O   UNL     1      39.586 -13.701  -0.799  1.00  0.00    -0.323 OA
HETATM   22  O   UNL     1      40.843 -15.319  -2.074  1.00  0.00    -0.323 OA
HETATM   23  C   UNL     1      41.676 -16.507  -0.117  1.00  0.00     0.042 A 
HETATM   24  C   UNL     1      39.977 -14.167  -2.109  1.00  0.00     0.352 A 
HETATM   25  C   UNL     1      41.670 -16.547   1.284  1.00  0.00     0.032 A 
ENDBRANCH  15  17
ENDBRANCH  11  15
TORSDOF 2
ENDMDL
