MODEL 1
REMARK VINA RESULT:      -8.1      0.000      0.000
REMARK  11 active torsions:
REMARK  status: ('A' for Active; 'I' for Inactive)
REMARK    1  A    between atoms: C_6  and  C_7 
REMARK    2  A    between atoms: C_7  and  C_8 
REMARK       I    between atoms: C_8  and  N_9 
REMARK    3  A    between atoms: N_9  and  C_10 
REMARK    4  A    between atoms: C_10  and  C_11 
REMARK    5  A    between atoms: C_11  and  N_12 
REMARK    6  A    between atoms: C_17  and  C_18 
REMARK    7  A    between atoms: C_21  and  C_22 
REMARK    8  A    between atoms: C_29  and  C_30 
REMARK    9  A    between atoms: C_30  and  O_31 
REMARK   10  A    between atoms: O_31  and  C_32 
REMARK   11  A    between atoms: C_32  and  C_33 
ROOT
HETATM    1  C   UNL     1      40.248 -14.136   5.964  1.00  0.00     0.071 C 
HETATM    2  C   UNL     1      40.746 -14.552   4.605  1.00  0.00     0.048 C 
HETATM    3  N   UNL     1      39.744 -15.005   3.743  1.00  0.00    -0.229 NA
HETATM    4  C   UNL     1      39.979 -14.864   2.480  1.00  0.00     0.170 C 
HETATM    5  N   UNL     1      41.339 -14.342   1.946  1.00  0.00    -0.319 N 
HETATM    6  C   UNL     1      41.145 -13.524   0.973  1.00  0.00     0.011 C 
HETATM    7  C   UNL     1      42.445 -14.802   2.805  1.00  0.00     0.166 C 
HETATM    8  S   UNL     1      38.798 -14.886   1.222  1.00  0.00    -0.086 SA
HETATM    9  C   UNL     1      39.809 -13.691   0.264  1.00  0.00     0.135 C 
HETATM   10  C   UNL     1      42.025 -14.407   4.186  1.00  0.00     0.069 C 
ENDROOT
BRANCH   6  11
HETATM   11  C   UNL     1      42.107 -12.405   0.704  1.00  0.00     0.156 C 
BRANCH  11  12
HETATM   12  C   UNL     1      41.505 -11.106   1.210  1.00  0.00     0.223 C 
HETATM   13  N   UNL     1      41.335 -10.997   2.565  1.00  0.00    -0.359 N 
HETATM   14  H   UNL     1      41.786 -11.665   3.197  1.00  0.00     0.162 HD
HETATM   15  O   UNL     1      41.048 -10.273   0.431  1.00  0.00    -0.273 OA
BRANCH  13  16
HETATM   16  C   UNL     1      40.383 -10.061   3.183  1.00  0.00     0.150 C 
BRANCH  16  17
HETATM   17  C   UNL     1      39.761 -10.470   4.540  1.00  0.00     0.253 C 
BRANCH  17  18
HETATM   18  N   UNL     1      40.707 -10.309   5.713  1.00  0.00    -0.077 N 
HETATM   19  H   UNL     1      41.413 -11.069   5.637  1.00  0.00     0.279 HD
HETATM   20  C   UNL     1      41.492  -9.026   5.712  1.00  0.00     0.269 C 
HETATM   21  C   UNL     1      40.012 -10.509   7.032  1.00  0.00     0.269 C 
ENDBRANCH  17  18
ENDBRANCH  16  17
ENDBRANCH  13  16
ENDBRANCH  11  12
ENDBRANCH   6  11
BRANCH   7  22
HETATM   22  C   UNL     1      42.596 -16.316   2.573  1.00  0.00    -0.030 C 
HETATM   23  C   UNL     1      42.460 -17.204   3.659  1.00  0.00     0.010 C 
HETATM   24  C   UNL     1      42.982 -18.499   3.590  1.00  0.00     0.008 C 
HETATM   25  C   UNL     1      43.609 -18.953   2.425  1.00  0.00    -0.055 C 
HETATM   26  C   UNL     1      43.571 -18.139   1.288  1.00  0.00     0.008 C 
HETATM   27  C   UNL     1      43.058 -16.842   1.355  1.00  0.00     0.010 C 
BRANCH  25  28
HETATM   28  C   UNL     1      44.391 -20.259   2.439  1.00  0.00     0.010 C 
HETATM   29  C   UNL     1      44.801 -20.691   3.845  1.00  0.00     0.015 C 
HETATM   30  C   UNL     1      43.586 -21.365   1.743  1.00  0.00     0.015 C 
ENDBRANCH  25  28
ENDBRANCH   7  22
BRANCH  10  31
HETATM   31  C   UNL     1      42.973 -13.498   4.832  1.00  0.00     0.294 C 
HETATM   32  O   UNL     1      42.784 -12.290   4.746  1.00  0.00    -0.259 OA
BRANCH  31  33
HETATM   33  O   UNL     1      44.042 -14.168   5.283  1.00  0.00    -0.313 OA
BRANCH  33  34
HETATM   34  C   UNL     1      44.009 -14.526   6.674  1.00  0.00     0.217 C 
BRANCH  34  35
HETATM   35  C   UNL     1      44.014 -16.022   6.813  1.00  0.00    -0.034 A 
HETATM   36  C   UNL     1      42.902 -16.682   7.353  1.00  0.00     0.009 A 
HETATM   37  C   UNL     1      42.897 -18.071   7.476  1.00  0.00     0.001 A 
HETATM   38  C   UNL     1      44.005 -18.812   7.070  1.00  0.00     0.000 A 
HETATM   39  C   UNL     1      45.120 -18.165   6.541  1.00  0.00     0.001 A 
HETATM   40  C   UNL     1      45.128 -16.776   6.415  1.00  0.00     0.009 A 
ENDBRANCH  34  35
ENDBRANCH  33  34
ENDBRANCH  31  33
ENDBRANCH  10  31
TORSDOF 11
ENDMDL
MODEL 2
REMARK VINA RESULT:      -7.6      2.070      3.580
REMARK  11 active torsions:
REMARK  status: ('A' for Active; 'I' for Inactive)
REMARK    1  A    between atoms: C_6  and  C_7 
REMARK    2  A    between atoms: C_7  and  C_8 
REMARK       I    between atoms: C_8  and  N_9 
REMARK    3  A    between atoms: N_9  and  C_10 
REMARK    4  A    between atoms: C_10  and  C_11 
REMARK    5  A    between atoms: C_11  and  N_12 
REMARK    6  A    between atoms: C_17  and  C_18 
REMARK    7  A    between atoms: C_21  and  C_22 
REMARK    8  A    between atoms: C_29  and  C_30 
REMARK    9  A    between atoms: C_30  and  O_31 
REMARK   10  A    between atoms: O_31  and  C_32 
REMARK   11  A    between atoms: C_32  and  C_33 
ROOT
HETATM    1  C   UNL     1      40.318 -14.186   6.107  1.00  0.00     0.071 C 
HETATM    2  C   UNL     1      40.789 -14.578   4.731  1.00  0.00     0.048 C 
HETATM    3  N   UNL     1      39.769 -15.011   3.879  1.00  0.00    -0.229 NA
HETATM    4  C   UNL     1      39.981 -14.847   2.616  1.00  0.00     0.170 C 
HETATM    5  N   UNL     1      41.333 -14.320   2.066  1.00  0.00    -0.319 N 
HETATM    6  C   UNL     1      41.123 -13.483   1.112  1.00  0.00     0.011 C 
HETATM    7  C   UNL     1      42.453 -14.800   2.895  1.00  0.00     0.166 C 
HETATM    8  S   UNL     1      38.776 -14.842   1.380  1.00  0.00    -0.086 SA
HETATM    9  C   UNL     1      39.774 -13.632   0.425  1.00  0.00     0.135 C 
HETATM   10  C   UNL     1      42.060 -14.430   4.291  1.00  0.00     0.069 C 
ENDROOT
BRANCH   6  11
HETATM   11  C   UNL     1      42.085 -12.363   0.846  1.00  0.00     0.156 C 
BRANCH  11  12
HETATM   12  C   UNL     1      41.963 -11.946  -0.609  1.00  0.00     0.223 C 
HETATM   13  N   UNL     1      42.389 -12.853  -1.543  1.00  0.00    -0.359 N 
HETATM   14  H   UNL     1      42.572 -13.824  -1.274  1.00  0.00     0.162 HD
HETATM   15  O   UNL     1      41.654 -10.797  -0.916  1.00  0.00    -0.273 OA
BRANCH  13  16
HETATM   16  C   UNL     1      42.776 -12.476  -2.911  1.00  0.00     0.150 C 
BRANCH  16  17
HETATM   17  C   UNL     1      41.637 -12.239  -3.934  1.00  0.00     0.253 C 
BRANCH  17  18
HETATM   18  N   UNL     1      41.078 -10.830  -3.902  1.00  0.00    -0.077 N 
HETATM   19  H   UNL     1      40.937 -10.585  -2.902  1.00  0.00     0.279 HD
HETATM   20  C   UNL     1      42.003  -9.778  -4.451  1.00  0.00     0.269 C 
HETATM   21  C   UNL     1      39.725 -10.744  -4.551  1.00  0.00     0.269 C 
ENDBRANCH  17  18
ENDBRANCH  16  17
ENDBRANCH  13  16
ENDBRANCH  11  12
ENDBRANCH   6  11
BRANCH   7  22
HETATM   22  C   UNL     1      42.594 -16.310   2.633  1.00  0.00    -0.030 C 
HETATM   23  C   UNL     1      42.452 -17.219   3.700  1.00  0.00     0.010 C 
HETATM   24  C   UNL     1      42.965 -18.516   3.604  1.00  0.00     0.008 C 
HETATM   25  C   UNL     1      43.589 -18.951   2.430  1.00  0.00    -0.055 C 
HETATM   26  C   UNL     1      43.556 -18.113   1.310  1.00  0.00     0.008 C 
HETATM   27  C   UNL     1      43.052 -16.814   1.404  1.00  0.00     0.010 C 
BRANCH  25  28
HETATM   28  C   UNL     1      44.361 -20.261   2.417  1.00  0.00     0.010 C 
HETATM   29  C   UNL     1      44.820 -20.694   3.808  1.00  0.00     0.015 C 
HETATM   30  C   UNL     1      43.525 -21.363   1.753  1.00  0.00     0.015 C 
ENDBRANCH  25  28
ENDBRANCH   7  22
BRANCH  10  31
HETATM   31  C   UNL     1      43.024 -13.536   4.935  1.00  0.00     0.294 C 
HETATM   32  O   UNL     1      42.843 -12.325   4.868  1.00  0.00    -0.259 OA
BRANCH  31  33
HETATM   33  O   UNL     1      44.094 -14.220   5.363  1.00  0.00    -0.313 OA
BRANCH  33  34
HETATM   34  C   UNL     1      44.077 -14.598   6.749  1.00  0.00     0.217 C 
BRANCH  34  35
HETATM   35  C   UNL     1      44.056 -16.095   6.866  1.00  0.00    -0.034 A 
HETATM   36  C   UNL     1      42.948 -16.741   7.430  1.00  0.00     0.009 A 
HETATM   37  C   UNL     1      42.919 -18.132   7.534  1.00  0.00     0.001 A 
HETATM   38  C   UNL     1      43.999 -18.888   7.084  1.00  0.00     0.000 A 
HETATM   39  C   UNL     1      45.111 -18.255   6.531  1.00  0.00     0.001 A 
HETATM   40  C   UNL     1      45.142 -16.864   6.425  1.00  0.00     0.009 A 
ENDBRANCH  34  35
ENDBRANCH  33  34
ENDBRANCH  31  33
ENDBRANCH  10  31
TORSDOF 11
ENDMDL
MODEL 3
REMARK VINA RESULT:      -7.6      2.731      6.145
REMARK  11 active torsions:
REMARK  status: ('A' for Active; 'I' for Inactive)
REMARK    1  A    between atoms: C_6  and  C_7 
REMARK    2  A    between atoms: C_7  and  C_8 
REMARK       I    between atoms: C_8  and  N_9 
REMARK    3  A    between atoms: N_9  and  C_10 
REMARK    4  A    between atoms: C_10  and  C_11 
REMARK    5  A    between atoms: C_11  and  N_12 
REMARK    6  A    between atoms: C_17  and  C_18 
REMARK    7  A    between atoms: C_21  and  C_22 
REMARK    8  A    between atoms: C_29  and  C_30 
REMARK    9  A    between atoms: C_30  and  O_31 
REMARK   10  A    between atoms: O_31  and  C_32 
REMARK   11  A    between atoms: C_32  and  C_33 
ROOT
HETATM    1  C   UNL     1      42.059 -12.508   0.583  1.00  0.00     0.071 C 
HETATM    2  C   UNL     1      41.849 -13.482   1.714  1.00  0.00     0.048 C 
HETATM    3  N   UNL     1      42.968 -13.657   2.531  1.00  0.00    -0.229 NA
HETATM    4  C   UNL     1      42.727 -14.014   3.749  1.00  0.00     0.170 C 
HETATM    5  N   UNL     1      41.295 -14.350   4.244  1.00  0.00    -0.319 N 
HETATM    6  C   UNL     1      41.108 -13.857   5.417  1.00  0.00     0.011 C 
HETATM    7  C   UNL     1      40.512 -14.990   3.172  1.00  0.00     0.166 C 
HETATM    8  S   UNL     1      43.813 -13.862   5.082  1.00  0.00    -0.086 SA
HETATM    9  C   UNL     1      42.384 -13.596   6.204  1.00  0.00     0.135 C 
HETATM   10  C   UNL     1      40.663 -14.064   2.006  1.00  0.00     0.069 C 
ENDROOT
BRANCH   6  11
HETATM   11  C   UNL     1      39.741 -13.433   5.864  1.00  0.00     0.156 C 
BRANCH  11  12
HETATM   12  C   UNL     1      39.860 -12.139   6.649  1.00  0.00     0.223 C 
HETATM   13  N   UNL     1      39.533 -12.197   7.978  1.00  0.00    -0.359 N 
HETATM   14  H   UNL     1      39.424 -13.102   8.444  1.00  0.00     0.162 HD
HETATM   15  O   UNL     1      40.080 -11.071   6.083  1.00  0.00    -0.273 OA
BRANCH  13  16
HETATM   16  C   UNL     1      39.147 -11.014   8.763  1.00  0.00     0.150 C 
BRANCH  16  17
HETATM   17  C   UNL     1      40.062 -10.614   9.947  1.00  0.00     0.253 C 
BRANCH  17  18
HETATM   18  N   UNL     1      41.501 -11.058   9.775  1.00  0.00    -0.077 N 
HETATM   19  H   UNL     1      41.475 -12.011   9.360  1.00  0.00     0.279 HD
HETATM   20  C   UNL     1      42.304 -10.220   8.818  1.00  0.00     0.269 C 
HETATM   21  C   UNL     1      42.212 -11.193  11.093  1.00  0.00     0.269 C 
ENDBRANCH  17  18
ENDBRANCH  16  17
ENDBRANCH  13  16
ENDBRANCH  11  12
ENDBRANCH   6  11
BRANCH   7  22
HETATM   22  C   UNL     1      41.095 -16.401   2.968  1.00  0.00    -0.030 C 
HETATM   23  C   UNL     1      41.474 -17.167   4.088  1.00  0.00     0.010 C 
HETATM   24  C   UNL     1      42.361 -18.237   3.952  1.00  0.00     0.008 C 
HETATM   25  C   UNL     1      42.856 -18.598   2.694  1.00  0.00    -0.055 C 
HETATM   26  C   UNL     1      42.330 -17.961   1.565  1.00  0.00     0.008 C 
HETATM   27  C   UNL     1      41.449 -16.885   1.697  1.00  0.00     0.010 C 
BRANCH  25  28
HETATM   28  C   UNL     1      44.003 -19.590   2.581  1.00  0.00     0.010 C 
HETATM   29  C   UNL     1      44.599 -19.967   3.937  1.00  0.00     0.015 C 
HETATM   30  C   UNL     1      43.548 -20.843   1.821  1.00  0.00     0.015 C 
ENDBRANCH  25  28
ENDBRANCH   7  22
BRANCH  10  31
HETATM   31  C   UNL     1      39.383 -13.543   1.524  1.00  0.00     0.294 C 
HETATM   32  O   UNL     1      38.791 -12.712   2.203  1.00  0.00    -0.259 OA
BRANCH  31  33
HETATM   33  O   UNL     1      38.964 -14.228   0.451  1.00  0.00    -0.313 OA
BRANCH  33  34
HETATM   34  C   UNL     1      38.747 -13.449  -0.737  1.00  0.00     0.217 C 
BRANCH  34  35
HETATM   35  C   UNL     1      38.897 -14.323  -1.949  1.00  0.00    -0.034 A 
HETATM   36  C   UNL     1      40.114 -14.970  -2.205  1.00  0.00     0.009 A 
HETATM   37  C   UNL     1      40.257 -15.790  -3.324  1.00  0.00     0.001 A 
HETATM   38  C   UNL     1      39.189 -15.964  -4.202  1.00  0.00     0.000 A 
HETATM   39  C   UNL     1      37.978 -15.318  -3.964  1.00  0.00     0.001 A 
HETATM   40  C   UNL     1      37.831 -14.498  -2.845  1.00  0.00     0.009 A 
ENDBRANCH  34  35
ENDBRANCH  33  34
ENDBRANCH  31  33
ENDBRANCH  10  31
TORSDOF 11
ENDMDL
MODEL 4
REMARK VINA RESULT:      -7.2      2.980      6.163
REMARK  11 active torsions:
REMARK  status: ('A' for Active; 'I' for Inactive)
REMARK    1  A    between atoms: C_6  and  C_7 
REMARK    2  A    between atoms: C_7  and  C_8 
REMARK       I    between atoms: C_8  and  N_9 
REMARK    3  A    between atoms: N_9  and  C_10 
REMARK    4  A    between atoms: C_10  and  C_11 
REMARK    5  A    between atoms: C_11  and  N_12 
REMARK    6  A    between atoms: C_17  and  C_18 
REMARK    7  A    between atoms: C_21  and  C_22 
REMARK    8  A    between atoms: C_29  and  C_30 
REMARK    9  A    between atoms: C_30  and  O_31 
REMARK   10  A    between atoms: O_31  and  C_32 
REMARK   11  A    between atoms: C_32  and  C_33 
ROOT
HETATM    1  C   UNL     1      42.727 -12.257  -1.454  1.00  0.00     0.071 C 
HETATM    2  C   UNL     1      42.089 -12.337  -0.091  1.00  0.00     0.048 C 
HETATM    3  N   UNL     1      41.989 -11.108   0.566  1.00  0.00    -0.229 NA
HETATM    4  C   UNL     1      41.031 -11.004   1.426  1.00  0.00     0.170 C 
HETATM    5  N   UNL     1      40.124 -12.205   1.802  1.00  0.00    -0.319 N 
HETATM    6  C   UNL     1      38.902 -11.818   1.902  1.00  0.00     0.011 C 
HETATM    7  C   UNL     1      40.891 -13.463   1.775  1.00  0.00     0.166 C 
HETATM    8  S   UNL     1      40.374  -9.529   2.035  1.00  0.00    -0.086 SA
HETATM    9  C   UNL     1      38.729 -10.332   2.179  1.00  0.00     0.135 C 
HETATM   10  C   UNL     1      41.549 -13.462   0.431  1.00  0.00     0.069 C 
ENDROOT
BRANCH   6  11
HETATM   11  C   UNL     1      37.771 -12.754   1.597  1.00  0.00     0.156 C 
BRANCH  11  12
HETATM   12  C   UNL     1      37.161 -12.370   0.260  1.00  0.00     0.223 C 
HETATM   13  N   UNL     1      37.887 -12.687  -0.857  1.00  0.00    -0.359 N 
HETATM   14  H   UNL     1      38.681 -13.329  -0.792  1.00  0.00     0.162 HD
HETATM   15  O   UNL     1      36.153 -11.670   0.201  1.00  0.00    -0.273 OA
BRANCH  13  16
HETATM   16  C   UNL     1      37.703 -12.013  -2.152  1.00  0.00     0.150 C 
BRANCH  16  17
HETATM   17  C   UNL     1      38.409 -12.632  -3.384  1.00  0.00     0.253 C 
BRANCH  17  18
HETATM   18  N   UNL     1      37.533 -13.589  -4.167  1.00  0.00    -0.077 N 
HETATM   19  H   UNL     1      37.962 -13.689  -5.109  1.00  0.00     0.279 HD
HETATM   20  C   UNL     1      37.467 -14.982  -3.602  1.00  0.00     0.269 C 
HETATM   21  C   UNL     1      36.152 -13.038  -4.389  1.00  0.00     0.269 C 
ENDBRANCH  17  18
ENDBRANCH  16  17
ENDBRANCH  13  16
ENDBRANCH  11  12
ENDBRANCH   6  11
BRANCH   7  22
HETATM   22  C   UNL     1      41.854 -13.430   2.976  1.00  0.00    -0.030 C 
HETATM   23  C   UNL     1      43.189 -13.849   2.811  1.00  0.00     0.010 C 
HETATM   24  C   UNL     1      43.959 -14.223   3.915  1.00  0.00     0.008 C 
HETATM   25  C   UNL     1      43.435 -14.146   5.210  1.00  0.00    -0.055 C 
HETATM   26  C   UNL     1      42.182 -13.550   5.385  1.00  0.00     0.008 C 
HETATM   27  C   UNL     1      41.405 -13.182   4.285  1.00  0.00     0.010 C 
BRANCH  25  28
HETATM   28  C   UNL     1      44.178 -14.785   6.373  1.00  0.00     0.010 C 
HETATM   29  C   UNL     1      44.616 -13.771   7.428  1.00  0.00     0.015 C 
HETATM   30  C   UNL     1      43.323 -15.892   7.005  1.00  0.00     0.015 C 
ENDBRANCH  25  28
ENDBRANCH   7  22
BRANCH  10  31
HETATM   31  C   UNL     1      41.173 -14.616  -0.388  1.00  0.00     0.294 C 
HETATM   32  O   UNL     1      40.129 -14.570  -1.028  1.00  0.00    -0.259 OA
BRANCH  31  33
HETATM   33  O   UNL     1      41.987 -15.653  -0.149  1.00  0.00    -0.313 OA
BRANCH  33  34
HETATM   34  C   UNL     1      41.351 -16.838   0.358  1.00  0.00     0.217 C 
BRANCH  34  35
HETATM   35  C   UNL     1      41.988 -17.239   1.657  1.00  0.00    -0.034 A 
HETATM   36  C   UNL     1      43.287 -17.766   1.671  1.00  0.00     0.009 A 
HETATM   37  C   UNL     1      43.887 -18.132   2.876  1.00  0.00     0.001 A 
HETATM   38  C   UNL     1      43.194 -17.983   4.075  1.00  0.00     0.000 A 
HETATM   39  C   UNL     1      41.898 -17.469   4.072  1.00  0.00     0.001 A 
HETATM   40  C   UNL     1      41.295 -17.102   2.869  1.00  0.00     0.009 A 
ENDBRANCH  34  35
ENDBRANCH  33  34
ENDBRANCH  31  33
ENDBRANCH  10  31
TORSDOF 11
ENDMDL
MODEL 5
REMARK VINA RESULT:      -7.1      3.566      5.830
REMARK  11 active torsions:
REMARK  status: ('A' for Active; 'I' for Inactive)
REMARK    1  A    between atoms: C_6  and  C_7 
REMARK    2  A    between atoms: C_7  and  C_8 
REMARK       I    between atoms: C_8  and  N_9 
REMARK    3  A    between atoms: N_9  and  C_10 
REMARK    4  A    between atoms: C_10  and  C_11 
REMARK    5  A    between atoms: C_11  and  N_12 
REMARK    6  A    between atoms: C_17  and  C_18 
REMARK    7  A    between atoms: C_21  and  C_22 
REMARK    8  A    between atoms: C_29  and  C_30 
REMARK    9  A    between atoms: C_30  and  O_31 
REMARK   10  A    between atoms: O_31  and  C_32 
REMARK   11  A    between atoms: C_32  and  C_33 
ROOT
HETATM    1  C   UNL     1      42.630 -12.024  -1.435  1.00  0.00     0.071 C 
HETATM    2  C   UNL     1      41.935 -12.140  -0.103  1.00  0.00     0.048 C 
HETATM    3  N   UNL     1      41.877 -10.945   0.617  1.00  0.00    -0.229 NA
HETATM    4  C   UNL     1      40.893 -10.831   1.446  1.00  0.00     0.170 C 
HETATM    5  N   UNL     1      39.906 -11.996   1.721  1.00  0.00    -0.319 N 
HETATM    6  C   UNL     1      38.704 -11.544   1.797  1.00  0.00     0.011 C 
HETATM    7  C   UNL     1      40.601 -13.294   1.651  1.00  0.00     0.166 C 
HETATM    8  S   UNL     1      40.295  -9.355   2.111  1.00  0.00    -0.086 SA
HETATM    9  C   UNL     1      38.604 -10.068   2.150  1.00  0.00     0.135 C 
HETATM   10  C   UNL     1      41.312 -13.258   0.335  1.00  0.00     0.069 C 
ENDROOT
BRANCH   6  11
HETATM   11  C   UNL     1      37.535 -12.395   1.398  1.00  0.00     0.156 C 
BRANCH  11  12
HETATM   12  C   UNL     1      36.584 -11.563   0.557  1.00  0.00     0.223 C 
HETATM   13  N   UNL     1      35.404 -11.197   1.149  1.00  0.00    -0.359 N 
HETATM   14  H   UNL     1      35.279 -11.303   2.160  1.00  0.00     0.162 HD
HETATM   15  O   UNL     1      36.796 -11.370  -0.638  1.00  0.00    -0.273 OA
BRANCH  13  16
HETATM   16  C   UNL     1      34.207 -10.813   0.385  1.00  0.00     0.150 C 
BRANCH  16  17
HETATM   17  C   UNL     1      32.921 -10.496   1.187  1.00  0.00     0.253 C 
BRANCH  17  18
HETATM   18  N   UNL     1      33.094 -10.632   2.687  1.00  0.00    -0.077 N 
HETATM   19  H   UNL     1      33.926 -11.236   2.840  1.00  0.00     0.279 HD
HETATM   20  C   UNL     1      33.394  -9.342   3.401  1.00  0.00     0.269 C 
HETATM   21  C   UNL     1      31.934 -11.341   3.329  1.00  0.00     0.269 C 
ENDBRANCH  17  18
ENDBRANCH  16  17
ENDBRANCH  13  16
ENDBRANCH  11  12
ENDBRANCH   6  11
BRANCH   7  22
HETATM   22  C   UNL     1      41.515 -13.381   2.887  1.00  0.00    -0.030 C 
HETATM   23  C   UNL     1      42.881 -13.685   2.724  1.00  0.00     0.010 C 
HETATM   24  C   UNL     1      43.635 -14.172   3.794  1.00  0.00     0.008 C 
HETATM   25  C   UNL     1      43.061 -14.325   5.061  1.00  0.00    -0.055 C 
HETATM   26  C   UNL     1      41.764 -13.841   5.265  1.00  0.00     0.008 C 
HETATM   27  C   UNL     1      41.004 -13.362   4.196  1.00  0.00     0.010 C 
BRANCH  25  28
HETATM   28  C   UNL     1      43.804 -15.084   6.150  1.00  0.00     0.010 C 
HETATM   29  C   UNL     1      44.429 -14.162   7.195  1.00  0.00     0.015 C 
HETATM   30  C   UNL     1      42.872 -16.106   6.814  1.00  0.00     0.015 C 
ENDBRANCH  25  28
ENDBRANCH   7  22
BRANCH  10  31
HETATM   31  C   UNL     1      40.904 -14.343  -0.561  1.00  0.00     0.294 C 
HETATM   32  O   UNL     1      39.801 -14.287  -1.090  1.00  0.00    -0.259 OA
BRANCH  31  33
HETATM   33  O   UNL     1      41.781 -15.355  -0.510  1.00  0.00    -0.313 OA
BRANCH  33  34
HETATM   34  C   UNL     1      41.253 -16.613  -0.061  1.00  0.00     0.217 C 
BRANCH  34  35
HETATM   35  C   UNL     1      41.958 -17.040   1.194  1.00  0.00    -0.034 A 
HETATM   36  C   UNL     1      43.320 -17.370   1.158  1.00  0.00     0.009 A 
HETATM   37  C   UNL     1      43.983 -17.759   2.322  1.00  0.00     0.001 A 
HETATM   38  C   UNL     1      43.291 -17.830   3.529  1.00  0.00     0.000 A 
HETATM   39  C   UNL     1      41.935 -17.515   3.574  1.00  0.00     0.001 A 
HETATM   40  C   UNL     1      41.269 -17.125   2.412  1.00  0.00     0.009 A 
ENDBRANCH  34  35
ENDBRANCH  33  34
ENDBRANCH  31  33
ENDBRANCH  10  31
TORSDOF 11
ENDMDL
MODEL 6
REMARK VINA RESULT:      -7.1      2.024      2.957
REMARK  11 active torsions:
REMARK  status: ('A' for Active; 'I' for Inactive)
REMARK    1  A    between atoms: C_6  and  C_7 
REMARK    2  A    between atoms: C_7  and  C_8 
REMARK       I    between atoms: C_8  and  N_9 
REMARK    3  A    between atoms: N_9  and  C_10 
REMARK    4  A    between atoms: C_10  and  C_11 
REMARK    5  A    between atoms: C_11  and  N_12 
REMARK    6  A    between atoms: C_17  and  C_18 
REMARK    7  A    between atoms: C_21  and  C_22 
REMARK    8  A    between atoms: C_29  and  C_30 
REMARK    9  A    between atoms: C_30  and  O_31 
REMARK   10  A    between atoms: O_31  and  C_32 
REMARK   11  A    between atoms: C_32  and  C_33 
ROOT
HETATM    1  C   UNL     1      40.445 -16.180   6.567  1.00  0.00     0.071 C 
HETATM    2  C   UNL     1      41.252 -16.257   5.297  1.00  0.00     0.048 C 
HETATM    3  N   UNL     1      40.618 -16.944   4.259  1.00  0.00    -0.229 NA
HETATM    4  C   UNL     1      40.966 -16.605   3.062  1.00  0.00     0.170 C 
HETATM    5  N   UNL     1      42.107 -15.589   2.790  1.00  0.00    -0.319 N 
HETATM    6  C   UNL     1      41.772 -14.799   1.832  1.00  0.00     0.011 C 
HETATM    7  C   UNL     1      43.167 -15.714   3.806  1.00  0.00     0.166 C 
HETATM    8  S   UNL     1      40.070 -16.915   1.620  1.00  0.00    -0.086 SA
HETATM    9  C   UNL     1      40.707 -15.352   0.898  1.00  0.00     0.135 C 
HETATM   10  C   UNL     1      42.437 -15.632   5.109  1.00  0.00     0.069 C 
ENDROOT
BRANCH   6  11
HETATM   11  C   UNL     1      42.292 -13.393   1.777  1.00  0.00     0.156 C 
BRANCH  11  12
HETATM   12  C   UNL     1      41.191 -12.444   2.216  1.00  0.00     0.223 C 
HETATM   13  N   UNL     1      40.916 -12.403   3.557  1.00  0.00    -0.359 N 
HETATM   14  H   UNL     1      41.561 -12.828   4.229  1.00  0.00     0.162 HD
HETATM   15  O   UNL     1      40.482 -11.871   1.392  1.00  0.00    -0.273 OA
BRANCH  13  16
HETATM   16  C   UNL     1      39.635 -11.927   4.101  1.00  0.00     0.150 C 
BRANCH  16  17
HETATM   17  C   UNL     1      39.687 -10.831   5.193  1.00  0.00     0.253 C 
BRANCH  17  18
HETATM   18  N   UNL     1      40.014 -11.367   6.573  1.00  0.00    -0.077 N 
HETATM   19  H   UNL     1      41.032 -11.578   6.581  1.00  0.00     0.279 HD
HETATM   20  C   UNL     1      39.794 -10.387   7.693  1.00  0.00     0.269 C 
HETATM   21  C   UNL     1      39.312 -12.667   6.855  1.00  0.00     0.269 C 
ENDBRANCH  17  18
ENDBRANCH  16  17
ENDBRANCH  13  16
ENDBRANCH  11  12
ENDBRANCH   6  11
BRANCH   7  22
HETATM   22  C   UNL     1      43.889 -17.049   3.542  1.00  0.00    -0.030 C 
HETATM   23  C   UNL     1      44.088 -17.483   2.217  1.00  0.00     0.010 C 
HETATM   24  C   UNL     1      44.349 -18.828   1.940  1.00  0.00     0.008 C 
HETATM   25  C   UNL     1      44.463 -19.761   2.976  1.00  0.00    -0.055 C 
HETATM   26  C   UNL     1      44.457 -19.293   4.294  1.00  0.00     0.008 C 
HETATM   27  C   UNL     1      44.188 -17.952   4.576  1.00  0.00     0.010 C 
BRANCH  25  28
HETATM   28  C   UNL     1      44.495 -21.249   2.663  1.00  0.00     0.010 C 
HETATM   29  C   UNL     1      44.515 -22.119   3.917  1.00  0.00     0.015 C 
HETATM   30  C   UNL     1      43.314 -21.626   1.758  1.00  0.00     0.015 C 
ENDBRANCH  25  28
ENDBRANCH   7  22
BRANCH  10  31
HETATM   31  C   UNL     1      42.887 -14.517   5.944  1.00  0.00     0.294 C 
HETATM   32  O   UNL     1      42.539 -13.380   5.647  1.00  0.00    -0.259 OA
BRANCH  31  33
HETATM   33  O   UNL     1      43.796 -14.929   6.837  1.00  0.00    -0.313 OA
BRANCH  33  34
HETATM   34  C   UNL     1      45.124 -14.408   6.659  1.00  0.00     0.217 C 
BRANCH  34  35
HETATM   35  C   UNL     1      45.367 -13.295   7.637  1.00  0.00    -0.034 A 
HETATM   36  C   UNL     1      44.408 -12.995   8.615  1.00  0.00     0.009 A 
HETATM   37  C   UNL     1      44.632 -11.968   9.531  1.00  0.00     0.001 A 
HETATM   38  C   UNL     1      45.810 -11.227   9.476  1.00  0.00     0.000 A 
HETATM   39  C   UNL     1      46.766 -11.510   8.502  1.00  0.00     0.001 A 
HETATM   40  C   UNL     1      46.546 -12.537   7.584  1.00  0.00     0.009 A 
ENDBRANCH  34  35
ENDBRANCH  33  34
ENDBRANCH  31  33
ENDBRANCH  10  31
TORSDOF 11
ENDMDL
MODEL 7
REMARK VINA RESULT:      -7.0      2.567      6.013
REMARK  11 active torsions:
REMARK  status: ('A' for Active; 'I' for Inactive)
REMARK    1  A    between atoms: C_6  and  C_7 
REMARK    2  A    between atoms: C_7  and  C_8 
REMARK       I    between atoms: C_8  and  N_9 
REMARK    3  A    between atoms: N_9  and  C_10 
REMARK    4  A    between atoms: C_10  and  C_11 
REMARK    5  A    between atoms: C_11  and  N_12 
REMARK    6  A    between atoms: C_17  and  C_18 
REMARK    7  A    between atoms: C_21  and  C_22 
REMARK    8  A    between atoms: C_29  and  C_30 
REMARK    9  A    between atoms: C_30  and  O_31 
REMARK   10  A    between atoms: O_31  and  C_32 
REMARK   11  A    between atoms: C_32  and  C_33 
ROOT
HETATM    1  C   UNL     1      42.027 -12.461   0.572  1.00  0.00     0.071 C 
HETATM    2  C   UNL     1      41.794 -13.439   1.695  1.00  0.00     0.048 C 
HETATM    3  N   UNL     1      42.890 -13.603   2.546  1.00  0.00    -0.229 NA
HETATM    4  C   UNL     1      42.617 -13.964   3.755  1.00  0.00     0.170 C 
HETATM    5  N   UNL     1      41.175 -14.317   4.207  1.00  0.00    -0.319 N 
HETATM    6  C   UNL     1      40.947 -13.828   5.374  1.00  0.00     0.011 C 
HETATM    7  C   UNL     1      40.432 -14.964   3.110  1.00  0.00     0.166 C 
HETATM    8  S   UNL     1      43.660 -13.801   5.121  1.00  0.00    -0.086 SA
HETATM    9  C   UNL     1      42.195 -13.553   6.199  1.00  0.00     0.135 C 
HETATM   10  C   UNL     1      40.607 -14.035   1.951  1.00  0.00     0.069 C 
ENDROOT
BRANCH   6  11
HETATM   11  C   UNL     1      39.562 -13.420   5.780  1.00  0.00     0.156 C 
BRANCH  11  12
HETATM   12  C   UNL     1      39.417 -11.920   5.597  1.00  0.00     0.223 C 
HETATM   13  N   UNL     1      39.739 -11.420   4.363  1.00  0.00    -0.359 N 
HETATM   14  H   UNL     1      39.860 -12.051   3.566  1.00  0.00     0.162 HD
HETATM   15  O   UNL     1      39.183 -11.183   6.552  1.00  0.00    -0.273 OA
BRANCH  13  16
HETATM   16  C   UNL     1      40.100 -10.012   4.135  1.00  0.00     0.150 C 
BRANCH  16  17
HETATM   17  C   UNL     1      40.703  -9.646   2.756  1.00  0.00     0.253 C 
BRANCH  17  18
HETATM   18  N   UNL     1      39.722  -8.953   1.832  1.00  0.00    -0.077 N 
HETATM   19  H   UNL     1      40.157  -8.050   1.554  1.00  0.00     0.279 HD
HETATM   20  C   UNL     1      39.451  -9.685   0.546  1.00  0.00     0.269 C 
HETATM   21  C   UNL     1      38.437  -8.604   2.530  1.00  0.00     0.269 C 
ENDBRANCH  17  18
ENDBRANCH  16  17
ENDBRANCH  13  16
ENDBRANCH  11  12
ENDBRANCH   6  11
BRANCH   7  22
HETATM   22  C   UNL     1      41.037 -16.368   2.923  1.00  0.00    -0.030 C 
HETATM   23  C   UNL     1      41.394 -17.130   4.053  1.00  0.00     0.010 C 
HETATM   24  C   UNL     1      42.297 -18.189   3.941  1.00  0.00     0.008 C 
HETATM   25  C   UNL     1      42.830 -18.544   2.698  1.00  0.00    -0.055 C 
HETATM   26  C   UNL     1      42.327 -17.913   1.555  1.00  0.00     0.008 C 
HETATM   27  C   UNL     1      41.430 -16.848   1.663  1.00  0.00     0.010 C 
BRANCH  25  28
HETATM   28  C   UNL     1      43.992 -19.523   2.616  1.00  0.00     0.010 C 
HETATM   29  C   UNL     1      44.550 -19.897   3.987  1.00  0.00     0.015 C 
HETATM   30  C   UNL     1      43.574 -20.778   1.838  1.00  0.00     0.015 C 
ENDBRANCH  25  28
ENDBRANCH   7  22
BRANCH  10  31
HETATM   31  C   UNL     1      39.336 -13.528   1.431  1.00  0.00     0.294 C 
HETATM   32  O   UNL     1      38.699 -12.728   2.107  1.00  0.00    -0.259 OA
BRANCH  31  33
HETATM   33  O   UNL     1      38.976 -14.192   0.324  1.00  0.00    -0.313 OA
BRANCH  33  34
HETATM   34  C   UNL     1      38.952 -13.416  -0.886  1.00  0.00     0.217 C 
BRANCH  34  35
HETATM   35  C   UNL     1      38.952 -14.334  -2.075  1.00  0.00    -0.034 A 
HETATM   36  C   UNL     1      37.791 -14.489  -2.844  1.00  0.00     0.009 A 
HETATM   37  C   UNL     1      37.787 -15.333  -3.954  1.00  0.00     0.001 A 
HETATM   38  C   UNL     1      38.939 -16.035  -4.302  1.00  0.00     0.000 A 
HETATM   39  C   UNL     1      40.096 -15.896  -3.538  1.00  0.00     0.001 A 
HETATM   40  C   UNL     1      40.104 -15.052  -2.428  1.00  0.00     0.009 A 
ENDBRANCH  34  35
ENDBRANCH  33  34
ENDBRANCH  31  33
ENDBRANCH  10  31
TORSDOF 11
ENDMDL
MODEL 8
REMARK VINA RESULT:      -6.8      2.436      6.542
REMARK  11 active torsions:
REMARK  status: ('A' for Active; 'I' for Inactive)
REMARK    1  A    between atoms: C_6  and  C_7 
REMARK    2  A    between atoms: C_7  and  C_8 
REMARK       I    between atoms: C_8  and  N_9 
REMARK    3  A    between atoms: N_9  and  C_10 
REMARK    4  A    between atoms: C_10  and  C_11 
REMARK    5  A    between atoms: C_11  and  N_12 
REMARK    6  A    between atoms: C_17  and  C_18 
REMARK    7  A    between atoms: C_21  and  C_22 
REMARK    8  A    between atoms: C_29  and  C_30 
REMARK    9  A    between atoms: C_30  and  O_31 
REMARK   10  A    between atoms: O_31  and  C_32 
REMARK   11  A    between atoms: C_32  and  C_33 
ROOT
HETATM    1  C   UNL     1      39.519 -16.996   2.187  1.00  0.00     0.071 C 
HETATM    2  C   UNL     1      40.268 -15.689   2.204  1.00  0.00     0.048 C 
HETATM    3  N   UNL     1      39.571 -14.639   2.808  1.00  0.00    -0.229 NA
HETATM    4  C   UNL     1      40.296 -13.704   3.325  1.00  0.00     0.170 C 
HETATM    5  N   UNL     1      41.840 -13.678   3.179  1.00  0.00    -0.319 N 
HETATM    6  C   UNL     1      42.382 -13.326   4.291  1.00  0.00     0.011 C 
HETATM    7  C   UNL     1      42.247 -14.219   1.869  1.00  0.00     0.166 C 
HETATM    8  S   UNL     1      39.776 -12.556   4.505  1.00  0.00    -0.086 SA
HETATM    9  C   UNL     1      41.470 -12.534   5.215  1.00  0.00     0.135 C 
HETATM   10  C   UNL     1      41.545 -15.538   1.784  1.00  0.00     0.069 C 
ENDROOT
BRANCH   6  11
HETATM   11  C   UNL     1      43.744 -13.821   4.674  1.00  0.00     0.156 C 
BRANCH  11  12
HETATM   12  C   UNL     1      43.613 -14.744   5.873  1.00  0.00     0.223 C 
HETATM   13  N   UNL     1      42.767 -15.812   5.733  1.00  0.00    -0.359 N 
HETATM   14  H   UNL     1      42.420 -16.078   4.807  1.00  0.00     0.162 HD
HETATM   15  O   UNL     1      44.113 -14.452   6.956  1.00  0.00    -0.273 OA
BRANCH  13  16
HETATM   16  C   UNL     1      42.170 -16.520   6.876  1.00  0.00     0.150 C 
BRANCH  16  17
HETATM   17  C   UNL     1      43.112 -17.380   7.753  1.00  0.00     0.253 C 
BRANCH  17  18
HETATM   18  N   UNL     1      43.926 -18.385   6.962  1.00  0.00    -0.077 N 
HETATM   19  H   UNL     1      43.510 -18.426   6.009  1.00  0.00     0.279 HD
HETATM   20  C   UNL     1      45.366 -18.004   6.759  1.00  0.00     0.269 C 
HETATM   21  C   UNL     1      43.815 -19.774   7.528  1.00  0.00     0.269 C 
ENDBRANCH  17  18
ENDBRANCH  16  17
ENDBRANCH  13  16
ENDBRANCH  11  12
ENDBRANCH   6  11
BRANCH   7  22
HETATM   22  C   UNL     1      41.830 -13.186   0.806  1.00  0.00    -0.030 C 
HETATM   23  C   UNL     1      41.251 -13.623  -0.402  1.00  0.00     0.010 C 
HETATM   24  C   UNL     1      41.242 -12.796  -1.528  1.00  0.00     0.008 C 
HETATM   25  C   UNL     1      41.767 -11.501  -1.465  1.00  0.00    -0.055 C 
HETATM   26  C   UNL     1      42.163 -11.003  -0.219  1.00  0.00     0.008 C 
HETATM   27  C   UNL     1      42.182 -11.829   0.907  1.00  0.00     0.010 C 
BRANCH  25  28
HETATM   28  C   UNL     1      41.984 -10.703  -2.742  1.00  0.00     0.010 C 
HETATM   29  C   UNL     1      43.005  -9.580  -2.575  1.00  0.00     0.015 C 
HETATM   30  C   UNL     1      42.387 -11.638  -3.890  1.00  0.00     0.015 C 
ENDBRANCH  25  28
ENDBRANCH   7  22
BRANCH  10  31
HETATM   31  C   UNL     1      42.468 -16.664   1.630  1.00  0.00     0.294 C 
HETATM   32  O   UNL     1      42.847 -16.968   0.505  1.00  0.00    -0.259 OA
BRANCH  31  33
HETATM   33  O   UNL     1      42.614 -17.320   2.790  1.00  0.00    -0.313 OA
BRANCH  33  34
HETATM   34  C   UNL     1      43.950 -17.754   3.095  1.00  0.00     0.217 C 
BRANCH  34  35
HETATM   35  C   UNL     1      44.039 -19.248   2.965  1.00  0.00    -0.034 A 
HETATM   36  C   UNL     1      43.480 -19.892   1.852  1.00  0.00     0.009 A 
HETATM   37  C   UNL     1      43.567 -21.278   1.721  1.00  0.00     0.001 A 
HETATM   38  C   UNL     1      44.205 -22.033   2.703  1.00  0.00     0.000 A 
HETATM   39  C   UNL     1      44.754 -21.404   3.819  1.00  0.00     0.001 A 
HETATM   40  C   UNL     1      44.670 -20.018   3.952  1.00  0.00     0.009 A 
ENDBRANCH  34  35
ENDBRANCH  33  34
ENDBRANCH  31  33
ENDBRANCH  10  31
TORSDOF 11
ENDMDL
MODEL 9
REMARK VINA RESULT:      -6.7      2.678      5.592
REMARK  11 active torsions:
REMARK  status: ('A' for Active; 'I' for Inactive)
REMARK    1  A    between atoms: C_6  and  C_7 
REMARK    2  A    between atoms: C_7  and  C_8 
REMARK       I    between atoms: C_8  and  N_9 
REMARK    3  A    between atoms: N_9  and  C_10 
REMARK    4  A    between atoms: C_10  and  C_11 
REMARK    5  A    between atoms: C_11  and  N_12 
REMARK    6  A    between atoms: C_17  and  C_18 
REMARK    7  A    between atoms: C_21  and  C_22 
REMARK    8  A    between atoms: C_29  and  C_30 
REMARK    9  A    between atoms: C_30  and  O_31 
REMARK   10  A    between atoms: O_31  and  C_32 
REMARK   11  A    between atoms: C_32  and  C_33 
ROOT
HETATM    1  C   UNL     1      41.445 -15.461  -0.587  1.00  0.00     0.071 C 
HETATM    2  C   UNL     1      41.341 -14.448   0.523  1.00  0.00     0.048 C 
HETATM    3  N   UNL     1      42.006 -13.247   0.264  1.00  0.00    -0.229 NA
HETATM    4  C   UNL     1      41.541 -12.202   0.865  1.00  0.00     0.170 C 
HETATM    5  N   UNL     1      40.397 -12.291   1.909  1.00  0.00    -0.319 N 
HETATM    6  C   UNL     1      39.572 -11.319   1.741  1.00  0.00     0.011 C 
HETATM    7  C   UNL     1      40.492 -13.544   2.679  1.00  0.00     0.166 C 
HETATM    8  S   UNL     1      41.828 -10.562   0.413  1.00  0.00    -0.086 SA
HETATM    9  C   UNL     1      40.157 -10.111   1.024  1.00  0.00     0.135 C 
HETATM   10  C   UNL     1      40.586 -14.611   1.634  1.00  0.00     0.069 C 
ENDROOT
BRANCH   6  11
HETATM   11  C   UNL     1      38.121 -11.471   2.087  1.00  0.00     0.156 C 
BRANCH  11  12
HETATM   12  C   UNL     1      37.352 -11.839   0.831  1.00  0.00     0.223 C 
HETATM   13  N   UNL     1      37.902 -12.812   0.039  1.00  0.00    -0.359 N 
HETATM   14  H   UNL     1      38.668 -13.393   0.392  1.00  0.00     0.162 HD
HETATM   15  O   UNL     1      36.378 -11.183   0.468  1.00  0.00    -0.273 OA
BRANCH  13  16
HETATM   16  C   UNL     1      37.573 -12.970  -1.386  1.00  0.00     0.150 C 
BRANCH  16  17
HETATM   17  C   UNL     1      38.700 -13.463  -2.327  1.00  0.00     0.253 C 
BRANCH  17  18
HETATM   18  N   UNL     1      39.913 -12.554  -2.347  1.00  0.00    -0.077 N 
HETATM   19  H   UNL     1      40.334 -12.593  -1.397  1.00  0.00     0.279 HD
HETATM   20  C   UNL     1      41.001 -12.984  -3.292  1.00  0.00     0.269 C 
HETATM   21  C   UNL     1      39.538 -11.116  -2.582  1.00  0.00     0.269 C 
ENDBRANCH  17  18
ENDBRANCH  16  17
ENDBRANCH  13  16
ENDBRANCH  11  12
ENDBRANCH   6  11
BRANCH   7  22
HETATM   22  C   UNL     1      41.722 -13.416   3.597  1.00  0.00    -0.030 C 
HETATM   23  C   UNL     1      42.905 -14.111   3.278  1.00  0.00     0.010 C 
HETATM   24  C   UNL     1      43.873 -14.357   4.255  1.00  0.00     0.008 C 
HETATM   25  C   UNL     1      43.706 -13.879   5.560  1.00  0.00    -0.055 C 
HETATM   26  C   UNL     1      42.628 -13.028   5.823  1.00  0.00     0.008 C 
HETATM   27  C   UNL     1      41.654 -12.787   4.851  1.00  0.00     0.010 C 
BRANCH  25  28
HETATM   28  C   UNL     1      44.628 -14.358   6.671  1.00  0.00     0.010 C 
HETATM   29  C   UNL     1      44.739 -13.360   7.822  1.00  0.00     0.015 C 
HETATM   30  C   UNL     1      44.171 -15.731   7.184  1.00  0.00     0.015 C 
ENDBRANCH  25  28
ENDBRANCH   7  22
BRANCH  10  31
HETATM   31  C   UNL     1      39.499 -15.587   1.718  1.00  0.00     0.294 C 
HETATM   32  O   UNL     1      38.341 -15.187   1.678  1.00  0.00    -0.259 OA
BRANCH  31  33
HETATM   33  O   UNL     1      39.975 -16.803   2.019  1.00  0.00    -0.313 OA
BRANCH  33  34
HETATM   34  C   UNL     1      40.633 -16.916   3.292  1.00  0.00     0.217 C 
BRANCH  34  35
HETATM   35  C   UNL     1      41.922 -17.670   3.131  1.00  0.00    -0.034 A 
HETATM   36  C   UNL     1      42.295 -18.166   1.873  1.00  0.00     0.009 A 
HETATM   37  C   UNL     1      43.494 -18.860   1.716  1.00  0.00     0.001 A 
HETATM   38  C   UNL     1      44.328 -19.072   2.812  1.00  0.00     0.000 A 
HETATM   39  C   UNL     1      43.962 -18.593   4.068  1.00  0.00     0.001 A 
HETATM   40  C   UNL     1      42.763 -17.898   4.229  1.00  0.00     0.009 A 
ENDBRANCH  34  35
ENDBRANCH  33  34
ENDBRANCH  31  33
ENDBRANCH  10  31
TORSDOF 11
ENDMDL
MODEL 10
REMARK VINA RESULT:      -6.5      2.240      3.777
REMARK  11 active torsions:
REMARK  status: ('A' for Active; 'I' for Inactive)
REMARK    1  A    between atoms: C_6  and  C_7 
REMARK    2  A    between atoms: C_7  and  C_8 
REMARK       I    between atoms: C_8  and  N_9 
REMARK    3  A    between atoms: N_9  and  C_10 
REMARK    4  A    between atoms: C_10  and  C_11 
REMARK    5  A    between atoms: C_11  and  N_12 
REMARK    6  A    between atoms: C_17  and  C_18 
REMARK    7  A    between atoms: C_21  and  C_22 
REMARK    8  A    between atoms: C_29  and  C_30 
REMARK    9  A    between atoms: C_30  and  O_31 
REMARK   10  A    between atoms: O_31  and  C_32 
REMARK   11  A    between atoms: C_32  and  C_33 
ROOT
HETATM    1  C   UNL     1      40.380 -14.047   6.272  1.00  0.00     0.071 C 
HETATM    2  C   UNL     1      40.866 -14.555   4.939  1.00  0.00     0.048 C 
HETATM    3  N   UNL     1      39.853 -15.046   4.112  1.00  0.00    -0.229 NA
HETATM    4  C   UNL     1      40.083 -14.988   2.842  1.00  0.00     0.170 C 
HETATM    5  N   UNL     1      41.447 -14.520   2.270  1.00  0.00    -0.319 N 
HETATM    6  C   UNL     1      41.259 -13.761   1.249  1.00  0.00     0.011 C 
HETATM    7  C   UNL     1      42.552 -14.941   3.152  1.00  0.00     0.166 C 
HETATM    8  S   UNL     1      38.895 -15.072   1.593  1.00  0.00    -0.086 SA
HETATM    9  C   UNL     1      39.918 -13.953   0.557  1.00  0.00     0.135 C 
HETATM   10  C   UNL     1      42.144 -14.455   4.507  1.00  0.00     0.069 C 
ENDROOT
BRANCH   6  11
HETATM   11  C   UNL     1      42.235 -12.676   0.906  1.00  0.00     0.156 C 
BRANCH  11  12
HETATM   12  C   UNL     1      41.530 -11.629   0.063  1.00  0.00     0.223 C 
HETATM   13  N   UNL     1      41.774 -11.663  -1.285  1.00  0.00    -0.359 N 
HETATM   14  H   UNL     1      42.231 -12.476  -1.706  1.00  0.00     0.162 HD
HETATM   15  O   UNL     1      40.909 -10.706   0.585  1.00  0.00    -0.273 OA
BRANCH  13  16
HETATM   16  C   UNL     1      41.572 -10.504  -2.168  1.00  0.00     0.150 C 
BRANCH  16  17
HETATM   17  C   UNL     1      42.830  -9.712  -2.603  1.00  0.00     0.253 C 
BRANCH  17  18
HETATM   18  N   UNL     1      42.914  -8.326  -1.995  1.00  0.00    -0.077 N 
HETATM   19  H   UNL     1      43.087  -7.664  -2.777  1.00  0.00     0.279 HD
HETATM   20  C   UNL     1      41.646  -7.854  -1.337  1.00  0.00     0.269 C 
HETATM   21  C   UNL     1      44.084  -8.189  -1.060  1.00  0.00     0.269 C 
ENDBRANCH  17  18
ENDBRANCH  16  17
ENDBRANCH  13  16
ENDBRANCH  11  12
ENDBRANCH   6  11
BRANCH   7  22
HETATM   22  C   UNL     1      42.680 -16.469   3.015  1.00  0.00    -0.030 C 
HETATM   23  C   UNL     1      42.936 -17.252   4.158  1.00  0.00     0.010 C 
HETATM   24  C   UNL     1      43.459 -18.542   4.035  1.00  0.00     0.008 C 
HETATM   25  C   UNL     1      43.696 -19.098   2.773  1.00  0.00    -0.055 C 
HETATM   26  C   UNL     1      43.261 -18.395   1.645  1.00  0.00     0.008 C 
HETATM   27  C   UNL     1      42.746 -17.102   1.762  1.00  0.00     0.010 C 
BRANCH  25  28
HETATM   28  C   UNL     1      44.491 -20.389   2.645  1.00  0.00     0.010 C 
HETATM   29  C   UNL     1      44.837 -21.009   3.997  1.00  0.00     0.015 C 
HETATM   30  C   UNL     1      43.735 -21.392   1.764  1.00  0.00     0.015 C 
ENDBRANCH  25  28
ENDBRANCH   7  22
BRANCH  10  31
HETATM   31  C   UNL     1      43.108 -13.520   5.090  1.00  0.00     0.294 C 
HETATM   32  O   UNL     1      42.898 -12.317   4.992  1.00  0.00    -0.259 OA
BRANCH  31  33
HETATM   33  O   UNL     1      44.207 -14.167   5.501  1.00  0.00    -0.313 OA
BRANCH  33  34
HETATM   34  C   UNL     1      44.248 -14.496   6.900  1.00  0.00     0.217 C 
BRANCH  34  35
HETATM   35  C   UNL     1      44.940 -13.400   7.658  1.00  0.00    -0.034 A 
HETATM   36  C   UNL     1      46.243 -13.017   7.309  1.00  0.00     0.009 A 
HETATM   37  C   UNL     1      46.888 -11.994   8.004  1.00  0.00     0.001 A 
HETATM   38  C   UNL     1      46.243 -11.351   9.058  1.00  0.00     0.000 A 
HETATM   39  C   UNL     1      44.951 -11.730   9.420  1.00  0.00     0.001 A 
HETATM   40  C   UNL     1      44.303 -12.752   8.726  1.00  0.00     0.009 A 
ENDBRANCH  34  35
ENDBRANCH  33  34
ENDBRANCH  31  33
ENDBRANCH  10  31
TORSDOF 11
ENDMDL
