MODEL 1
REMARK VINA RESULT:      -8.8      0.000      0.000
REMARK  9 active torsions:
REMARK  status: ('A' for Active; 'I' for Inactive)
REMARK    1  A    between atoms: C_3  and  N_4 
REMARK       I    between atoms: N_4  and  C_5 
REMARK    2  A    between atoms: C_5  and  C_6 
REMARK    3  A    between atoms: C_6  and  S_7 
REMARK    4  A    between atoms: S_7  and  C_8 
REMARK    5  A    between atoms: N_9  and  C_10 
REMARK    6  A    between atoms: C_10  and  C_11 
REMARK       I    between atoms: C_11  and  N_12 
REMARK    7  A    between atoms: N_12  and  C_13 
REMARK    8  A    between atoms: C_15  and  O_16 
REMARK    9  A    between atoms: C_21  and  C_22 
ROOT
HETATM    1  C   UNL     1      41.369 -15.167   0.682  1.00  0.00     0.169 A 
HETATM    2  N   UNL     1      40.651 -14.541   1.673  1.00  0.00    -0.315 N 
HETATM    3  C   UNL     1      40.837 -13.177   1.512  1.00  0.00     0.065 A 
HETATM    4  C   UNL     1      41.634 -13.077   0.385  1.00  0.00     0.150 A 
HETATM    5  N   UNL     1      41.956 -14.308  -0.111  1.00  0.00    -0.234 NA
ENDROOT
BRANCH   1   6
HETATM    6  S   UNL     1      41.469 -16.881   0.483  1.00  0.00    -0.083 SA
BRANCH   6   7
HETATM    7  C   UNL     1      43.082 -17.227   1.260  1.00  0.00     0.185 C 
BRANCH   7   8
HETATM    8  C   UNL     1      43.039 -18.346   2.294  1.00  0.00     0.231 C 
HETATM    9  N   UNL     1      44.175 -19.134   2.348  1.00  0.00    -0.326 N 
HETATM   10  H   UNL     1      44.750 -19.101   1.515  1.00  0.00     0.169 HD
HETATM   11  O   UNL     1      42.056 -18.472   3.022  1.00  0.00    -0.272 OA
BRANCH   9  12
HETATM   12  C   UNL     1      44.379 -20.229   3.214  1.00  0.00     0.046 A 
HETATM   13  C   UNL     1      44.319 -21.528   2.657  1.00  0.00    -0.035 A 
HETATM   14  C   UNL     1      43.974 -21.764   1.211  1.00  0.00     0.050 C 
HETATM   15  C   UNL     1      44.537 -22.645   3.481  1.00  0.00     0.009 A 
HETATM   16  C   UNL     1      44.816 -22.484   4.833  1.00  0.00     0.001 A 
HETATM   17  C   UNL     1      44.903 -21.206   5.375  1.00  0.00     0.009 A 
HETATM   18  C   UNL     1      44.713 -20.064   4.575  1.00  0.00    -0.035 A 
HETATM   19  C   UNL     1      44.938 -18.727   5.226  1.00  0.00     0.050 C 
ENDBRANCH   9  12
ENDBRANCH   7   8
ENDBRANCH   6   7
ENDBRANCH   1   6
BRANCH   2  20
HETATM   20  C   UNL     1      39.818 -15.188   2.672  1.00  0.00     0.234 C 
BRANCH  20  21
HETATM   21  C   UNL     1      40.366 -15.187   4.092  1.00  0.00     0.240 C 
HETATM   22  N   UNL     1      41.493 -15.958   4.322  1.00  0.00    -0.326 N 
HETATM   23  H   UNL     1      41.844 -16.529   3.564  1.00  0.00     0.169 HD
HETATM   24  O   UNL     1      39.821 -14.465   4.928  1.00  0.00    -0.271 OA
BRANCH  22  25
HETATM   25  C   UNL     1      42.223 -16.077   5.527  1.00  0.00     0.037 A 
HETATM   26  C   UNL     1      43.225 -15.191   5.930  1.00  0.00     0.066 A 
HETATM   27  C   UNL     1      43.895 -15.402   7.135  1.00  0.00     0.067 A 
HETATM   28  C   UNL     1      43.587 -16.484   7.949  1.00  0.00     0.036 A 
HETATM   29  C   UNL     1      42.590 -17.372   7.556  1.00  0.00     0.005 A 
HETATM   30  C   UNL     1      41.912 -17.169   6.351  1.00  0.00     0.029 A 
BRANCH  27  31
HETATM   31  O   UNL     1      44.877 -14.553   7.556  1.00  0.00    -0.361 OA
HETATM   32  H   UNL     1      45.735 -14.997   7.452  1.00  0.00     0.217 HD
ENDBRANCH  27  31
ENDBRANCH  22  25
ENDBRANCH  20  21
ENDBRANCH   2  20
BRANCH   3  33
HETATM   33  C   UNL     1      40.263 -12.113   2.326  1.00  0.00    -0.008 A 
HETATM   34  C   UNL     1      38.927 -11.718   2.170  1.00  0.00     0.017 A 
HETATM   35  C   UNL     1      38.390 -10.714   2.980  1.00  0.00     0.043 A 
HETATM   36  C   UNL     1      39.184 -10.115   3.950  1.00  0.00     0.116 A 
HETATM   37  F   UNL     1      38.665  -9.159   4.730  1.00  0.00    -0.206 F 
HETATM   38  C   UNL     1      40.507 -10.500   4.127  1.00  0.00     0.043 A 
HETATM   39  C   UNL     1      41.046 -11.502   3.317  1.00  0.00     0.017 A 
ENDBRANCH   3  33
TORSDOF 9
ENDMDL
MODEL 2
REMARK VINA RESULT:      -8.7      3.394      8.682
REMARK  9 active torsions:
REMARK  status: ('A' for Active; 'I' for Inactive)
REMARK    1  A    between atoms: C_3  and  N_4 
REMARK       I    between atoms: N_4  and  C_5 
REMARK    2  A    between atoms: C_5  and  C_6 
REMARK    3  A    between atoms: C_6  and  S_7 
REMARK    4  A    between atoms: S_7  and  C_8 
REMARK    5  A    between atoms: N_9  and  C_10 
REMARK    6  A    between atoms: C_10  and  C_11 
REMARK       I    between atoms: C_11  and  N_12 
REMARK    7  A    between atoms: N_12  and  C_13 
REMARK    8  A    between atoms: C_15  and  O_16 
REMARK    9  A    between atoms: C_21  and  C_22 
ROOT
HETATM    1  C   UNL     1      43.768 -17.225   6.282  1.00  0.00     0.169 A 
HETATM    2  N   UNL     1      43.294 -17.980   5.237  1.00  0.00    -0.315 N 
HETATM    3  C   UNL     1      44.303 -18.861   4.881  1.00  0.00     0.065 A 
HETATM    4  C   UNL     1      45.316 -18.597   5.786  1.00  0.00     0.150 A 
HETATM    5  N   UNL     1      44.973 -17.586   6.638  1.00  0.00    -0.234 NA
ENDROOT
BRANCH   1   6
HETATM    6  S   UNL     1      42.875 -15.965   7.059  1.00  0.00    -0.083 SA
BRANCH   6   7
HETATM    7  C   UNL     1      43.688 -14.486   6.366  1.00  0.00     0.185 C 
BRANCH   7   8
HETATM    8  C   UNL     1      42.718 -13.378   5.974  1.00  0.00     0.231 C 
HETATM    9  N   UNL     1      41.845 -13.701   4.952  1.00  0.00    -0.326 N 
HETATM   10  H   UNL     1      42.143 -14.477   4.373  1.00  0.00     0.169 HD
HETATM   11  O   UNL     1      42.732 -12.307   6.580  1.00  0.00    -0.272 OA
BRANCH   9  12
HETATM   12  C   UNL     1      40.857 -12.852   4.410  1.00  0.00     0.046 A 
HETATM   13  C   UNL     1      41.044 -12.387   3.087  1.00  0.00    -0.035 A 
HETATM   14  C   UNL     1      42.281 -12.710   2.292  1.00  0.00     0.050 C 
HETATM   15  C   UNL     1      40.074 -11.555   2.502  1.00  0.00     0.009 A 
HETATM   16  C   UNL     1      38.934 -11.191   3.209  1.00  0.00     0.001 A 
HETATM   17  C   UNL     1      38.737 -11.671   4.500  1.00  0.00     0.009 A 
HETATM   18  C   UNL     1      39.676 -12.524   5.108  1.00  0.00    -0.035 A 
HETATM   19  C   UNL     1      39.321 -13.080   6.461  1.00  0.00     0.050 C 
ENDBRANCH   9  12
ENDBRANCH   7   8
ENDBRANCH   6   7
ENDBRANCH   1   6
BRANCH   2  20
HETATM   20  C   UNL     1      41.969 -17.900   4.647  1.00  0.00     0.234 C 
BRANCH  20  21
HETATM   21  C   UNL     1      41.791 -16.852   3.557  1.00  0.00     0.240 C 
HETATM   22  N   UNL     1      40.567 -16.830   2.912  1.00  0.00    -0.326 N 
HETATM   23  H   UNL     1      39.892 -17.548   3.144  1.00  0.00     0.169 HD
HETATM   24  O   UNL     1      42.710 -16.057   3.357  1.00  0.00    -0.271 OA
BRANCH  22  25
HETATM   25  C   UNL     1      40.134 -15.925   1.917  1.00  0.00     0.037 A 
HETATM   26  C   UNL     1      38.952 -15.184   1.988  1.00  0.00     0.066 A 
HETATM   27  C   UNL     1      38.608 -14.322   0.946  1.00  0.00     0.067 A 
HETATM   28  C   UNL     1      39.422 -14.184  -0.171  1.00  0.00     0.036 A 
HETATM   29  C   UNL     1      40.603 -14.917  -0.251  1.00  0.00     0.005 A 
HETATM   30  C   UNL     1      40.956 -15.783   0.788  1.00  0.00     0.029 A 
BRANCH  27  31
HETATM   31  O   UNL     1      37.460 -13.586   0.987  1.00  0.00    -0.361 OA
HETATM   32  H   UNL     1      36.974 -13.724   0.157  1.00  0.00     0.217 HD
ENDBRANCH  27  31
ENDBRANCH  22  25
ENDBRANCH  20  21
ENDBRANCH   2  20
BRANCH   3  33
HETATM   33  C   UNL     1      44.256 -19.866   3.825  1.00  0.00    -0.008 A 
HETATM   34  C   UNL     1      44.569 -21.207   4.083  1.00  0.00     0.017 A 
HETATM   35  C   UNL     1      44.491 -22.158   3.062  1.00  0.00     0.043 A 
HETATM   36  C   UNL     1      44.092 -21.769   1.789  1.00  0.00     0.116 A 
HETATM   37  F   UNL     1      44.011 -22.683   0.815  1.00  0.00    -0.206 F 
HETATM   38  C   UNL     1      43.767 -20.446   1.517  1.00  0.00     0.043 A 
HETATM   39  C   UNL     1      43.847 -19.494   2.536  1.00  0.00     0.017 A 
ENDBRANCH   3  33
TORSDOF 9
ENDMDL
MODEL 3
REMARK VINA RESULT:      -8.6      4.538      9.139
REMARK  9 active torsions:
REMARK  status: ('A' for Active; 'I' for Inactive)
REMARK    1  A    between atoms: C_3  and  N_4 
REMARK       I    between atoms: N_4  and  C_5 
REMARK    2  A    between atoms: C_5  and  C_6 
REMARK    3  A    between atoms: C_6  and  S_7 
REMARK    4  A    between atoms: S_7  and  C_8 
REMARK    5  A    between atoms: N_9  and  C_10 
REMARK    6  A    between atoms: C_10  and  C_11 
REMARK       I    between atoms: C_11  and  N_12 
REMARK    7  A    between atoms: N_12  and  C_13 
REMARK    8  A    between atoms: C_15  and  O_16 
REMARK    9  A    between atoms: C_21  and  C_22 
ROOT
HETATM    1  C   UNL     1      41.831 -13.608   5.640  1.00  0.00     0.169 A 
HETATM    2  N   UNL     1      41.653 -14.541   4.648  1.00  0.00    -0.315 N 
HETATM    3  C   UNL     1      42.812 -15.299   4.588  1.00  0.00     0.065 A 
HETATM    4  C   UNL     1      43.603 -14.785   5.601  1.00  0.00     0.150 A 
HETATM    5  N   UNL     1      42.988 -13.744   6.235  1.00  0.00    -0.234 NA
ENDROOT
BRANCH   1   6
HETATM    6  S   UNL     1      40.663 -12.410   6.076  1.00  0.00    -0.083 SA
BRANCH   6   7
HETATM    7  C   UNL     1      41.685 -10.900   6.042  1.00  0.00     0.185 C 
BRANCH   7   8
HETATM    8  C   UNL     1      41.978 -10.325   7.423  1.00  0.00     0.231 C 
HETATM    9  N   UNL     1      42.320 -11.260   8.383  1.00  0.00    -0.326 N 
HETATM   10  H   UNL     1      42.032 -12.207   8.170  1.00  0.00     0.169 HD
HETATM   11  O   UNL     1      41.931  -9.109   7.604  1.00  0.00    -0.272 OA
BRANCH   9  12
HETATM   12  C   UNL     1      42.635 -10.982   9.730  1.00  0.00     0.046 A 
HETATM   13  C   UNL     1      41.562 -10.876  10.647  1.00  0.00    -0.035 A 
HETATM   14  C   UNL     1      40.124 -10.975  10.211  1.00  0.00     0.050 C 
HETATM   15  C   UNL     1      41.832 -10.621  12.002  1.00  0.00     0.009 A 
HETATM   16  C   UNL     1      43.140 -10.477  12.448  1.00  0.00     0.001 A 
HETATM   17  C   UNL     1      44.196 -10.608  11.552  1.00  0.00     0.009 A 
HETATM   18  C   UNL     1      43.963 -10.887  10.193  1.00  0.00    -0.035 A 
HETATM   19  C   UNL     1      45.171 -11.123   9.326  1.00  0.00     0.050 C 
ENDBRANCH   9  12
ENDBRANCH   7   8
ENDBRANCH   6   7
ENDBRANCH   1   6
BRANCH   2  20
HETATM   20  C   UNL     1      40.457 -14.725   3.843  1.00  0.00     0.234 C 
BRANCH  20  21
HETATM   21  C   UNL     1      40.523 -14.180   2.424  1.00  0.00     0.240 C 
HETATM   22  N   UNL     1      40.251 -15.074   1.403  1.00  0.00    -0.326 N 
HETATM   23  H   UNL     1      40.098 -16.044   1.646  1.00  0.00     0.169 HD
HETATM   24  O   UNL     1      40.750 -12.979   2.270  1.00  0.00    -0.271 OA
BRANCH  22  25
HETATM   25  C   UNL     1      40.188 -14.805   0.017  1.00  0.00     0.037 A 
HETATM   26  C   UNL     1      41.096 -15.299  -0.923  1.00  0.00     0.066 A 
HETATM   27  C   UNL     1      40.953 -14.966  -2.270  1.00  0.00     0.067 A 
HETATM   28  C   UNL     1      39.919 -14.146  -2.701  1.00  0.00     0.036 A 
HETATM   29  C   UNL     1      39.008 -13.649  -1.774  1.00  0.00     0.005 A 
HETATM   30  C   UNL     1      39.143 -13.977  -0.421  1.00  0.00     0.029 A 
BRANCH  27  31
HETATM   31  O   UNL     1      41.824 -15.435  -3.210  1.00  0.00    -0.361 OA
HETATM   32  H   UNL     1      41.877 -14.787  -3.932  1.00  0.00     0.217 HD
ENDBRANCH  27  31
ENDBRANCH  22  25
ENDBRANCH  20  21
ENDBRANCH   2  20
BRANCH   3  33
HETATM   33  C   UNL     1      43.082 -16.416   3.690  1.00  0.00    -0.008 A 
HETATM   34  C   UNL     1      43.588 -16.204   2.400  1.00  0.00     0.017 A 
HETATM   35  C   UNL     1      43.866 -17.290   1.566  1.00  0.00     0.043 A 
HETATM   36  C   UNL     1      43.648 -18.583   2.025  1.00  0.00     0.116 A 
HETATM   37  F   UNL     1      43.922 -19.622   1.227  1.00  0.00    -0.206 F 
HETATM   38  C   UNL     1      43.157 -18.813   3.304  1.00  0.00     0.043 A 
HETATM   39  C   UNL     1      42.877 -17.729   4.138  1.00  0.00     0.017 A 
ENDBRANCH   3  33
TORSDOF 9
ENDMDL
MODEL 4
REMARK VINA RESULT:      -8.6      4.529      9.135
REMARK  9 active torsions:
REMARK  status: ('A' for Active; 'I' for Inactive)
REMARK    1  A    between atoms: C_3  and  N_4 
REMARK       I    between atoms: N_4  and  C_5 
REMARK    2  A    between atoms: C_5  and  C_6 
REMARK    3  A    between atoms: C_6  and  S_7 
REMARK    4  A    between atoms: S_7  and  C_8 
REMARK    5  A    between atoms: N_9  and  C_10 
REMARK    6  A    between atoms: C_10  and  C_11 
REMARK       I    between atoms: C_11  and  N_12 
REMARK    7  A    between atoms: N_12  and  C_13 
REMARK    8  A    between atoms: C_15  and  O_16 
REMARK    9  A    between atoms: C_21  and  C_22 
ROOT
HETATM    1  C   UNL     1      41.845 -13.631   5.614  1.00  0.00     0.169 A 
HETATM    2  N   UNL     1      41.669 -14.569   4.627  1.00  0.00    -0.315 N 
HETATM    3  C   UNL     1      42.822 -15.338   4.586  1.00  0.00     0.065 A 
HETATM    4  C   UNL     1      43.606 -14.824   5.603  1.00  0.00     0.150 A 
HETATM    5  N   UNL     1      42.993 -13.772   6.224  1.00  0.00    -0.234 NA
ENDROOT
BRANCH   1   6
HETATM    6  S   UNL     1      40.681 -12.420   6.028  1.00  0.00    -0.083 SA
BRANCH   6   7
HETATM    7  C   UNL     1      41.729 -10.927   6.052  1.00  0.00     0.185 C 
BRANCH   7   8
HETATM    8  C   UNL     1      41.987 -10.380   7.451  1.00  0.00     0.231 C 
HETATM    9  N   UNL     1      42.336 -11.329   8.394  1.00  0.00    -0.326 N 
HETATM   10  H   UNL     1      42.073 -12.277   8.154  1.00  0.00     0.169 HD
HETATM   11  O   UNL     1      41.909  -9.170   7.660  1.00  0.00    -0.272 OA
BRANCH   9  12
HETATM   12  C   UNL     1      42.622 -11.077   9.752  1.00  0.00     0.046 A 
HETATM   13  C   UNL     1      43.983 -11.001  10.134  1.00  0.00    -0.035 A 
HETATM   14  C   UNL     1      45.103 -11.254   9.160  1.00  0.00     0.050 C 
HETATM   15  C   UNL     1      44.312 -10.732  11.473  1.00  0.00     0.009 A 
HETATM   16  C   UNL     1      43.316 -10.534  12.421  1.00  0.00     0.001 A 
HETATM   17  C   UNL     1      41.978 -10.581  12.040  1.00  0.00     0.009 A 
HETATM   18  C   UNL     1      41.613 -10.826  10.704  1.00  0.00    -0.035 A 
HETATM   19  C   UNL     1      40.147 -10.745  10.369  1.00  0.00     0.050 C 
ENDBRANCH   9  12
ENDBRANCH   7   8
ENDBRANCH   6   7
ENDBRANCH   1   6
BRANCH   2  20
HETATM   20  C   UNL     1      40.481 -14.750   3.810  1.00  0.00     0.234 C 
BRANCH  20  21
HETATM   21  C   UNL     1      40.565 -14.211   2.389  1.00  0.00     0.240 C 
HETATM   22  N   UNL     1      40.240 -15.091   1.372  1.00  0.00    -0.326 N 
HETATM   23  H   UNL     1      40.038 -16.051   1.618  1.00  0.00     0.169 HD
HETATM   24  O   UNL     1      40.854 -13.024   2.231  1.00  0.00    -0.271 OA
BRANCH  22  25
HETATM   25  C   UNL     1      40.181 -14.821  -0.014  1.00  0.00     0.037 A 
HETATM   26  C   UNL     1      41.108 -15.293  -0.947  1.00  0.00     0.066 A 
HETATM   27  C   UNL     1      40.968 -14.961  -2.295  1.00  0.00     0.067 A 
HETATM   28  C   UNL     1      39.919 -14.164  -2.733  1.00  0.00     0.036 A 
HETATM   29  C   UNL     1      38.990 -13.689  -1.812  1.00  0.00     0.005 A 
HETATM   30  C   UNL     1      39.122 -14.016  -0.459  1.00  0.00     0.029 A 
BRANCH  27  31
HETATM   31  O   UNL     1      41.857 -15.408  -3.229  1.00  0.00    -0.361 OA
HETATM   32  H   UNL     1      41.359 -15.808  -3.962  1.00  0.00     0.217 HD
ENDBRANCH  27  31
ENDBRANCH  22  25
ENDBRANCH  20  21
ENDBRANCH   2  20
BRANCH   3  33
HETATM   33  C   UNL     1      43.093 -16.463   3.699  1.00  0.00    -0.008 A 
HETATM   34  C   UNL     1      43.592 -16.264   2.404  1.00  0.00     0.017 A 
HETATM   35  C   UNL     1      43.870 -17.358   1.581  1.00  0.00     0.043 A 
HETATM   36  C   UNL     1      43.659 -18.647   2.055  1.00  0.00     0.116 A 
HETATM   37  F   UNL     1      43.934 -19.693   1.267  1.00  0.00    -0.206 F 
HETATM   38  C   UNL     1      43.175 -18.865   3.339  1.00  0.00     0.043 A 
HETATM   39  C   UNL     1      42.894 -17.772   4.162  1.00  0.00     0.017 A 
ENDBRANCH   3  33
TORSDOF 9
ENDMDL
MODEL 5
REMARK VINA RESULT:      -8.6      3.374      8.381
REMARK  9 active torsions:
REMARK  status: ('A' for Active; 'I' for Inactive)
REMARK    1  A    between atoms: C_3  and  N_4 
REMARK       I    between atoms: N_4  and  C_5 
REMARK    2  A    between atoms: C_5  and  C_6 
REMARK    3  A    between atoms: C_6  and  S_7 
REMARK    4  A    between atoms: S_7  and  C_8 
REMARK    5  A    between atoms: N_9  and  C_10 
REMARK    6  A    between atoms: C_10  and  C_11 
REMARK       I    between atoms: C_11  and  N_12 
REMARK    7  A    between atoms: N_12  and  C_13 
REMARK    8  A    between atoms: C_15  and  O_16 
REMARK    9  A    between atoms: C_21  and  C_22 
ROOT
HETATM    1  C   UNL     1      43.982 -17.512   6.554  1.00  0.00     0.169 A 
HETATM    2  N   UNL     1      43.392 -18.265   5.568  1.00  0.00    -0.315 N 
HETATM    3  C   UNL     1      44.401 -18.980   4.942  1.00  0.00     0.065 A 
HETATM    4  C   UNL     1      45.544 -18.632   5.641  1.00  0.00     0.150 A 
HETATM    5  N   UNL     1      45.271 -17.726   6.626  1.00  0.00    -0.234 NA
ENDROOT
BRANCH   1   6
HETATM    6  S   UNL     1      43.129 -16.430   7.597  1.00  0.00    -0.083 SA
BRANCH   6   7
HETATM    7  C   UNL     1      44.231 -14.977   7.565  1.00  0.00     0.185 C 
BRANCH   7   8
HETATM    8  C   UNL     1      44.042 -14.088   6.342  1.00  0.00     0.231 C 
HETATM    9  N   UNL     1      42.769 -14.099   5.804  1.00  0.00    -0.326 N 
HETATM   10  H   UNL     1      42.211 -14.906   6.058  1.00  0.00     0.169 HD
HETATM   11  O   UNL     1      44.979 -13.407   5.927  1.00  0.00    -0.272 OA
BRANCH   9  12
HETATM   12  C   UNL     1      42.342 -13.367   4.676  1.00  0.00     0.046 A 
HETATM   13  C   UNL     1      41.482 -12.264   4.894  1.00  0.00    -0.035 A 
HETATM   14  C   UNL     1      40.963 -11.913   6.264  1.00  0.00     0.050 C 
HETATM   15  C   UNL     1      41.050 -11.496   3.801  1.00  0.00     0.009 A 
HETATM   16  C   UNL     1      41.465 -11.805   2.511  1.00  0.00     0.001 A 
HETATM   17  C   UNL     1      42.333 -12.871   2.299  1.00  0.00     0.009 A 
HETATM   18  C   UNL     1      42.803 -13.648   3.373  1.00  0.00    -0.035 A 
HETATM   19  C   UNL     1      43.825 -14.707   3.056  1.00  0.00     0.050 C 
ENDBRANCH   9  12
ENDBRANCH   7   8
ENDBRANCH   6   7
ENDBRANCH   1   6
BRANCH   2  20
HETATM   20  C   UNL     1      41.972 -18.333   5.268  1.00  0.00     0.234 C 
BRANCH  20  21
HETATM   21  C   UNL     1      41.413 -17.181   4.445  1.00  0.00     0.240 C 
HETATM   22  N   UNL     1      41.427 -17.337   3.070  1.00  0.00    -0.326 N 
HETATM   23  H   UNL     1      41.868 -18.164   2.688  1.00  0.00     0.169 HD
HETATM   24  O   UNL     1      40.932 -16.217   5.042  1.00  0.00    -0.271 OA
BRANCH  22  25
HETATM   25  C   UNL     1      40.915 -16.448   2.097  1.00  0.00     0.037 A 
HETATM   26  C   UNL     1      39.790 -15.641   2.284  1.00  0.00     0.066 A 
HETATM   27  C   UNL     1      39.359 -14.803   1.257  1.00  0.00     0.067 A 
HETATM   28  C   UNL     1      40.027 -14.753   0.040  1.00  0.00     0.036 A 
HETATM   29  C   UNL     1      41.149 -15.553  -0.156  1.00  0.00     0.005 A 
HETATM   30  C   UNL     1      41.590 -16.397   0.868  1.00  0.00     0.029 A 
BRANCH  27  31
HETATM   31  O   UNL     1      38.264 -14.002   1.410  1.00  0.00    -0.361 OA
HETATM   32  H   UNL     1      37.991 -13.681   0.535  1.00  0.00     0.217 HD
ENDBRANCH  27  31
ENDBRANCH  22  25
ENDBRANCH  20  21
ENDBRANCH   2  20
BRANCH   3  33
HETATM   33  C   UNL     1      44.253 -19.922   3.838  1.00  0.00    -0.008 A 
HETATM   34  C   UNL     1      43.807 -19.499   2.578  1.00  0.00     0.017 A 
HETATM   35  C   UNL     1      43.698 -20.414   1.527  1.00  0.00     0.043 A 
HETATM   36  C   UNL     1      44.044 -21.743   1.734  1.00  0.00     0.116 A 
HETATM   37  F   UNL     1      43.946 -22.616   0.723  1.00  0.00    -0.206 F 
HETATM   38  C   UNL     1      44.498 -22.178   2.973  1.00  0.00     0.043 A 
HETATM   39  C   UNL     1      44.605 -21.267   4.025  1.00  0.00     0.017 A 
ENDBRANCH   3  33
TORSDOF 9
ENDMDL
MODEL 6
REMARK VINA RESULT:      -8.5      3.287      5.711
REMARK  9 active torsions:
REMARK  status: ('A' for Active; 'I' for Inactive)
REMARK    1  A    between atoms: C_3  and  N_4 
REMARK       I    between atoms: N_4  and  C_5 
REMARK    2  A    between atoms: C_5  and  C_6 
REMARK    3  A    between atoms: C_6  and  S_7 
REMARK    4  A    between atoms: S_7  and  C_8 
REMARK    5  A    between atoms: N_9  and  C_10 
REMARK    6  A    between atoms: C_10  and  C_11 
REMARK       I    between atoms: C_11  and  N_12 
REMARK    7  A    between atoms: N_12  and  C_13 
REMARK    8  A    between atoms: C_15  and  O_16 
REMARK    9  A    between atoms: C_21  and  C_22 
ROOT
HETATM    1  C   UNL     1      40.078 -12.587   1.609  1.00  0.00     0.169 A 
HETATM    2  N   UNL     1      39.846 -13.708   0.850  1.00  0.00    -0.315 N 
HETATM    3  C   UNL     1      39.760 -13.295  -0.471  1.00  0.00     0.065 A 
HETATM    4  C   UNL     1      39.996 -11.933  -0.414  1.00  0.00     0.150 A 
HETATM    5  N   UNL     1      40.186 -11.512   0.872  1.00  0.00    -0.234 NA
ENDROOT
BRANCH   1   6
HETATM    6  S   UNL     1      40.238 -12.590   3.331  1.00  0.00    -0.083 SA
BRANCH   6   7
HETATM    7  C   UNL     1      42.050 -12.485   3.511  1.00  0.00     0.185 C 
BRANCH   7   8
HETATM    8  C   UNL     1      42.675 -13.710   4.167  1.00  0.00     0.231 C 
HETATM    9  N   UNL     1      42.220 -13.984   5.443  1.00  0.00    -0.326 N 
HETATM   10  H   UNL     1      41.791 -13.197   5.916  1.00  0.00     0.169 HD
HETATM   11  O   UNL     1      43.493 -14.388   3.547  1.00  0.00    -0.272 OA
BRANCH   9  12
HETATM   12  C   UNL     1      42.641 -15.056   6.258  1.00  0.00     0.046 A 
HETATM   13  C   UNL     1      41.752 -16.144   6.425  1.00  0.00    -0.035 A 
HETATM   14  C   UNL     1      40.368 -16.146   5.830  1.00  0.00     0.050 C 
HETATM   15  C   UNL     1      42.140 -17.241   7.211  1.00  0.00     0.009 A 
HETATM   16  C   UNL     1      43.389 -17.270   7.819  1.00  0.00     0.001 A 
HETATM   17  C   UNL     1      44.275 -16.213   7.632  1.00  0.00     0.009 A 
HETATM   18  C   UNL     1      43.928 -15.109   6.832  1.00  0.00    -0.035 A 
HETATM   19  C   UNL     1      44.993 -14.072   6.599  1.00  0.00     0.050 C 
ENDBRANCH   9  12
ENDBRANCH   7   8
ENDBRANCH   6   7
ENDBRANCH   1   6
BRANCH   2  20
HETATM   20  C   UNL     1      39.753 -15.074   1.336  1.00  0.00     0.234 C 
BRANCH  20  21
HETATM   21  C   UNL     1      41.073 -15.817   1.480  1.00  0.00     0.240 C 
HETATM   22  N   UNL     1      41.084 -16.902   2.340  1.00  0.00    -0.326 N 
HETATM   23  H   UNL     1      40.246 -17.096   2.874  1.00  0.00     0.169 HD
HETATM   24  O   UNL     1      42.026 -15.454   0.789  1.00  0.00    -0.271 OA
BRANCH  22  25
HETATM   25  C   UNL     1      42.157 -17.785   2.599  1.00  0.00     0.037 A 
HETATM   26  C   UNL     1      42.963 -17.729   3.739  1.00  0.00     0.066 A 
HETATM   27  C   UNL     1      44.006 -18.641   3.898  1.00  0.00     0.067 A 
HETATM   28  C   UNL     1      44.264 -19.612   2.939  1.00  0.00     0.036 A 
HETATM   29  C   UNL     1      43.466 -19.676   1.800  1.00  0.00     0.005 A 
HETATM   30  C   UNL     1      42.418 -18.766   1.632  1.00  0.00     0.029 A 
BRANCH  27  31
HETATM   31  O   UNL     1      44.809 -18.611   5.001  1.00  0.00    -0.361 OA
HETATM   32  H   UNL     1      44.285 -18.296   5.756  1.00  0.00     0.217 HD
ENDBRANCH  27  31
ENDBRANCH  22  25
ENDBRANCH  20  21
ENDBRANCH   2  20
BRANCH   3  33
HETATM   33  C   UNL     1      39.529 -14.138  -1.638  1.00  0.00    -0.008 A 
HETATM   34  C   UNL     1      38.271 -14.198  -2.253  1.00  0.00     0.017 A 
HETATM   35  C   UNL     1      38.079 -14.991  -3.387  1.00  0.00     0.043 A 
HETATM   36  C   UNL     1      39.144 -15.714  -3.910  1.00  0.00     0.116 A 
HETATM   37  F   UNL     1      38.960 -16.467  -5.001  1.00  0.00    -0.206 F 
HETATM   38  C   UNL     1      40.401 -15.658  -3.320  1.00  0.00     0.043 A 
HETATM   39  C   UNL     1      40.594 -14.868  -2.185  1.00  0.00     0.017 A 
ENDBRANCH   3  33
TORSDOF 9
ENDMDL
MODEL 7
REMARK VINA RESULT:      -8.4      4.400      8.173
REMARK  9 active torsions:
REMARK  status: ('A' for Active; 'I' for Inactive)
REMARK    1  A    between atoms: C_3  and  N_4 
REMARK       I    between atoms: N_4  and  C_5 
REMARK    2  A    between atoms: C_5  and  C_6 
REMARK    3  A    between atoms: C_6  and  S_7 
REMARK    4  A    between atoms: S_7  and  C_8 
REMARK    5  A    between atoms: N_9  and  C_10 
REMARK    6  A    between atoms: C_10  and  C_11 
REMARK       I    between atoms: C_11  and  N_12 
REMARK    7  A    between atoms: N_12  and  C_13 
REMARK    8  A    between atoms: C_15  and  O_16 
REMARK    9  A    between atoms: C_21  and  C_22 
ROOT
HETATM    1  C   UNL     1      40.118 -13.009   4.991  1.00  0.00     0.169 A 
HETATM    2  N   UNL     1      41.034 -14.004   4.753  1.00  0.00    -0.315 N 
HETATM    3  C   UNL     1      40.832 -14.442   3.454  1.00  0.00     0.065 A 
HETATM    4  C   UNL     1      39.816 -13.631   2.979  1.00  0.00     0.150 A 
HETATM    5  N   UNL     1      39.386 -12.757   3.937  1.00  0.00    -0.234 NA
ENDROOT
BRANCH   1   6
HETATM    6  S   UNL     1      39.963 -12.164   6.492  1.00  0.00    -0.083 SA
BRANCH   6   7
HETATM    7  C   UNL     1      40.983 -10.687   6.165  1.00  0.00     0.185 C 
BRANCH   7   8
HETATM    8  C   UNL     1      41.657 -10.119   7.408  1.00  0.00     0.231 C 
HETATM    9  N   UNL     1      41.780 -11.006   8.462  1.00  0.00    -0.326 N 
HETATM   10  H   UNL     1      41.145 -11.794   8.425  1.00  0.00     0.169 HD
HETATM   11  O   UNL     1      42.073  -8.961   7.406  1.00  0.00    -0.272 OA
BRANCH   9  12
HETATM   12  C   UNL     1      42.364 -10.723   9.715  1.00  0.00     0.046 A 
HETATM   13  C   UNL     1      43.717 -11.087   9.907  1.00  0.00    -0.035 A 
HETATM   14  C   UNL     1      44.506 -11.822   8.855  1.00  0.00     0.050 C 
HETATM   15  C   UNL     1      44.343 -10.805  11.133  1.00  0.00     0.009 A 
HETATM   16  C   UNL     1      43.647 -10.168  12.153  1.00  0.00     0.001 A 
HETATM   17  C   UNL     1      42.324  -9.785  11.955  1.00  0.00     0.009 A 
HETATM   18  C   UNL     1      41.674 -10.031  10.732  1.00  0.00    -0.035 A 
HETATM   19  C   UNL     1      40.282  -9.479  10.574  1.00  0.00     0.050 C 
ENDBRANCH   9  12
ENDBRANCH   7   8
ENDBRANCH   6   7
ENDBRANCH   1   6
BRANCH   2  20
HETATM   20  C   UNL     1      42.053 -14.477   5.675  1.00  0.00     0.234 C 
BRANCH  20  21
HETATM   21  C   UNL     1      42.082 -15.979   5.917  1.00  0.00     0.240 C 
HETATM   22  N   UNL     1      43.270 -16.630   5.631  1.00  0.00    -0.326 N 
HETATM   23  H   UNL     1      44.020 -16.094   5.213  1.00  0.00     0.169 HD
HETATM   24  O   UNL     1      41.084 -16.512   6.403  1.00  0.00    -0.271 OA
BRANCH  22  25
HETATM   25  C   UNL     1      43.570 -17.998   5.824  1.00  0.00     0.037 A 
HETATM   26  C   UNL     1      43.394 -18.679   7.031  1.00  0.00     0.066 A 
HETATM   27  C   UNL     1      43.730 -20.029   7.123  1.00  0.00     0.067 A 
HETATM   28  C   UNL     1      44.242 -20.718   6.031  1.00  0.00     0.036 A 
HETATM   29  C   UNL     1      44.420 -20.049   4.824  1.00  0.00     0.005 A 
HETATM   30  C   UNL     1      44.086 -18.696   4.722  1.00  0.00     0.029 A 
BRANCH  27  31
HETATM   31  O   UNL     1      43.568 -20.720   8.288  1.00  0.00    -0.361 OA
HETATM   32  H   UNL     1      44.426 -20.765   8.742  1.00  0.00     0.217 HD
ENDBRANCH  27  31
ENDBRANCH  22  25
ENDBRANCH  20  21
ENDBRANCH   2  20
BRANCH   3  33
HETATM   33  C   UNL     1      41.575 -15.484   2.755  1.00  0.00    -0.008 A 
HETATM   34  C   UNL     1      42.907 -15.290   2.364  1.00  0.00     0.017 A 
HETATM   35  C   UNL     1      43.608 -16.313   1.720  1.00  0.00     0.043 A 
HETATM   36  C   UNL     1      42.981 -17.528   1.476  1.00  0.00     0.116 A 
HETATM   37  F   UNL     1      43.657 -18.509   0.866  1.00  0.00    -0.206 F 
HETATM   38  C   UNL     1      41.665 -17.743   1.865  1.00  0.00     0.043 A 
HETATM   39  C   UNL     1      40.962 -16.722   2.507  1.00  0.00     0.017 A 
ENDBRANCH   3  33
TORSDOF 9
ENDMDL
MODEL 8
REMARK VINA RESULT:      -8.3      3.592      9.119
REMARK  9 active torsions:
REMARK  status: ('A' for Active; 'I' for Inactive)
REMARK    1  A    between atoms: C_3  and  N_4 
REMARK       I    between atoms: N_4  and  C_5 
REMARK    2  A    between atoms: C_5  and  C_6 
REMARK    3  A    between atoms: C_6  and  S_7 
REMARK    4  A    between atoms: S_7  and  C_8 
REMARK    5  A    between atoms: N_9  and  C_10 
REMARK    6  A    between atoms: C_10  and  C_11 
REMARK       I    between atoms: C_11  and  N_12 
REMARK    7  A    between atoms: N_12  and  C_13 
REMARK    8  A    between atoms: C_15  and  O_16 
REMARK    9  A    between atoms: C_21  and  C_22 
ROOT
HETATM    1  C   UNL     1      41.828 -14.801   4.667  1.00  0.00     0.169 A 
HETATM    2  N   UNL     1      42.430 -15.625   3.747  1.00  0.00    -0.315 N 
HETATM    3  C   UNL     1      42.456 -16.898   4.296  1.00  0.00     0.065 A 
HETATM    4  C   UNL     1      41.814 -16.753   5.513  1.00  0.00     0.150 A 
HETATM    5  N   UNL     1      41.437 -15.457   5.728  1.00  0.00    -0.234 NA
ENDROOT
BRANCH   1   6
HETATM    6  S   UNL     1      41.586 -13.103   4.445  1.00  0.00    -0.083 SA
BRANCH   6   7
HETATM    7  C   UNL     1      39.767 -12.999   4.530  1.00  0.00     0.185 C 
BRANCH   7   8
HETATM    8  C   UNL     1      39.137 -12.271   3.348  1.00  0.00     0.231 C 
HETATM    9  N   UNL     1      39.562 -12.703   2.105  1.00  0.00    -0.326 N 
HETATM   10  H   UNL     1      40.445 -13.198   2.109  1.00  0.00     0.169 HD
HETATM   11  O   UNL     1      38.294 -11.397   3.544  1.00  0.00    -0.272 OA
BRANCH   9  12
HETATM   12  C   UNL     1      39.131 -12.191   0.862  1.00  0.00     0.046 A 
HETATM   13  C   UNL     1      38.088 -12.876   0.195  1.00  0.00    -0.035 A 
HETATM   14  C   UNL     1      37.496 -14.153   0.733  1.00  0.00     0.050 C 
HETATM   15  C   UNL     1      37.615 -12.389  -1.035  1.00  0.00     0.009 A 
HETATM   16  C   UNL     1      38.158 -11.240  -1.597  1.00  0.00     0.001 A 
HETATM   17  C   UNL     1      39.164 -10.550  -0.927  1.00  0.00     0.009 A 
HETATM   18  C   UNL     1      39.645 -10.997   0.317  1.00  0.00    -0.035 A 
HETATM   19  C   UNL     1      40.653 -10.123   1.015  1.00  0.00     0.050 C 
ENDBRANCH   9  12
ENDBRANCH   7   8
ENDBRANCH   6   7
ENDBRANCH   1   6
BRANCH   2  20
HETATM   20  C   UNL     1      42.908 -15.242   2.430  1.00  0.00     0.234 C 
BRANCH  20  21
HETATM   21  C   UNL     1      41.855 -15.188   1.332  1.00  0.00     0.240 C 
HETATM   22  N   UNL     1      42.297 -14.849   0.065  1.00  0.00    -0.326 N 
HETATM   23  H   UNL     1      43.268 -14.588  -0.048  1.00  0.00     0.169 HD
HETATM   24  O   UNL     1      40.699 -15.503   1.617  1.00  0.00    -0.271 OA
BRANCH  22  25
HETATM   25  C   UNL     1      41.535 -14.789  -1.124  1.00  0.00     0.037 A 
HETATM   26  C   UNL     1      40.906 -15.889  -1.711  1.00  0.00     0.066 A 
HETATM   27  C   UNL     1      40.184 -15.727  -2.894  1.00  0.00     0.067 A 
HETATM   28  C   UNL     1      40.078 -14.486  -3.507  1.00  0.00     0.036 A 
HETATM   29  C   UNL     1      40.700 -13.383  -2.930  1.00  0.00     0.005 A 
HETATM   30  C   UNL     1      41.426 -13.535  -1.744  1.00  0.00     0.029 A 
BRANCH  27  31
HETATM   31  O   UNL     1      39.558 -16.784  -3.490  1.00  0.00    -0.361 OA
HETATM   32  H   UNL     1      38.635 -16.537  -3.665  1.00  0.00     0.217 HD
ENDBRANCH  27  31
ENDBRANCH  22  25
ENDBRANCH  20  21
ENDBRANCH   2  20
BRANCH   3  33
HETATM   33  C   UNL     1      42.993 -18.106   3.681  1.00  0.00    -0.008 A 
HETATM   34  C   UNL     1      42.510 -18.571   2.450  1.00  0.00     0.017 A 
HETATM   35  C   UNL     1      43.059 -19.716   1.867  1.00  0.00     0.043 A 
HETATM   36  C   UNL     1      44.093 -20.387   2.507  1.00  0.00     0.116 A 
HETATM   37  F   UNL     1      44.622 -21.479   1.942  1.00  0.00    -0.206 F 
HETATM   38  C   UNL     1      44.592 -19.934   3.722  1.00  0.00     0.043 A 
HETATM   39  C   UNL     1      44.044 -18.792   4.308  1.00  0.00     0.017 A 
ENDBRANCH   3  33
TORSDOF 9
ENDMDL
MODEL 9
REMARK VINA RESULT:      -8.3      3.416      8.270
REMARK  9 active torsions:
REMARK  status: ('A' for Active; 'I' for Inactive)
REMARK    1  A    between atoms: C_3  and  N_4 
REMARK       I    between atoms: N_4  and  C_5 
REMARK    2  A    between atoms: C_5  and  C_6 
REMARK    3  A    between atoms: C_6  and  S_7 
REMARK    4  A    between atoms: S_7  and  C_8 
REMARK    5  A    between atoms: N_9  and  C_10 
REMARK    6  A    between atoms: C_10  and  C_11 
REMARK       I    between atoms: C_11  and  N_12 
REMARK    7  A    between atoms: N_12  and  C_13 
REMARK    8  A    between atoms: C_15  and  O_16 
REMARK    9  A    between atoms: C_21  and  C_22 
ROOT
HETATM    1  C   UNL     1      40.813 -14.566   2.669  1.00  0.00     0.169 A 
HETATM    2  N   UNL     1      41.775 -15.256   3.365  1.00  0.00    -0.315 N 
HETATM    3  C   UNL     1      41.371 -15.295   4.690  1.00  0.00     0.065 A 
HETATM    4  C   UNL     1      40.146 -14.650   4.688  1.00  0.00     0.150 A 
HETATM    5  N   UNL     1      39.819 -14.204   3.439  1.00  0.00    -0.234 NA
ENDROOT
BRANCH   1   6
HETATM    6  S   UNL     1      40.884 -14.234   0.974  1.00  0.00    -0.083 SA
BRANCH   6   7
HETATM    7  C   UNL     1      41.763 -12.636   0.970  1.00  0.00     0.185 C 
BRANCH   7   8
HETATM    8  C   UNL     1      41.492 -11.788  -0.267  1.00  0.00     0.231 C 
HETATM    9  N   UNL     1      42.524 -11.753  -1.187  1.00  0.00    -0.326 N 
HETATM   10  H   UNL     1      43.431 -12.005  -0.813  1.00  0.00     0.169 HD
HETATM   11  O   UNL     1      40.406 -11.226  -0.400  1.00  0.00    -0.272 OA
BRANCH   9  12
HETATM   12  C   UNL     1      42.518 -11.042  -2.406  1.00  0.00     0.046 A 
HETATM   13  C   UNL     1      42.066 -11.723  -3.562  1.00  0.00    -0.035 A 
HETATM   14  C   UNL     1      41.674 -13.177  -3.533  1.00  0.00     0.050 C 
HETATM   15  C   UNL     1      42.025 -11.047  -4.792  1.00  0.00     0.009 A 
HETATM   16  C   UNL     1      42.419  -9.717  -4.882  1.00  0.00     0.001 A 
HETATM   17  C   UNL     1      42.837  -9.039  -3.741  1.00  0.00     0.009 A 
HETATM   18  C   UNL     1      42.868  -9.679  -2.488  1.00  0.00    -0.035 A 
HETATM   19  C   UNL     1      43.226  -8.832  -1.297  1.00  0.00     0.050 C 
ENDBRANCH   9  12
ENDBRANCH   7   8
ENDBRANCH   6   7
ENDBRANCH   1   6
BRANCH   2  20
HETATM   20  C   UNL     1      42.969 -15.869   2.808  1.00  0.00     0.234 C 
BRANCH  20  21
HETATM   21  C   UNL     1      42.997 -17.390   2.812  1.00  0.00     0.240 C 
HETATM   22  N   UNL     1      44.036 -17.990   3.503  1.00  0.00    -0.326 N 
HETATM   23  H   UNL     1      44.752 -17.394   3.900  1.00  0.00     0.169 HD
HETATM   24  O   UNL     1      42.074 -17.992   2.262  1.00  0.00    -0.271 OA
BRANCH  22  25
HETATM   25  C   UNL     1      44.250 -19.372   3.706  1.00  0.00     0.037 A 
HETATM   26  C   UNL     1      44.301 -20.319   2.680  1.00  0.00     0.066 A 
HETATM   27  C   UNL     1      44.508 -21.664   2.986  1.00  0.00     0.067 A 
HETATM   28  C   UNL     1      44.665 -22.087   4.299  1.00  0.00     0.036 A 
HETATM   29  C   UNL     1      44.616 -21.151   5.328  1.00  0.00     0.005 A 
HETATM   30  C   UNL     1      44.409 -19.801   5.032  1.00  0.00     0.029 A 
BRANCH  27  31
HETATM   31  O   UNL     1      44.564 -22.611   2.005  1.00  0.00    -0.361 OA
HETATM   32  H   UNL     1      44.974 -23.412   2.372  1.00  0.00     0.217 HD
ENDBRANCH  27  31
ENDBRANCH  22  25
ENDBRANCH  20  21
ENDBRANCH   2  20
BRANCH   3  33
HETATM   33  C   UNL     1      42.070 -15.929   5.801  1.00  0.00    -0.008 A 
HETATM   34  C   UNL     1      41.671 -17.179   6.293  1.00  0.00     0.017 A 
HETATM   35  C   UNL     1      42.373 -17.780   7.341  1.00  0.00     0.043 A 
HETATM   36  C   UNL     1      43.477 -17.137   7.888  1.00  0.00     0.116 A 
HETATM   37  F   UNL     1      44.152 -17.718   8.887  1.00  0.00    -0.206 F 
HETATM   38  C   UNL     1      43.893 -15.902   7.407  1.00  0.00     0.043 A 
HETATM   39  C   UNL     1      43.192 -15.299   6.361  1.00  0.00     0.017 A 
ENDBRANCH   3  33
TORSDOF 9
ENDMDL
MODEL 10
REMARK VINA RESULT:      -8.2      3.851      8.443
REMARK  9 active torsions:
REMARK  status: ('A' for Active; 'I' for Inactive)
REMARK    1  A    between atoms: C_3  and  N_4 
REMARK       I    between atoms: N_4  and  C_5 
REMARK    2  A    between atoms: C_5  and  C_6 
REMARK    3  A    between atoms: C_6  and  S_7 
REMARK    4  A    between atoms: S_7  and  C_8 
REMARK    5  A    between atoms: N_9  and  C_10 
REMARK    6  A    between atoms: C_10  and  C_11 
REMARK       I    between atoms: C_11  and  N_12 
REMARK    7  A    between atoms: N_12  and  C_13 
REMARK    8  A    between atoms: C_15  and  O_16 
REMARK    9  A    between atoms: C_21  and  C_22 
ROOT
HETATM    1  C   UNL     1      40.812 -14.653   2.168  1.00  0.00     0.169 A 
HETATM    2  N   UNL     1      41.763 -15.295   2.924  1.00  0.00    -0.315 N 
HETATM    3  C   UNL     1      41.331 -15.258   4.240  1.00  0.00     0.065 A 
HETATM    4  C   UNL     1      40.105 -14.621   4.174  1.00  0.00     0.150 A 
HETATM    5  N   UNL     1      39.801 -14.252   2.895  1.00  0.00    -0.234 NA
ENDROOT
BRANCH   1   6
HETATM    6  S   UNL     1      40.917 -14.422   0.458  1.00  0.00    -0.083 SA
BRANCH   6   7
HETATM    7  C   UNL     1      39.776 -13.017   0.228  1.00  0.00     0.185 C 
BRANCH   7   8
HETATM    8  C   UNL     1      38.542 -13.357  -0.600  1.00  0.00     0.231 C 
HETATM    9  N   UNL     1      38.578 -12.913  -1.909  1.00  0.00    -0.326 N 
HETATM   10  H   UNL     1      39.234 -12.160  -2.081  1.00  0.00     0.169 HD
HETATM   11  O   UNL     1      37.628 -14.010  -0.099  1.00  0.00    -0.272 OA
BRANCH   9  12
HETATM   12  C   UNL     1      37.564 -13.100  -2.872  1.00  0.00     0.046 A 
HETATM   13  C   UNL     1      36.666 -12.029  -3.097  1.00  0.00    -0.035 A 
HETATM   14  C   UNL     1      36.722 -10.755  -2.295  1.00  0.00     0.050 C 
HETATM   15  C   UNL     1      35.654 -12.165  -4.061  1.00  0.00     0.009 A 
HETATM   16  C   UNL     1      35.531 -13.337  -4.797  1.00  0.00     0.001 A 
HETATM   17  C   UNL     1      36.430 -14.380  -4.596  1.00  0.00     0.009 A 
HETATM   18  C   UNL     1      37.470 -14.269  -3.655  1.00  0.00    -0.035 A 
HETATM   19  C   UNL     1      38.458 -15.402  -3.590  1.00  0.00     0.050 C 
ENDBRANCH   9  12
ENDBRANCH   7   8
ENDBRANCH   6   7
ENDBRANCH   1   6
BRANCH   2  20
HETATM   20  C   UNL     1      42.971 -15.933   2.429  1.00  0.00     0.234 C 
BRANCH  20  21
HETATM   21  C   UNL     1      43.019 -17.449   2.554  1.00  0.00     0.240 C 
HETATM   22  N   UNL     1      44.025 -17.974   3.348  1.00  0.00    -0.326 N 
HETATM   23  H   UNL     1      44.708 -17.336   3.737  1.00  0.00     0.169 HD
HETATM   24  O   UNL     1      42.139 -18.109   2.001  1.00  0.00    -0.271 OA
BRANCH  22  25
HETATM   25  C   UNL     1      44.246 -19.332   3.672  1.00  0.00     0.037 A 
HETATM   26  C   UNL     1      44.338 -20.359   2.729  1.00  0.00     0.066 A 
HETATM   27  C   UNL     1      44.548 -21.672   3.152  1.00  0.00     0.067 A 
HETATM   28  C   UNL     1      44.668 -21.983   4.500  1.00  0.00     0.036 A 
HETATM   29  C   UNL     1      44.578 -20.967   5.446  1.00  0.00     0.005 A 
HETATM   30  C   UNL     1      44.368 -19.648   5.033  1.00  0.00     0.029 A 
BRANCH  27  31
HETATM   31  O   UNL     1      44.644 -22.696   2.255  1.00  0.00    -0.361 OA
HETATM   32  H   UNL     1      43.766 -23.101   2.154  1.00  0.00     0.217 HD
ENDBRANCH  27  31
ENDBRANCH  22  25
ENDBRANCH  20  21
ENDBRANCH   2  20
BRANCH   3  33
HETATM   33  C   UNL     1      42.011 -15.820   5.401  1.00  0.00    -0.008 A 
HETATM   34  C   UNL     1      43.145 -15.204   5.949  1.00  0.00     0.017 A 
HETATM   35  C   UNL     1      43.764 -15.746   7.078  1.00  0.00     0.043 A 
HETATM   36  C   UNL     1      43.245 -16.894   7.663  1.00  0.00     0.116 A 
HETATM   37  F   UNL     1      43.836 -17.407   8.749  1.00  0.00    -0.206 F 
HETATM   38  C   UNL     1      42.116 -17.513   7.141  1.00  0.00     0.043 A 
HETATM   39  C   UNL     1      41.497 -16.974   6.011  1.00  0.00     0.017 A 
ENDBRANCH   3  33
TORSDOF 9
ENDMDL
