MODEL 1
REMARK VINA RESULT:      -8.7      0.000      0.000
REMARK  7 active torsions:
REMARK  status: ('A' for Active; 'I' for Inactive)
REMARK       I    between atoms: N_2  and  C_3 
REMARK    1  A    between atoms: C_3  and  C_4 
REMARK    2  A    between atoms: C_4  and  C_5 
REMARK    3  A    between atoms: C_5  and  O_6 
REMARK    4  A    between atoms: O_6  and  C_7 
REMARK    5  A    between atoms: C_10  and  N_11 
REMARK       I    between atoms: N_11  and  C_12 
REMARK    6  A    between atoms: C_12  and  C_13 
REMARK    7  A    between atoms: C_15  and  C_16 
ROOT
HETATM    1  N   UNL     1      44.207 -14.640   7.510  1.00  0.00    -0.323 N 
HETATM    2  C   UNL     1      45.101 -13.598   7.340  1.00  0.00     0.256 C 
HETATM    3  O   UNL     1      45.894 -13.457   6.416  1.00  0.00    -0.267 OA
HETATM    4  H   UNL     1      43.692 -14.671   8.379  1.00  0.00     0.169 HD
ENDROOT
BRANCH   1   5
HETATM    5  C   UNL     1      43.982 -15.724   6.634  1.00  0.00     0.035 A 
HETATM    6  C   UNL     1      44.538 -16.992   6.800  1.00  0.00     0.032 A 
HETATM    7  C   UNL     1      44.263 -18.022   5.887  1.00  0.00     0.039 A 
HETATM    8  C   UNL     1      43.434 -17.791   4.794  1.00  0.00     0.068 A 
HETATM    9  C   UNL     1      42.882 -16.521   4.619  1.00  0.00     0.039 A 
HETATM   10  C   UNL     1      43.150 -15.496   5.533  1.00  0.00     0.032 A 
BRANCH   8  11
HETATM   11  O   UNL     1      43.095 -18.700   3.832  1.00  0.00    -0.351 OA
BRANCH  11  12
HETATM   12  C   UNL     1      44.063 -18.952   2.806  1.00  0.00     0.185 C 
BRANCH  12  13
HETATM   13  C   UNL     1      43.695 -20.256   2.113  1.00  0.00     0.129 C 
BRANCH  13  14
HETATM   14  C   UNL     1      44.317 -21.447   2.810  1.00  0.00     0.219 C 
HETATM   15  N   UNL     1      44.592 -21.247   4.143  1.00  0.00    -0.365 N 
HETATM   16  C   UNL     1      45.109 -22.311   4.964  1.00  0.00     0.149 C 
HETATM   17  H   UNL     1      44.173 -20.440   4.597  1.00  0.00     0.161 HD
HETATM   18  O   UNL     1      44.581 -22.485   2.212  1.00  0.00    -0.274 OA
ENDBRANCH  13  14
ENDBRANCH  12  13
ENDBRANCH  11  12
ENDBRANCH   8  11
ENDBRANCH   1   5
BRANCH   2  19
HETATM   19  C   UNL     1      45.102 -12.573   8.425  1.00  0.00     0.033 A 
HETATM   20  C   UNL     1      43.932 -12.419   9.186  1.00  0.00     0.029 A 
HETATM   21  C   UNL     1      43.873 -11.482  10.226  1.00  0.00    -0.023 A 
HETATM   22  C   UNL     1      45.002 -10.698  10.491  1.00  0.00     0.012 A 
HETATM   23  C   UNL     1      46.175 -10.859   9.749  1.00  0.00     0.002 A 
HETATM   24  C   UNL     1      46.230 -11.801   8.721  1.00  0.00     0.017 A 
BRANCH  21  25
HETATM   25  C   UNL     1      42.666 -11.316  11.022  1.00  0.00    -0.002 A 
HETATM   26  C   UNL     1      41.423 -11.007  10.504  1.00  0.00     0.153 A 
HETATM   27  O   UNL     1      40.491 -10.932  11.490  1.00  0.00    -0.334 OA
HETATM   28  C   UNL     1      41.131 -11.201  12.655  1.00  0.00     0.142 A 
HETATM   29  C   UNL     1      42.464 -11.450  12.425  1.00  0.00     0.038 A 
ENDBRANCH  21  25
ENDBRANCH   2  19
TORSDOF 7
ENDMDL
MODEL 2
REMARK VINA RESULT:      -8.2      2.685     10.055
REMARK  7 active torsions:
REMARK  status: ('A' for Active; 'I' for Inactive)
REMARK       I    between atoms: N_2  and  C_3 
REMARK    1  A    between atoms: C_3  and  C_4 
REMARK    2  A    between atoms: C_4  and  C_5 
REMARK    3  A    between atoms: C_5  and  O_6 
REMARK    4  A    between atoms: O_6  and  C_7 
REMARK    5  A    between atoms: C_10  and  N_11 
REMARK       I    between atoms: N_11  and  C_12 
REMARK    6  A    between atoms: C_12  and  C_13 
REMARK    7  A    between atoms: C_15  and  C_16 
ROOT
HETATM    1  N   UNL     1      42.065 -14.946   4.166  1.00  0.00    -0.323 N 
HETATM    2  C   UNL     1      42.738 -16.057   4.643  1.00  0.00     0.256 C 
HETATM    3  O   UNL     1      42.956 -16.332   5.817  1.00  0.00    -0.267 OA
HETATM    4  H   UNL     1      42.057 -14.804   3.166  1.00  0.00     0.169 HD
ENDROOT
BRANCH   1   5
HETATM    5  C   UNL     1      41.445 -13.931   4.928  1.00  0.00     0.035 A 
HETATM    6  C   UNL     1      42.043 -12.710   5.238  1.00  0.00     0.032 A 
HETATM    7  C   UNL     1      41.360 -11.748   5.998  1.00  0.00     0.039 A 
HETATM    8  C   UNL     1      40.072 -12.002   6.461  1.00  0.00     0.068 A 
HETATM    9  C   UNL     1      39.473 -13.226   6.161  1.00  0.00     0.039 A 
HETATM   10  C   UNL     1      40.151 -14.182   5.397  1.00  0.00     0.032 A 
BRANCH   8  11
HETATM   11  O   UNL     1      39.305 -11.157   7.214  1.00  0.00    -0.351 OA
BRANCH  11  12
HETATM   12  C   UNL     1      39.991 -10.129   7.939  1.00  0.00     0.185 C 
BRANCH  12  13
HETATM   13  C   UNL     1      40.331 -10.667   9.321  1.00  0.00     0.129 C 
BRANCH  13  14
HETATM   14  C   UNL     1      41.827 -10.696   9.550  1.00  0.00     0.219 C 
HETATM   15  N   UNL     1      42.224 -11.439  10.638  1.00  0.00    -0.365 N 
HETATM   16  C   UNL     1      43.618 -11.630  10.939  1.00  0.00     0.149 C 
HETATM   17  H   UNL     1      41.543 -12.068  11.054  1.00  0.00     0.161 HD
HETATM   18  O   UNL     1      42.606 -10.071   8.836  1.00  0.00    -0.274 OA
ENDBRANCH  13  14
ENDBRANCH  12  13
ENDBRANCH  11  12
ENDBRANCH   8  11
ENDBRANCH   1   5
BRANCH   2  19
HETATM   19  C   UNL     1      43.269 -16.979   3.597  1.00  0.00     0.033 A 
HETATM   20  C   UNL     1      43.547 -18.304   3.966  1.00  0.00     0.029 A 
HETATM   21  C   UNL     1      44.038 -19.222   3.028  1.00  0.00    -0.023 A 
HETATM   22  C   UNL     1      44.251 -18.791   1.712  1.00  0.00     0.012 A 
HETATM   23  C   UNL     1      43.960 -17.477   1.335  1.00  0.00     0.002 A 
HETATM   24  C   UNL     1      43.462 -16.572   2.272  1.00  0.00     0.017 A 
BRANCH  21  25
HETATM   25  C   UNL     1      44.326 -20.598   3.401  1.00  0.00    -0.002 A 
HETATM   26  C   UNL     1      44.296 -21.668   2.527  1.00  0.00     0.153 A 
HETATM   27  O   UNL     1      44.622 -22.823   3.164  1.00  0.00    -0.334 OA
HETATM   28  C   UNL     1      44.872 -22.501   4.458  1.00  0.00     0.142 A 
HETATM   29  C   UNL     1      44.711 -21.150   4.656  1.00  0.00     0.038 A 
ENDBRANCH  21  25
ENDBRANCH   2  19
TORSDOF 7
ENDMDL
MODEL 3
REMARK VINA RESULT:      -8.1      5.938      9.989
REMARK  7 active torsions:
REMARK  status: ('A' for Active; 'I' for Inactive)
REMARK       I    between atoms: N_2  and  C_3 
REMARK    1  A    between atoms: C_3  and  C_4 
REMARK    2  A    between atoms: C_4  and  C_5 
REMARK    3  A    between atoms: C_5  and  O_6 
REMARK    4  A    between atoms: O_6  and  C_7 
REMARK    5  A    between atoms: C_10  and  N_11 
REMARK       I    between atoms: N_11  and  C_12 
REMARK    6  A    between atoms: C_12  and  C_13 
REMARK    7  A    between atoms: C_15  and  C_16 
ROOT
HETATM    1  N   UNL     1      41.298 -16.271   2.307  1.00  0.00    -0.323 N 
HETATM    2  C   UNL     1      41.995 -15.886   3.439  1.00  0.00     0.256 C 
HETATM    3  O   UNL     1      41.981 -14.779   3.965  1.00  0.00    -0.267 OA
HETATM    4  H   UNL     1      41.495 -17.189   1.934  1.00  0.00     0.169 HD
ENDROOT
BRANCH   1   5
HETATM    5  C   UNL     1      40.389 -15.493   1.558  1.00  0.00     0.035 A 
HETATM    6  C   UNL     1      39.094 -15.185   1.975  1.00  0.00     0.032 A 
HETATM    7  C   UNL     1      38.249 -14.401   1.176  1.00  0.00     0.039 A 
HETATM    8  C   UNL     1      38.689 -13.923  -0.055  1.00  0.00     0.068 A 
HETATM    9  C   UNL     1      39.980 -14.237  -0.481  1.00  0.00     0.039 A 
HETATM   10  C   UNL     1      40.825 -15.012   0.319  1.00  0.00     0.032 A 
BRANCH   8  11
HETATM   11  O   UNL     1      37.966 -13.161  -0.930  1.00  0.00    -0.351 OA
BRANCH  11  12
HETATM   12  C   UNL     1      38.664 -12.636  -2.066  1.00  0.00     0.185 C 
BRANCH  12  13
HETATM   13  C   UNL     1      37.777 -12.806  -3.291  1.00  0.00     0.129 C 
BRANCH  13  14
HETATM   14  C   UNL     1      37.692 -14.256  -3.715  1.00  0.00     0.219 C 
HETATM   15  N   UNL     1      38.907 -14.849  -3.967  1.00  0.00    -0.365 N 
HETATM   16  C   UNL     1      38.999 -16.246  -4.300  1.00  0.00     0.149 C 
HETATM   17  H   UNL     1      39.744 -14.368  -3.648  1.00  0.00     0.161 HD
HETATM   18  O   UNL     1      36.616 -14.831  -3.853  1.00  0.00    -0.274 OA
ENDBRANCH  13  14
ENDBRANCH  12  13
ENDBRANCH  11  12
ENDBRANCH   8  11
ENDBRANCH   1   5
BRANCH   2  19
HETATM   19  C   UNL     1      42.870 -16.935   4.039  1.00  0.00     0.033 A 
HETATM   20  C   UNL     1      43.049 -18.129   3.325  1.00  0.00     0.029 A 
HETATM   21  C   UNL     1      43.867 -19.150   3.829  1.00  0.00    -0.023 A 
HETATM   22  C   UNL     1      44.502 -18.956   5.063  1.00  0.00     0.012 A 
HETATM   23  C   UNL     1      44.341 -17.761   5.770  1.00  0.00     0.002 A 
HETATM   24  C   UNL     1      43.533 -16.747   5.257  1.00  0.00     0.017 A 
BRANCH  21  25
HETATM   25  C   UNL     1      44.061 -20.391   3.095  1.00  0.00    -0.002 A 
HETATM   26  C   UNL     1      44.636 -21.531   3.623  1.00  0.00     0.153 A 
HETATM   27  O   UNL     1      44.668 -22.529   2.702  1.00  0.00    -0.334 OA
HETATM   28  C   UNL     1      44.104 -22.037   1.571  1.00  0.00     0.142 A 
HETATM   29  C   UNL     1      43.709 -20.733   1.759  1.00  0.00     0.038 A 
ENDBRANCH  21  25
ENDBRANCH   2  19
TORSDOF 7
ENDMDL
MODEL 4
REMARK VINA RESULT:      -7.9      2.294     10.178
REMARK  7 active torsions:
REMARK  status: ('A' for Active; 'I' for Inactive)
REMARK       I    between atoms: N_2  and  C_3 
REMARK    1  A    between atoms: C_3  and  C_4 
REMARK    2  A    between atoms: C_4  and  C_5 
REMARK    3  A    between atoms: C_5  and  O_6 
REMARK    4  A    between atoms: O_6  and  C_7 
REMARK    5  A    between atoms: C_10  and  N_11 
REMARK       I    between atoms: N_11  and  C_12 
REMARK    6  A    between atoms: C_12  and  C_13 
REMARK    7  A    between atoms: C_15  and  C_16 
ROOT
HETATM    1  N   UNL     1      43.129 -15.031   5.004  1.00  0.00    -0.323 N 
HETATM    2  C   UNL     1      43.374 -14.878   3.650  1.00  0.00     0.256 C 
HETATM    3  O   UNL     1      43.849 -13.891   3.100  1.00  0.00    -0.267 OA
HETATM    4  H   UNL     1      42.635 -15.863   5.292  1.00  0.00     0.169 HD
ENDROOT
BRANCH   1   5
HETATM    5  C   UNL     1      43.425 -14.113   6.035  1.00  0.00     0.035 A 
HETATM    6  C   UNL     1      42.641 -13.000   6.340  1.00  0.00     0.032 A 
HETATM    7  C   UNL     1      42.998 -12.134   7.384  1.00  0.00     0.039 A 
HETATM    8  C   UNL     1      44.149 -12.369   8.130  1.00  0.00     0.068 A 
HETATM    9  C   UNL     1      44.942 -13.476   7.823  1.00  0.00     0.039 A 
HETATM   10  C   UNL     1      44.582 -14.343   6.787  1.00  0.00     0.032 A 
BRANCH   8  11
HETATM   11  O   UNL     1      44.611 -11.602   9.163  1.00  0.00    -0.351 OA
BRANCH  11  12
HETATM   12  C   UNL     1      44.445 -12.125  10.487  1.00  0.00     0.185 C 
BRANCH  12  13
HETATM   13  C   UNL     1      44.098 -10.970  11.415  1.00  0.00     0.129 C 
BRANCH  13  14
HETATM   14  C   UNL     1      42.725 -10.411  11.112  1.00  0.00     0.219 C 
HETATM   15  N   UNL     1      41.793 -11.353  10.744  1.00  0.00    -0.365 N 
HETATM   16  C   UNL     1      40.422 -10.990  10.503  1.00  0.00     0.149 C 
HETATM   17  H   UNL     1      42.017 -12.330  10.912  1.00  0.00     0.161 HD
HETATM   18  O   UNL     1      42.489  -9.207  11.160  1.00  0.00    -0.274 OA
ENDBRANCH  13  14
ENDBRANCH  12  13
ENDBRANCH  11  12
ENDBRANCH   8  11
ENDBRANCH   1   5
BRANCH   2  19
HETATM   19  C   UNL     1      42.977 -16.033   2.794  1.00  0.00     0.033 A 
HETATM   20  C   UNL     1      43.530 -17.290   3.086  1.00  0.00     0.029 A 
HETATM   21  C   UNL     1      43.189 -18.417   2.327  1.00  0.00    -0.023 A 
HETATM   22  C   UNL     1      42.287 -18.266   1.266  1.00  0.00     0.012 A 
HETATM   23  C   UNL     1      41.720 -17.021   0.981  1.00  0.00     0.002 A 
HETATM   24  C   UNL     1      42.057 -15.906   1.748  1.00  0.00     0.017 A 
BRANCH  21  25
HETATM   25  C   UNL     1      43.755 -19.724   2.623  1.00  0.00    -0.002 A 
HETATM   26  C   UNL     1      44.476 -20.024   3.763  1.00  0.00     0.153 A 
HETATM   27  O   UNL     1      44.862 -21.327   3.764  1.00  0.00    -0.334 OA
HETATM   28  C   UNL     1      44.383 -21.879   2.621  1.00  0.00     0.142 A 
HETATM   29  C   UNL     1      43.692 -20.942   1.888  1.00  0.00     0.038 A 
ENDBRANCH  21  25
ENDBRANCH   2  19
TORSDOF 7
ENDMDL
MODEL 5
REMARK VINA RESULT:      -7.7      5.511      9.399
REMARK  7 active torsions:
REMARK  status: ('A' for Active; 'I' for Inactive)
REMARK       I    between atoms: N_2  and  C_3 
REMARK    1  A    between atoms: C_3  and  C_4 
REMARK    2  A    between atoms: C_4  and  C_5 
REMARK    3  A    between atoms: C_5  and  O_6 
REMARK    4  A    between atoms: O_6  and  C_7 
REMARK    5  A    between atoms: C_10  and  N_11 
REMARK       I    between atoms: N_11  and  C_12 
REMARK    6  A    between atoms: C_12  and  C_13 
REMARK    7  A    between atoms: C_15  and  C_16 
ROOT
HETATM    1  N   UNL     1      42.043 -16.373   2.772  1.00  0.00    -0.323 N 
HETATM    2  C   UNL     1      42.678 -15.887   3.901  1.00  0.00     0.256 C 
HETATM    3  O   UNL     1      42.710 -14.721   4.278  1.00  0.00    -0.267 OA
HETATM    4  H   UNL     1      42.196 -17.343   2.537  1.00  0.00     0.169 HD
ENDROOT
BRANCH   1   5
HETATM    5  C   UNL     1      41.257 -15.643   1.853  1.00  0.00     0.035 A 
HETATM    6  C   UNL     1      39.911 -15.333   2.048  1.00  0.00     0.032 A 
HETATM    7  C   UNL     1      39.197 -14.599   1.089  1.00  0.00     0.039 A 
HETATM    8  C   UNL     1      39.822 -14.173  -0.079  1.00  0.00     0.068 A 
HETATM    9  C   UNL     1      41.166 -14.488  -0.283  1.00  0.00     0.039 A 
HETATM   10  C   UNL     1      41.880 -15.214   0.676  1.00  0.00     0.032 A 
BRANCH   8  11
HETATM   11  O   UNL     1      39.240 -13.462  -1.091  1.00  0.00    -0.351 OA
BRANCH  11  12
HETATM   12  C   UNL     1      38.139 -14.079  -1.770  1.00  0.00     0.185 C 
BRANCH  12  13
HETATM   13  C   UNL     1      38.387 -13.981  -3.268  1.00  0.00     0.129 C 
BRANCH  13  14
HETATM   14  C   UNL     1      39.866 -13.891  -3.578  1.00  0.00     0.219 C 
HETATM   15  N   UNL     1      40.384 -12.618  -3.525  1.00  0.00    -0.365 N 
HETATM   16  C   UNL     1      41.790 -12.377  -3.715  1.00  0.00     0.149 C 
HETATM   17  H   UNL     1      39.820 -11.896  -3.083  1.00  0.00     0.161 HD
HETATM   18  O   UNL     1      40.527 -14.879  -3.886  1.00  0.00    -0.274 OA
ENDBRANCH  13  14
ENDBRANCH  12  13
ENDBRANCH  11  12
ENDBRANCH   8  11
ENDBRANCH   1   5
BRANCH   2  19
HETATM   19  C   UNL     1      43.419 -16.903   4.704  1.00  0.00     0.033 A 
HETATM   20  C   UNL     1      43.579 -18.185   4.157  1.00  0.00     0.029 A 
HETATM   21  C   UNL     1      44.275 -19.181   4.856  1.00  0.00    -0.023 A 
HETATM   22  C   UNL     1      44.807 -18.873   6.115  1.00  0.00     0.012 A 
HETATM   23  C   UNL     1      44.666 -17.592   6.656  1.00  0.00     0.002 A 
HETATM   24  C   UNL     1      43.981 -16.604   5.950  1.00  0.00     0.017 A 
BRANCH  21  25
HETATM   25  C   UNL     1      44.447 -20.512   4.296  1.00  0.00    -0.002 A 
HETATM   26  C   UNL     1      44.377 -20.811   2.949  1.00  0.00     0.153 A 
HETATM   27  O   UNL     1      44.593 -22.135   2.733  1.00  0.00    -0.334 OA
HETATM   28  C   UNL     1      44.811 -22.699   3.947  1.00  0.00     0.142 A 
HETATM   29  C   UNL     1      44.740 -21.749   4.939  1.00  0.00     0.038 A 
ENDBRANCH  21  25
ENDBRANCH   2  19
TORSDOF 7
ENDMDL
MODEL 6
REMARK VINA RESULT:      -7.7      7.435     11.283
REMARK  7 active torsions:
REMARK  status: ('A' for Active; 'I' for Inactive)
REMARK       I    between atoms: N_2  and  C_3 
REMARK    1  A    between atoms: C_3  and  C_4 
REMARK    2  A    between atoms: C_4  and  C_5 
REMARK    3  A    between atoms: C_5  and  O_6 
REMARK    4  A    between atoms: O_6  and  C_7 
REMARK    5  A    between atoms: C_10  and  N_11 
REMARK       I    between atoms: N_11  and  C_12 
REMARK    6  A    between atoms: C_12  and  C_13 
REMARK    7  A    between atoms: C_15  and  C_16 
ROOT
HETATM    1  N   UNL     1      41.726 -16.026   0.375  1.00  0.00    -0.323 N 
HETATM    2  C   UNL     1      41.174 -16.602   1.506  1.00  0.00     0.256 C 
HETATM    3  O   UNL     1      39.985 -16.643   1.799  1.00  0.00    -0.267 OA
HETATM    4  H   UNL     1      42.734 -15.978   0.325  1.00  0.00     0.169 HD
ENDROOT
BRANCH   1   5
HETATM    5  C   UNL     1      41.037 -15.419  -0.698  1.00  0.00     0.035 A 
HETATM    6  C   UNL     1      41.003 -15.931  -1.995  1.00  0.00     0.032 A 
HETATM    7  C   UNL     1      40.291 -15.272  -3.009  1.00  0.00     0.039 A 
HETATM    8  C   UNL     1      39.611 -14.089  -2.736  1.00  0.00     0.068 A 
HETATM    9  C   UNL     1      39.649 -13.568  -1.442  1.00  0.00     0.039 A 
HETATM   10  C   UNL     1      40.353 -14.229  -0.429  1.00  0.00     0.032 A 
BRANCH   8  11
HETATM   11  O   UNL     1      38.891 -13.348  -3.631  1.00  0.00    -0.351 OA
BRANCH  11  12
HETATM   12  C   UNL     1      37.472 -13.291  -3.435  1.00  0.00     0.185 C 
BRANCH  12  13
HETATM   13  C   UNL     1      36.843 -14.468  -4.168  1.00  0.00     0.129 C 
BRANCH  13  14
HETATM   14  C   UNL     1      35.864 -14.001  -5.224  1.00  0.00     0.219 C 
HETATM   15  N   UNL     1      36.164 -12.779  -5.780  1.00  0.00    -0.365 N 
HETATM   16  C   UNL     1      35.376 -12.237  -6.855  1.00  0.00     0.149 C 
HETATM   17  H   UNL     1      37.093 -12.400  -5.616  1.00  0.00     0.161 HD
HETATM   18  O   UNL     1      34.869 -14.655  -5.522  1.00  0.00    -0.274 OA
ENDBRANCH  13  14
ENDBRANCH  12  13
ENDBRANCH  11  12
ENDBRANCH   8  11
ENDBRANCH   1   5
BRANCH   2  19
HETATM   19  C   UNL     1      42.153 -17.194   2.463  1.00  0.00     0.033 A 
HETATM   20  C   UNL     1      42.574 -18.514   2.242  1.00  0.00     0.029 A 
HETATM   21  C   UNL     1      43.500 -19.124   3.100  1.00  0.00    -0.023 A 
HETATM   22  C   UNL     1      43.996 -18.391   4.186  1.00  0.00     0.012 A 
HETATM   23  C   UNL     1      43.594 -17.070   4.400  1.00  0.00     0.002 A 
HETATM   24  C   UNL     1      42.679 -16.467   3.537  1.00  0.00     0.017 A 
BRANCH  21  25
HETATM   25  C   UNL     1      43.945 -20.491   2.877  1.00  0.00    -0.002 A 
HETATM   26  C   UNL     1      43.753 -21.196   1.704  1.00  0.00     0.153 A 
HETATM   27  O   UNL     1      44.289 -22.441   1.793  1.00  0.00    -0.334 OA
HETATM   28  C   UNL     1      44.839 -22.544   3.028  1.00  0.00     0.142 A 
HETATM   29  C   UNL     1      44.662 -21.376   3.732  1.00  0.00     0.038 A 
ENDBRANCH  21  25
ENDBRANCH   2  19
TORSDOF 7
ENDMDL
MODEL 7
REMARK VINA RESULT:      -7.2      6.861     10.005
REMARK  7 active torsions:
REMARK  status: ('A' for Active; 'I' for Inactive)
REMARK       I    between atoms: N_2  and  C_3 
REMARK    1  A    between atoms: C_3  and  C_4 
REMARK    2  A    between atoms: C_4  and  C_5 
REMARK    3  A    between atoms: C_5  and  O_6 
REMARK    4  A    between atoms: O_6  and  C_7 
REMARK    5  A    between atoms: C_10  and  N_11 
REMARK       I    between atoms: N_11  and  C_12 
REMARK    6  A    between atoms: C_12  and  C_13 
REMARK    7  A    between atoms: C_15  and  C_16 
ROOT
HETATM    1  N   UNL     1      42.250 -16.221   0.498  1.00  0.00    -0.323 N 
HETATM    2  C   UNL     1      41.614 -17.032   1.421  1.00  0.00     0.256 C 
HETATM    3  O   UNL     1      40.410 -17.081   1.646  1.00  0.00    -0.267 OA
HETATM    4  H   UNL     1      43.260 -16.218   0.504  1.00  0.00     0.169 HD
ENDROOT
BRANCH   1   5
HETATM    5  C   UNL     1      41.646 -15.326  -0.412  1.00  0.00     0.035 A 
HETATM    6  C   UNL     1      41.547 -13.950  -0.206  1.00  0.00     0.032 A 
HETATM    7  C   UNL     1      40.935 -13.123  -1.161  1.00  0.00     0.039 A 
HETATM    8  C   UNL     1      40.409 -13.667  -2.329  1.00  0.00     0.068 A 
HETATM    9  C   UNL     1      40.497 -15.044  -2.534  1.00  0.00     0.039 A 
HETATM   10  C   UNL     1      41.113 -15.868  -1.586  1.00  0.00     0.032 A 
BRANCH   8  11
HETATM   11  O   UNL     1      39.783 -12.977  -3.329  1.00  0.00    -0.351 OA
BRANCH  11  12
HETATM   12  C   UNL     1      39.544 -11.582  -3.104  1.00  0.00     0.185 C 
BRANCH  12  13
HETATM   13  C   UNL     1      38.332 -11.168  -3.927  1.00  0.00     0.129 C 
BRANCH  13  14
HETATM   14  C   UNL     1      37.191 -12.149  -3.762  1.00  0.00     0.219 C 
HETATM   15  N   UNL     1      37.270 -13.256  -4.575  1.00  0.00    -0.365 N 
HETATM   16  C   UNL     1      36.305 -14.319  -4.480  1.00  0.00     0.149 C 
HETATM   17  H   UNL     1      38.155 -13.441  -5.040  1.00  0.00     0.161 HD
HETATM   18  O   UNL     1      36.262 -11.941  -2.989  1.00  0.00    -0.274 OA
ENDBRANCH  13  14
ENDBRANCH  12  13
ENDBRANCH  11  12
ENDBRANCH   8  11
ENDBRANCH   1   5
BRANCH   2  19
HETATM   19  C   UNL     1      42.514 -17.900   2.236  1.00  0.00     0.033 A 
HETATM   20  C   UNL     1      42.562 -17.682   3.621  1.00  0.00     0.029 A 
HETATM   21  C   UNL     1      43.379 -18.470   4.443  1.00  0.00    -0.023 A 
HETATM   22  C   UNL     1      44.151 -19.480   3.855  1.00  0.00     0.012 A 
HETATM   23  C   UNL     1      44.094 -19.713   2.478  1.00  0.00     0.002 A 
HETATM   24  C   UNL     1      43.271 -18.931   1.668  1.00  0.00     0.017 A 
BRANCH  21  25
HETATM   25  C   UNL     1      43.433 -18.253   5.880  1.00  0.00    -0.002 A 
HETATM   26  C   UNL     1      44.123 -19.057   6.768  1.00  0.00     0.153 A 
HETATM   27  O   UNL     1      43.998 -18.594   8.039  1.00  0.00    -0.334 OA
HETATM   28  C   UNL     1      43.228 -17.479   7.977  1.00  0.00     0.142 A 
HETATM   29  C   UNL     1      42.860 -17.221   6.677  1.00  0.00     0.038 A 
ENDBRANCH  21  25
ENDBRANCH   2  19
TORSDOF 7
ENDMDL
MODEL 8
REMARK VINA RESULT:      -7.1      6.542     10.686
REMARK  7 active torsions:
REMARK  status: ('A' for Active; 'I' for Inactive)
REMARK       I    between atoms: N_2  and  C_3 
REMARK    1  A    between atoms: C_3  and  C_4 
REMARK    2  A    between atoms: C_4  and  C_5 
REMARK    3  A    between atoms: C_5  and  O_6 
REMARK    4  A    between atoms: O_6  and  C_7 
REMARK    5  A    between atoms: C_10  and  N_11 
REMARK       I    between atoms: N_11  and  C_12 
REMARK    6  A    between atoms: C_12  and  C_13 
REMARK    7  A    between atoms: C_15  and  C_16 
ROOT
HETATM    1  N   UNL     1      41.190 -16.172   2.132  1.00  0.00    -0.323 N 
HETATM    2  C   UNL     1      42.251 -15.747   2.911  1.00  0.00     0.256 C 
HETATM    3  O   UNL     1      42.675 -14.601   3.008  1.00  0.00    -0.267 OA
HETATM    4  H   UNL     1      41.027 -17.167   2.075  1.00  0.00     0.169 HD
ENDROOT
BRANCH   1   5
HETATM    5  C   UNL     1      40.342 -15.373   1.334  1.00  0.00     0.035 A 
HETATM    6  C   UNL     1      40.691 -14.875   0.078  1.00  0.00     0.032 A 
HETATM    7  C   UNL     1      39.791 -14.090  -0.658  1.00  0.00     0.039 A 
HETATM    8  C   UNL     1      38.534 -13.788  -0.142  1.00  0.00     0.068 A 
HETATM    9  C   UNL     1      38.184 -14.277   1.117  1.00  0.00     0.039 A 
HETATM   10  C   UNL     1      39.079 -15.065   1.849  1.00  0.00     0.032 A 
BRANCH   8  11
HETATM   11  O   UNL     1      37.573 -13.031  -0.751  1.00  0.00    -0.351 OA
BRANCH  11  12
HETATM   12  C   UNL     1      37.866 -11.641  -0.943  1.00  0.00     0.185 C 
BRANCH  12  13
HETATM   13  C   UNL     1      38.049 -11.394  -2.433  1.00  0.00     0.129 C 
BRANCH  13  14
HETATM   14  C   UNL     1      36.784 -11.703  -3.204  1.00  0.00     0.219 C 
HETATM   15  N   UNL     1      35.643 -11.145  -2.676  1.00  0.00    -0.365 N 
HETATM   16  C   UNL     1      34.373 -11.280  -3.339  1.00  0.00     0.149 C 
HETATM   17  H   UNL     1      35.753 -10.417  -1.975  1.00  0.00     0.161 HD
HETATM   18  O   UNL     1      36.788 -12.425  -4.197  1.00  0.00    -0.274 OA
ENDBRANCH  13  14
ENDBRANCH  12  13
ENDBRANCH  11  12
ENDBRANCH   8  11
ENDBRANCH   1   5
BRANCH   2  19
HETATM   19  C   UNL     1      42.954 -16.820   3.673  1.00  0.00     0.033 A 
HETATM   20  C   UNL     1      43.164 -18.052   3.033  1.00  0.00     0.029 A 
HETATM   21  C   UNL     1      43.828 -19.097   3.691  1.00  0.00    -0.023 A 
HETATM   22  C   UNL     1      44.275 -18.890   5.002  1.00  0.00     0.012 A 
HETATM   23  C   UNL     1      44.083 -17.660   5.638  1.00  0.00     0.002 A 
HETATM   24  C   UNL     1      43.431 -16.622   4.973  1.00  0.00     0.017 A 
BRANCH  21  25
HETATM   25  C   UNL     1      44.053 -20.375   3.035  1.00  0.00    -0.002 A 
HETATM   26  C   UNL     1      44.600 -21.485   3.651  1.00  0.00     0.153 A 
HETATM   27  O   UNL     1      44.673 -22.532   2.788  1.00  0.00    -0.334 OA
HETATM   28  C   UNL     1      44.164 -22.102   1.606  1.00  0.00     0.142 A 
HETATM   29  C   UNL     1      43.763 -20.790   1.704  1.00  0.00     0.038 A 
ENDBRANCH  21  25
ENDBRANCH   2  19
TORSDOF 7
ENDMDL
MODEL 9
REMARK VINA RESULT:      -6.9      6.589      9.854
REMARK  7 active torsions:
REMARK  status: ('A' for Active; 'I' for Inactive)
REMARK       I    between atoms: N_2  and  C_3 
REMARK    1  A    between atoms: C_3  and  C_4 
REMARK    2  A    between atoms: C_4  and  C_5 
REMARK    3  A    between atoms: C_5  and  O_6 
REMARK    4  A    between atoms: O_6  and  C_7 
REMARK    5  A    between atoms: C_10  and  N_11 
REMARK       I    between atoms: N_11  and  C_12 
REMARK    6  A    between atoms: C_12  and  C_13 
REMARK    7  A    between atoms: C_15  and  C_16 
ROOT
HETATM    1  N   UNL     1      41.705 -16.224   1.494  1.00  0.00    -0.323 N 
HETATM    2  C   UNL     1      41.618 -17.605   1.526  1.00  0.00     0.256 C 
HETATM    3  O   UNL     1      40.811 -18.301   0.920  1.00  0.00    -0.267 OA
HETATM    4  H   UNL     1      42.356 -15.788   2.132  1.00  0.00     0.169 HD
ENDROOT
BRANCH   1   5
HETATM    5  C   UNL     1      40.927 -15.336   0.720  1.00  0.00     0.035 A 
HETATM    6  C   UNL     1      41.312 -14.842  -0.526  1.00  0.00     0.032 A 
HETATM    7  C   UNL     1      40.481 -13.965  -1.239  1.00  0.00     0.039 A 
HETATM    8  C   UNL     1      39.257 -13.568  -0.708  1.00  0.00     0.068 A 
HETATM    9  C   UNL     1      38.872 -14.052   0.542  1.00  0.00     0.039 A 
HETATM   10  C   UNL     1      39.697 -14.932   1.250  1.00  0.00     0.032 A 
BRANCH   8  11
HETATM   11  O   UNL     1      38.363 -12.716  -1.294  1.00  0.00    -0.351 OA
BRANCH  11  12
HETATM   12  C   UNL     1      37.731 -13.165  -2.499  1.00  0.00     0.185 C 
BRANCH  12  13
HETATM   13  C   UNL     1      37.178 -11.949  -3.229  1.00  0.00     0.129 C 
BRANCH  13  14
HETATM   14  C   UNL     1      38.290 -11.086  -3.786  1.00  0.00     0.219 C 
HETATM   15  N   UNL     1      39.457 -11.762  -4.056  1.00  0.00    -0.365 N 
HETATM   16  C   UNL     1      40.579 -11.098  -4.665  1.00  0.00     0.149 C 
HETATM   17  H   UNL     1      39.421 -12.778  -4.077  1.00  0.00     0.161 HD
HETATM   18  O   UNL     1      38.156  -9.876  -3.944  1.00  0.00    -0.274 OA
ENDBRANCH  13  14
ENDBRANCH  12  13
ENDBRANCH  11  12
ENDBRANCH   8  11
ENDBRANCH   1   5
BRANCH   2  19
HETATM   19  C   UNL     1      42.594 -18.286   2.425  1.00  0.00     0.033 A 
HETATM   20  C   UNL     1      42.604 -17.925   3.781  1.00  0.00     0.029 A 
HETATM   21  C   UNL     1      43.490 -18.536   4.679  1.00  0.00    -0.023 A 
HETATM   22  C   UNL     1      44.370 -19.514   4.197  1.00  0.00     0.012 A 
HETATM   23  C   UNL     1      44.352 -19.890   2.850  1.00  0.00     0.002 A 
HETATM   24  C   UNL     1      43.461 -19.284   1.965  1.00  0.00     0.017 A 
BRANCH  21  25
HETATM   25  C   UNL     1      43.506 -18.170   6.087  1.00  0.00    -0.002 A 
HETATM   26  C   UNL     1      44.161 -18.882   7.073  1.00  0.00     0.153 A 
HETATM   27  O   UNL     1      44.005 -18.287   8.285  1.00  0.00    -0.334 OA
HETATM   28  C   UNL     1      43.250 -17.179   8.084  1.00  0.00     0.142 A 
HETATM   29  C   UNL     1      42.922 -17.056   6.754  1.00  0.00     0.038 A 
ENDBRANCH  21  25
ENDBRANCH   2  19
TORSDOF 7
ENDMDL
MODEL 10
REMARK VINA RESULT:      -6.9      6.697     10.186
REMARK  7 active torsions:
REMARK  status: ('A' for Active; 'I' for Inactive)
REMARK       I    between atoms: N_2  and  C_3 
REMARK    1  A    between atoms: C_3  and  C_4 
REMARK    2  A    between atoms: C_4  and  C_5 
REMARK    3  A    between atoms: C_5  and  O_6 
REMARK    4  A    between atoms: O_6  and  C_7 
REMARK    5  A    between atoms: C_10  and  N_11 
REMARK       I    between atoms: N_11  and  C_12 
REMARK    6  A    between atoms: C_12  and  C_13 
REMARK    7  A    between atoms: C_15  and  C_16 
ROOT
HETATM    1  N   UNL     1      41.217 -16.157   1.914  1.00  0.00    -0.323 N 
HETATM    2  C   UNL     1      41.399 -17.506   1.663  1.00  0.00     0.256 C 
HETATM    3  O   UNL     1      40.783 -18.188   0.852  1.00  0.00    -0.267 OA
HETATM    4  H   UNL     1      41.728 -15.759   2.689  1.00  0.00     0.169 HD
ENDROOT
BRANCH   1   5
HETATM    5  C   UNL     1      40.331 -15.277   1.255  1.00  0.00     0.035 A 
HETATM    6  C   UNL     1      40.653 -14.562   0.102  1.00  0.00     0.032 A 
HETATM    7  C   UNL     1      39.716 -13.709  -0.499  1.00  0.00     0.039 A 
HETATM    8  C   UNL     1      38.447 -13.557   0.053  1.00  0.00     0.068 A 
HETATM    9  C   UNL     1      38.123 -14.263   1.212  1.00  0.00     0.039 A 
HETATM   10  C   UNL     1      39.055 -15.119   1.807  1.00  0.00     0.032 A 
BRANCH   8  11
HETATM   11  O   UNL     1      37.450 -12.755  -0.427  1.00  0.00    -0.351 OA
BRANCH  11  12
HETATM   12  C   UNL     1      37.177 -11.550   0.301  1.00  0.00     0.185 C 
BRANCH  12  13
HETATM   13  C   UNL     1      35.670 -11.429   0.475  1.00  0.00     0.129 C 
BRANCH  13  14
HETATM   14  C   UNL     1      35.058 -10.558  -0.601  1.00  0.00     0.219 C 
HETATM   15  N   UNL     1      35.468 -10.858  -1.879  1.00  0.00    -0.365 N 
HETATM   16  C   UNL     1      34.914 -10.174  -3.017  1.00  0.00     0.149 C 
HETATM   17  H   UNL     1      35.950 -11.740  -2.027  1.00  0.00     0.161 HD
HETATM   18  O   UNL     1      34.288  -9.641  -0.333  1.00  0.00    -0.274 OA
ENDBRANCH  13  14
ENDBRANCH  12  13
ENDBRANCH  11  12
ENDBRANCH   8  11
ENDBRANCH   1   5
BRANCH   2  19
HETATM   19  C   UNL     1      42.431 -18.179   2.504  1.00  0.00     0.033 A 
HETATM   20  C   UNL     1      42.480 -17.856   3.869  1.00  0.00     0.029 A 
HETATM   21  C   UNL     1      43.419 -18.462   4.715  1.00  0.00    -0.023 A 
HETATM   22  C   UNL     1      44.312 -19.395   4.172  1.00  0.00     0.012 A 
HETATM   23  C   UNL     1      44.256 -19.733   2.816  1.00  0.00     0.002 A 
HETATM   24  C   UNL     1      43.312 -19.133   1.984  1.00  0.00     0.017 A 
BRANCH  21  25
HETATM   25  C   UNL     1      43.477 -18.136   6.132  1.00  0.00    -0.002 A 
HETATM   26  C   UNL     1      44.128 -18.896   7.084  1.00  0.00     0.153 A 
HETATM   27  O   UNL     1      44.018 -18.331   8.315  1.00  0.00    -0.334 OA
HETATM   28  C   UNL     1      43.296 -17.193   8.160  1.00  0.00     0.142 A 
HETATM   29  C   UNL     1      42.944 -17.022   6.841  1.00  0.00     0.038 A 
ENDBRANCH  21  25
ENDBRANCH   2  19
TORSDOF 7
ENDMDL
