MODEL 1
REMARK VINA RESULT:     -10.3      0.000      0.000
REMARK  6 active torsions:
REMARK  status: ('A' for Active; 'I' for Inactive)
REMARK    1  A    between atoms: C_2  and  C_3 
REMARK    2  A    between atoms: C_3  and  C_4 
REMARK    3  A    between atoms: C_6  and  N_7 
REMARK    4  A    between atoms: C_9  and  C_10 
REMARK    5  A    between atoms: C_16  and  N_17 
REMARK       I    between atoms: N_17  and  C_18 
REMARK    6  A    between atoms: C_18  and  C_19 
ROOT
HETATM    1  N   UNL     1      41.996 -14.173   1.987  1.00  0.00    -0.044 N 
HETATM    2  N   UNL     1      41.931 -13.295   0.947  1.00  0.00    -0.148 NA
HETATM    3  C   UNL     1      41.741 -14.079  -0.120  1.00  0.00     0.115 A 
HETATM    4  C   UNL     1      41.636 -15.443   0.229  1.00  0.00     0.087 A 
HETATM    5  C   UNL     1      41.788 -15.487   1.596  1.00  0.00     0.152 A 
ENDROOT
BRANCH   5   6
HETATM    6  N   UNL     1      41.744 -16.589   2.455  1.00  0.00    -0.310 N 
HETATM    7  C   UNL     1      42.902 -17.351   2.852  1.00  0.00     0.236 C 
HETATM    8  O   UNL     1      44.020 -17.006   2.488  1.00  0.00    -0.272 OA
HETATM    9  H   UNL     1      40.816 -16.879   2.778  1.00  0.00     0.170 HD
BRANCH   7  10
HETATM   10  C   UNL     1      42.673 -18.560   3.753  1.00  0.00     0.149 C 
HETATM   11  C   UNL     1      42.992 -18.264   5.198  1.00  0.00    -0.007 A 
HETATM   12  C   UNL     1      44.026 -18.952   5.838  1.00  0.00     0.083 A 
HETATM   13  C   UNL     1      42.259 -17.308   5.920  1.00  0.00     0.011 A 
HETATM   14  C   UNL     1      44.326 -18.690   7.176  1.00  0.00     0.038 A 
HETATM   15  O   UNL     1      44.806 -19.896   5.218  1.00  0.00    -0.310 OA
HETATM   16  C   UNL     1      43.602 -17.732   7.883  1.00  0.00     0.003 A 
HETATM   17  C   UNL     1      42.568 -17.041   7.254  1.00  0.00     0.001 A 
HETATM   18  C   UNL     1      44.431 -20.348   3.979  1.00  0.00     0.083 A 
HETATM   19  C   UNL     1      43.410 -19.765   3.224  1.00  0.00    -0.007 A 
HETATM   20  C   UNL     1      45.128 -21.453   3.491  1.00  0.00     0.038 A 
HETATM   21  C   UNL     1      43.078 -20.324   1.979  1.00  0.00     0.011 A 
HETATM   22  C   UNL     1      43.770 -21.435   1.497  1.00  0.00     0.001 A 
HETATM   23  C   UNL     1      44.797 -21.998   2.250  1.00  0.00     0.003 A 
ENDBRANCH   7  10
ENDBRANCH   5   6
BRANCH   1  24
HETATM   24  C   UNL     1      42.247 -13.704   3.284  1.00  0.00     0.732 A 
HETATM   25  N   UNL     1      43.201 -14.176   4.026  1.00  0.00    -0.067 NA
HETATM   26  C   UNL     1      43.337 -13.578   5.266  1.00  0.00     0.059 A 
HETATM   27  C   UNL     1      42.508 -12.631   5.735  1.00  0.00     0.102 A 
HETATM   28  C   UNL     1      41.407 -12.158   4.880  1.00  0.00     0.261 A 
HETATM   29  N   UNL     1      41.371 -12.719   3.644  1.00  0.00    -0.152 N 
HETATM   30  O   UNL     1      40.603 -11.324   5.269  1.00  0.00    -0.268 OA
HETATM   31  H   UNL     1      40.642 -12.425   3.001  1.00  0.00     0.187 HD
BRANCH  26  32
HETATM   32  C   UNL     1      44.508 -14.041   6.103  1.00  0.00     0.060 C 
BRANCH  32  33
HETATM   33  C   UNL     1      44.309 -13.713   7.585  1.00  0.00     0.002 C 
HETATM   34  C   UNL     1      45.468 -12.900   8.139  1.00  0.00     0.005 C 
ENDBRANCH  32  33
ENDBRANCH  26  32
ENDBRANCH   1  24
BRANCH   3  35
HETATM   35  C   UNL     1      41.657 -13.549  -1.512  1.00  0.00     0.105 A 
HETATM   36  O   UNL     1      40.591 -13.747  -2.346  1.00  0.00    -0.320 OA
HETATM   37  C   UNL     1      40.879 -13.134  -3.522  1.00  0.00     0.142 A 
HETATM   38  C   UNL     1      42.114 -12.536  -3.463  1.00  0.00     0.027 A 
HETATM   39  C   UNL     1      42.618 -12.803  -2.167  1.00  0.00     0.041 A 
ENDBRANCH   3  35
TORSDOF 6
ENDMDL
MODEL 2
REMARK VINA RESULT:      -9.8      1.972      3.980
REMARK  6 active torsions:
REMARK  status: ('A' for Active; 'I' for Inactive)
REMARK    1  A    between atoms: C_2  and  C_3 
REMARK    2  A    between atoms: C_3  and  C_4 
REMARK    3  A    between atoms: C_6  and  N_7 
REMARK    4  A    between atoms: C_9  and  C_10 
REMARK    5  A    between atoms: C_16  and  N_17 
REMARK       I    between atoms: N_17  and  C_18 
REMARK    6  A    between atoms: C_18  and  C_19 
ROOT
HETATM    1  N   UNL     1      41.313 -15.200   2.099  1.00  0.00    -0.044 N 
HETATM    2  N   UNL     1      40.487 -14.794   1.094  1.00  0.00    -0.148 NA
HETATM    3  C   UNL     1      41.031 -15.333  -0.003  1.00  0.00     0.115 A 
HETATM    4  C   UNL     1      42.167 -16.118   0.293  1.00  0.00     0.087 A 
HETATM    5  C   UNL     1      42.329 -16.036   1.657  1.00  0.00     0.152 A 
ENDROOT
BRANCH   5   6
HETATM    6  N   UNL     1      43.286 -16.646   2.472  1.00  0.00    -0.310 N 
HETATM    7  C   UNL     1      43.031 -17.808   3.286  1.00  0.00     0.236 C 
HETATM    8  O   UNL     1      41.940 -18.364   3.242  1.00  0.00    -0.272 OA
HETATM    9  H   UNL     1      44.207 -16.199   2.508  1.00  0.00     0.170 HD
BRANCH   7  10
HETATM   10  C   UNL     1      44.172 -18.317   4.162  1.00  0.00     0.149 C 
HETATM   11  C   UNL     1      44.370 -19.808   4.033  1.00  0.00    -0.007 A 
HETATM   12  C   UNL     1      44.176 -20.635   5.141  1.00  0.00     0.083 A 
HETATM   13  C   UNL     1      44.755 -20.382   2.810  1.00  0.00     0.011 A 
HETATM   14  C   UNL     1      44.362 -22.014   5.034  1.00  0.00     0.038 A 
HETATM   15  O   UNL     1      43.791 -20.172   6.375  1.00  0.00    -0.310 OA
HETATM   16  C   UNL     1      44.733 -22.579   3.815  1.00  0.00     0.003 A 
HETATM   17  C   UNL     1      44.929 -21.763   2.703  1.00  0.00     0.001 A 
HETATM   18  C   UNL     1      43.797 -18.819   6.600  1.00  0.00     0.083 A 
HETATM   19  C   UNL     1      43.986 -17.872   5.591  1.00  0.00    -0.007 A 
HETATM   20  C   UNL     1      43.609 -18.416   7.923  1.00  0.00     0.038 A 
HETATM   21  C   UNL     1      44.009 -16.509   5.931  1.00  0.00     0.011 A 
HETATM   22  C   UNL     1      43.831 -16.108   7.255  1.00  0.00     0.001 A 
HETATM   23  C   UNL     1      43.627 -17.060   8.250  1.00  0.00     0.003 A 
ENDBRANCH   7  10
ENDBRANCH   5   6
BRANCH   1  24
HETATM   24  C   UNL     1      41.081 -14.772   3.414  1.00  0.00     0.732 A 
HETATM   25  N   UNL     1      41.187 -13.531   3.775  1.00  0.00    -0.067 NA
HETATM   26  C   UNL     1      40.887 -13.272   5.099  1.00  0.00     0.059 A 
HETATM   27  C   UNL     1      40.582 -14.224   5.997  1.00  0.00     0.102 A 
HETATM   28  C   UNL     1      40.520 -15.627   5.558  1.00  0.00     0.261 A 
HETATM   29  N   UNL     1      40.742 -15.813   4.232  1.00  0.00    -0.152 N 
HETATM   30  O   UNL     1      40.282 -16.537   6.339  1.00  0.00    -0.268 OA
HETATM   31  H   UNL     1      40.701 -16.759   3.863  1.00  0.00     0.187 HD
BRANCH  26  32
HETATM   32  C   UNL     1      40.903 -11.818   5.514  1.00  0.00     0.060 C 
BRANCH  32  33
HETATM   33  C   UNL     1      39.489 -11.280   5.746  1.00  0.00     0.002 C 
HETATM   34  C   UNL     1      38.721 -11.140   4.442  1.00  0.00     0.005 C 
ENDBRANCH  32  33
ENDBRANCH  26  32
ENDBRANCH   1  24
BRANCH   3  35
HETATM   35  C   UNL     1      40.485 -15.111  -1.372  1.00  0.00     0.105 A 
HETATM   36  O   UNL     1      39.476 -14.234  -1.664  1.00  0.00    -0.320 OA
HETATM   37  C   UNL     1      39.243 -14.315  -2.999  1.00  0.00     0.142 A 
HETATM   38  C   UNL     1      40.089 -15.228  -3.580  1.00  0.00     0.027 A 
HETATM   39  C   UNL     1      40.891 -15.742  -2.532  1.00  0.00     0.041 A 
ENDBRANCH   3  35
TORSDOF 6
ENDMDL
MODEL 3
REMARK VINA RESULT:      -9.8      1.532      3.385
REMARK  6 active torsions:
REMARK  status: ('A' for Active; 'I' for Inactive)
REMARK    1  A    between atoms: C_2  and  C_3 
REMARK    2  A    between atoms: C_3  and  C_4 
REMARK    3  A    between atoms: C_6  and  N_7 
REMARK    4  A    between atoms: C_9  and  C_10 
REMARK    5  A    between atoms: C_16  and  N_17 
REMARK       I    between atoms: N_17  and  C_18 
REMARK    6  A    between atoms: C_18  and  C_19 
ROOT
HETATM    1  N   UNL     1      42.016 -15.190   2.169  1.00  0.00    -0.044 N 
HETATM    2  N   UNL     1      41.147 -14.674   1.256  1.00  0.00    -0.148 NA
HETATM    3  C   UNL     1      41.354 -15.417   0.163  1.00  0.00     0.115 A 
HETATM    4  C   UNL     1      42.311 -16.433   0.380  1.00  0.00     0.087 A 
HETATM    5  C   UNL     1      42.719 -16.284   1.685  1.00  0.00     0.152 A 
ENDROOT
BRANCH   5   6
HETATM    6  N   UNL     1      43.634 -17.045   2.417  1.00  0.00    -0.310 N 
HETATM    7  C   UNL     1      43.262 -18.018   3.414  1.00  0.00     0.236 C 
HETATM    8  O   UNL     1      42.080 -18.268   3.618  1.00  0.00    -0.272 OA
HETATM    9  H   UNL     1      44.626 -16.856   2.246  1.00  0.00     0.170 HD
BRANCH   7  10
HETATM   10  C   UNL     1      44.388 -18.725   4.163  1.00  0.00     0.149 C 
HETATM   11  C   UNL     1      44.505 -20.179   3.777  1.00  0.00    -0.007 A 
HETATM   12  C   UNL     1      44.286 -21.174   4.732  1.00  0.00     0.083 A 
HETATM   13  C   UNL     1      44.841 -20.554   2.465  1.00  0.00     0.011 A 
HETATM   14  C   UNL     1      44.397 -22.521   4.387  1.00  0.00     0.038 A 
HETATM   15  O   UNL     1      43.944 -20.911   6.035  1.00  0.00    -0.310 OA
HETATM   16  C   UNL     1      44.720 -22.886   3.081  1.00  0.00     0.003 A 
HETATM   17  C   UNL     1      44.941 -21.902   2.120  1.00  0.00     0.001 A 
HETATM   18  C   UNL     1      44.024 -19.618   6.488  1.00  0.00     0.083 A 
HETATM   19  C   UNL     1      44.247 -18.523   5.651  1.00  0.00    -0.007 A 
HETATM   20  C   UNL     1      43.878 -19.439   7.864  1.00  0.00     0.038 A 
HETATM   21  C   UNL     1      44.346 -17.241   6.218  1.00  0.00     0.011 A 
HETATM   22  C   UNL     1      44.209 -17.064   7.594  1.00  0.00     0.001 A 
HETATM   23  C   UNL     1      43.971 -18.163   8.417  1.00  0.00     0.003 A 
ENDBRANCH   7  10
ENDBRANCH   5   6
BRANCH   1  24
HETATM   24  C   UNL     1      42.118 -14.614   3.443  1.00  0.00     0.732 A 
HETATM   25  N   UNL     1      43.247 -14.506   4.074  1.00  0.00    -0.067 NA
HETATM   26  C   UNL     1      43.179 -13.880   5.305  1.00  0.00     0.059 A 
HETATM   27  C   UNL     1      42.033 -13.473   5.875  1.00  0.00     0.102 A 
HETATM   28  C   UNL     1      40.768 -13.659   5.147  1.00  0.00     0.261 A 
HETATM   29  N   UNL     1      40.902 -14.202   3.911  1.00  0.00    -0.152 N 
HETATM   30  O   UNL     1      39.692 -13.339   5.633  1.00  0.00    -0.268 OA
HETATM   31  H   UNL     1      40.066 -14.345   3.352  1.00  0.00     0.187 HD
BRANCH  26  32
HETATM   32  C   UNL     1      44.498 -13.651   6.008  1.00  0.00     0.060 C 
BRANCH  32  33
HETATM   33  C   UNL     1      44.317 -13.536   7.524  1.00  0.00     0.002 C 
HETATM   34  C   UNL     1      45.530 -12.901   8.186  1.00  0.00     0.005 C 
ENDBRANCH  32  33
ENDBRANCH  26  32
ENDBRANCH   1  24
BRANCH   3  35
HETATM   35  C   UNL     1      40.647 -15.177  -1.128  1.00  0.00     0.105 A 
HETATM   36  O   UNL     1      39.557 -14.362  -1.266  1.00  0.00    -0.320 OA
HETATM   37  C   UNL     1      39.185 -14.403  -2.570  1.00  0.00     0.142 A 
HETATM   38  C   UNL     1      40.019 -15.229  -3.283  1.00  0.00     0.027 A 
HETATM   39  C   UNL     1      40.963 -15.729  -2.354  1.00  0.00     0.041 A 
ENDBRANCH   3  35
TORSDOF 6
ENDMDL
MODEL 4
REMARK VINA RESULT:      -9.8      1.148      1.892
REMARK  6 active torsions:
REMARK  status: ('A' for Active; 'I' for Inactive)
REMARK    1  A    between atoms: C_2  and  C_3 
REMARK    2  A    between atoms: C_3  and  C_4 
REMARK    3  A    between atoms: C_6  and  N_7 
REMARK    4  A    between atoms: C_9  and  C_10 
REMARK    5  A    between atoms: C_16  and  N_17 
REMARK       I    between atoms: N_17  and  C_18 
REMARK    6  A    between atoms: C_18  and  C_19 
ROOT
HETATM    1  N   UNL     1      41.707 -14.210   1.976  1.00  0.00    -0.044 N 
HETATM    2  N   UNL     1      41.668 -13.333   0.934  1.00  0.00    -0.148 NA
HETATM    3  C   UNL     1      41.684 -14.122  -0.147  1.00  0.00     0.115 A 
HETATM    4  C   UNL     1      41.684 -15.493   0.192  1.00  0.00     0.087 A 
HETATM    5  C   UNL     1      41.683 -15.535   1.567  1.00  0.00     0.152 A 
ENDROOT
BRANCH   5   6
HETATM    6  N   UNL     1      41.657 -16.643   2.417  1.00  0.00    -0.310 N 
HETATM    7  C   UNL     1      42.834 -17.259   2.979  1.00  0.00     0.236 C 
HETATM    8  O   UNL     1      43.940 -16.772   2.775  1.00  0.00    -0.272 OA
HETATM    9  H   UNL     1      40.737 -17.051   2.608  1.00  0.00     0.170 HD
BRANCH   7  10
HETATM   10  C   UNL     1      42.634 -18.498   3.846  1.00  0.00     0.149 C 
HETATM   11  C   UNL     1      42.964 -18.240   5.296  1.00  0.00    -0.007 A 
HETATM   12  C   UNL     1      44.016 -18.929   5.904  1.00  0.00     0.083 A 
HETATM   13  C   UNL     1      42.223 -17.318   6.053  1.00  0.00     0.011 A 
HETATM   14  C   UNL     1      44.326 -18.703   7.245  1.00  0.00     0.038 A 
HETATM   15  O   UNL     1      44.804 -19.842   5.248  1.00  0.00    -0.310 OA
HETATM   16  C   UNL     1      43.594 -17.778   7.988  1.00  0.00     0.003 A 
HETATM   17  C   UNL     1      42.543 -17.085   7.391  1.00  0.00     0.001 A 
HETATM   18  C   UNL     1      44.422 -20.262   3.999  1.00  0.00     0.083 A 
HETATM   19  C   UNL     1      43.384 -19.675   3.273  1.00  0.00    -0.007 A 
HETATM   20  C   UNL     1      45.132 -21.342   3.471  1.00  0.00     0.038 A 
HETATM   21  C   UNL     1      43.048 -20.202   2.015  1.00  0.00     0.011 A 
HETATM   22  C   UNL     1      43.752 -21.286   1.492  1.00  0.00     0.001 A 
HETATM   23  C   UNL     1      44.797 -21.855   2.218  1.00  0.00     0.003 A 
ENDBRANCH   7  10
ENDBRANCH   5   6
BRANCH   1  24
HETATM   24  C   UNL     1      41.758 -13.731   3.293  1.00  0.00     0.732 A 
HETATM   25  N   UNL     1      40.745 -13.163   3.871  1.00  0.00    -0.067 NA
HETATM   26  C   UNL     1      40.951 -12.781   5.184  1.00  0.00     0.059 A 
HETATM   27  C   UNL     1      42.127 -12.900   5.823  1.00  0.00     0.102 A 
HETATM   28  C   UNL     1      43.266 -13.505   5.115  1.00  0.00     0.261 A 
HETATM   29  N   UNL     1      42.985 -13.937   3.859  1.00  0.00    -0.152 N 
HETATM   30  O   UNL     1      44.368 -13.606   5.635  1.00  0.00    -0.268 OA
HETATM   31  H   UNL     1      43.727 -14.375   3.321  1.00  0.00     0.187 HD
BRANCH  26  32
HETATM   32  C   UNL     1      39.751 -12.213   5.908  1.00  0.00     0.060 C 
BRANCH  32  33
HETATM   33  C   UNL     1      40.158 -11.144   6.925  1.00  0.00     0.002 C 
HETATM   34  C   UNL     1      39.460 -11.348   8.261  1.00  0.00     0.005 C 
ENDBRANCH  32  33
ENDBRANCH  26  32
ENDBRANCH   1  24
BRANCH   3  35
HETATM   35  C   UNL     1      41.704 -13.590  -1.539  1.00  0.00     0.105 A 
HETATM   36  O   UNL     1      40.809 -13.947  -2.510  1.00  0.00    -0.320 OA
HETATM   37  C   UNL     1      41.148 -13.275  -3.640  1.00  0.00     0.142 A 
HETATM   38  C   UNL     1      42.249 -12.483  -3.416  1.00  0.00     0.027 A 
HETATM   39  C   UNL     1      42.608 -12.686  -2.061  1.00  0.00     0.041 A 
ENDBRANCH   3  35
TORSDOF 6
ENDMDL
MODEL 5
REMARK VINA RESULT:      -9.6      2.240      6.533
REMARK  6 active torsions:
REMARK  status: ('A' for Active; 'I' for Inactive)
REMARK    1  A    between atoms: C_2  and  C_3 
REMARK    2  A    between atoms: C_3  and  C_4 
REMARK    3  A    between atoms: C_6  and  N_7 
REMARK    4  A    between atoms: C_9  and  C_10 
REMARK    5  A    between atoms: C_16  and  N_17 
REMARK       I    between atoms: N_17  and  C_18 
REMARK    6  A    between atoms: C_18  and  C_19 
ROOT
HETATM    1  N   UNL     1      42.804 -13.333   5.961  1.00  0.00    -0.044 N 
HETATM    2  N   UNL     1      43.253 -12.435   6.882  1.00  0.00    -0.148 NA
HETATM    3  C   UNL     1      44.047 -13.163   7.675  1.00  0.00     0.115 A 
HETATM    4  C   UNL     1      44.148 -14.505   7.245  1.00  0.00     0.087 A 
HETATM    5  C   UNL     1      43.352 -14.596   6.127  1.00  0.00     0.152 A 
ENDROOT
BRANCH   5   6
HETATM    6  N   UNL     1      43.116 -15.696   5.298  1.00  0.00    -0.310 N 
HETATM    7  C   UNL     1      41.945 -16.534   5.381  1.00  0.00     0.236 C 
HETATM    8  O   UNL     1      41.048 -16.262   6.170  1.00  0.00    -0.272 OA
HETATM    9  H   UNL     1      43.852 -15.926   4.624  1.00  0.00     0.170 HD
BRANCH   7  10
HETATM   10  C   UNL     1      41.868 -17.729   4.436  1.00  0.00     0.149 C 
HETATM   11  C   UNL     1      42.993 -18.709   4.662  1.00  0.00    -0.007 A 
HETATM   12  C   UNL     1      43.924 -18.948   3.648  1.00  0.00     0.083 A 
HETATM   13  C   UNL     1      43.120 -19.397   5.880  1.00  0.00     0.011 A 
HETATM   14  C   UNL     1      44.965 -19.856   3.844  1.00  0.00     0.038 A 
HETATM   15  O   UNL     1      43.892 -18.320   2.427  1.00  0.00    -0.310 OA
HETATM   16  C   UNL     1      45.091 -20.526   5.060  1.00  0.00     0.003 A 
HETATM   17  C   UNL     1      44.168 -20.296   6.078  1.00  0.00     0.001 A 
HETATM   18  C   UNL     1      42.784 -17.582   2.097  1.00  0.00     0.083 A 
HETATM   19  C   UNL     1      41.768 -17.270   3.003  1.00  0.00    -0.007 A 
HETATM   20  C   UNL     1      42.708 -17.148   0.772  1.00  0.00     0.038 A 
HETATM   21  C   UNL     1      40.657 -16.536   2.556  1.00  0.00     0.011 A 
HETATM   22  C   UNL     1      40.578 -16.111   1.230  1.00  0.00     0.001 A 
HETATM   23  C   UNL     1      41.605 -16.414   0.338  1.00  0.00     0.003 A 
ENDBRANCH   7  10
ENDBRANCH   5   6
BRANCH   1  24
HETATM   24  C   UNL     1      41.886 -12.931   4.979  1.00  0.00     0.732 A 
HETATM   25  N   UNL     1      42.191 -12.870   3.720  1.00  0.00    -0.067 NA
HETATM   26  C   UNL     1      41.160 -12.490   2.880  1.00  0.00     0.059 A 
HETATM   27  C   UNL     1      39.941 -12.124   3.309  1.00  0.00     0.102 A 
HETATM   28  C   UNL     1      39.651 -12.160   4.751  1.00  0.00     0.261 A 
HETATM   29  N   UNL     1      40.671 -12.619   5.521  1.00  0.00    -0.152 N 
HETATM   30  O   UNL     1      38.571 -11.804   5.200  1.00  0.00    -0.268 OA
HETATM   31  H   UNL     1      40.529 -12.680   6.525  1.00  0.00     0.187 HD
BRANCH  26  32
HETATM   32  C   UNL     1      41.466 -12.515   1.399  1.00  0.00     0.060 C 
BRANCH  32  33
HETATM   33  C   UNL     1      40.187 -12.487   0.557  1.00  0.00     0.002 C 
HETATM   34  C   UNL     1      40.449 -12.926  -0.874  1.00  0.00     0.005 C 
ENDBRANCH  32  33
ENDBRANCH  26  32
ENDBRANCH   1  24
BRANCH   3  35
HETATM   35  C   UNL     1      44.732 -12.601   8.874  1.00  0.00     0.105 A 
HETATM   36  O   UNL     1      44.438 -12.954  10.163  1.00  0.00    -0.320 OA
HETATM   37  C   UNL     1      45.250 -12.231  10.975  1.00  0.00     0.142 A 
HETATM   38  C   UNL     1      46.071 -11.417  10.234  1.00  0.00     0.027 A 
HETATM   39  C   UNL     1      45.737 -11.654   8.878  1.00  0.00     0.041 A 
ENDBRANCH   3  35
TORSDOF 6
ENDMDL
MODEL 6
REMARK VINA RESULT:      -9.3      2.300      7.496
REMARK  6 active torsions:
REMARK  status: ('A' for Active; 'I' for Inactive)
REMARK    1  A    between atoms: C_2  and  C_3 
REMARK    2  A    between atoms: C_3  and  C_4 
REMARK    3  A    between atoms: C_6  and  N_7 
REMARK    4  A    between atoms: C_9  and  C_10 
REMARK    5  A    between atoms: C_16  and  N_17 
REMARK       I    between atoms: N_17  and  C_18 
REMARK    6  A    between atoms: C_18  and  C_19 
ROOT
HETATM    1  N   UNL     1      42.962 -16.623   3.000  1.00  0.00    -0.044 N 
HETATM    2  N   UNL     1      43.357 -17.757   3.644  1.00  0.00    -0.148 NA
HETATM    3  C   UNL     1      43.592 -18.621   2.650  1.00  0.00     0.115 A 
HETATM    4  C   UNL     1      43.399 -18.039   1.378  1.00  0.00     0.087 A 
HETATM    5  C   UNL     1      43.007 -16.743   1.619  1.00  0.00     0.152 A 
ENDROOT
BRANCH   5   6
HETATM    6  N   UNL     1      42.712 -15.725   0.709  1.00  0.00    -0.310 N 
HETATM    7  C   UNL     1      41.386 -15.435   0.222  1.00  0.00     0.236 C 
HETATM    8  O   UNL     1      40.422 -16.054   0.657  1.00  0.00    -0.272 OA
HETATM    9  H   UNL     1      43.508 -15.191   0.348  1.00  0.00     0.170 HD
BRANCH   7  10
HETATM   10  C   UNL     1      41.244 -14.324  -0.813  1.00  0.00     0.149 C 
HETATM   11  C   UNL     1      40.879 -13.001  -0.185  1.00  0.00    -0.007 A 
HETATM   12  C   UNL     1      39.660 -12.394  -0.496  1.00  0.00     0.083 A 
HETATM   13  C   UNL     1      41.752 -12.360   0.710  1.00  0.00     0.011 A 
HETATM   14  C   UNL     1      39.316 -11.168   0.075  1.00  0.00     0.038 A 
HETATM   15  O   UNL     1      38.737 -12.943  -1.350  1.00  0.00    -0.310 OA
HETATM   16  C   UNL     1      40.182 -10.543   0.970  1.00  0.00     0.003 A 
HETATM   17  C   UNL     1      41.400 -11.140   1.288  1.00  0.00     0.001 A 
HETATM   18  C   UNL     1      39.101 -14.032  -2.101  1.00  0.00     0.083 A 
HETATM   19  C   UNL     1      40.292 -14.735  -1.908  1.00  0.00    -0.007 A 
HETATM   20  C   UNL     1      38.207 -14.414  -3.102  1.00  0.00     0.038 A 
HETATM   21  C   UNL     1      40.589 -15.818  -2.753  1.00  0.00     0.011 A 
HETATM   22  C   UNL     1      39.699 -16.193  -3.760  1.00  0.00     0.001 A 
HETATM   23  C   UNL     1      38.507 -15.494  -3.932  1.00  0.00     0.003 A 
ENDBRANCH   7  10
ENDBRANCH   5   6
BRANCH   1  24
HETATM   24  C   UNL     1      42.573 -15.497   3.740  1.00  0.00     0.732 A 
HETATM   25  N   UNL     1      41.474 -14.849   3.504  1.00  0.00    -0.067 NA
HETATM   26  C   UNL     1      41.221 -13.785   4.349  1.00  0.00     0.059 A 
HETATM   27  C   UNL     1      42.069 -13.371   5.305  1.00  0.00     0.102 A 
HETATM   28  C   UNL     1      43.328 -14.103   5.509  1.00  0.00     0.261 A 
HETATM   29  N   UNL     1      43.487 -15.188   4.709  1.00  0.00    -0.152 N 
HETATM   30  O   UNL     1      44.151 -13.750   6.341  1.00  0.00    -0.268 OA
HETATM   31  H   UNL     1      44.331 -15.744   4.809  1.00  0.00     0.187 HD
BRANCH  26  32
HETATM   32  C   UNL     1      39.896 -13.083   4.156  1.00  0.00     0.060 C 
BRANCH  32  33
HETATM   33  C   UNL     1      39.922 -11.661   4.722  1.00  0.00     0.002 C 
HETATM   34  C   UNL     1      38.679 -10.878   4.328  1.00  0.00     0.005 C 
ENDBRANCH  32  33
ENDBRANCH  26  32
ENDBRANCH   1  24
BRANCH   3  35
HETATM   35  C   UNL     1      44.006 -20.034   2.885  1.00  0.00     0.105 A 
HETATM   36  O   UNL     1      44.522 -20.498   4.064  1.00  0.00    -0.320 OA
HETATM   37  C   UNL     1      44.789 -21.818   3.897  1.00  0.00     0.142 A 
HETATM   38  C   UNL     1      44.451 -22.221   2.628  1.00  0.00     0.027 A 
HETATM   39  C   UNL     1      43.945 -21.071   1.974  1.00  0.00     0.041 A 
ENDBRANCH   3  35
TORSDOF 6
ENDMDL
MODEL 7
REMARK VINA RESULT:      -9.2      2.481      6.011
REMARK  6 active torsions:
REMARK  status: ('A' for Active; 'I' for Inactive)
REMARK    1  A    between atoms: C_2  and  C_3 
REMARK    2  A    between atoms: C_3  and  C_4 
REMARK    3  A    between atoms: C_6  and  N_7 
REMARK    4  A    between atoms: C_9  and  C_10 
REMARK    5  A    between atoms: C_16  and  N_17 
REMARK       I    between atoms: N_17  and  C_18 
REMARK    6  A    between atoms: C_18  and  C_19 
ROOT
HETATM    1  N   UNL     1      41.421 -12.146   3.936  1.00  0.00    -0.044 N 
HETATM    2  N   UNL     1      41.290 -10.873   4.402  1.00  0.00    -0.148 NA
HETATM    3  C   UNL     1      41.479 -10.995   5.721  1.00  0.00     0.115 A 
HETATM    4  C   UNL     1      41.777 -12.323   6.098  1.00  0.00     0.087 A 
HETATM    5  C   UNL     1      41.752 -13.053   4.932  1.00  0.00     0.152 A 
ENDROOT
BRANCH   5   6
HETATM    6  N   UNL     1      42.003 -14.414   4.736  1.00  0.00    -0.310 N 
HETATM    7  C   UNL     1      41.100 -15.467   5.130  1.00  0.00     0.236 C 
HETATM    8  O   UNL     1      40.007 -15.193   5.612  1.00  0.00    -0.272 OA
HETATM    9  H   UNL     1      42.907 -14.656   4.322  1.00  0.00     0.170 HD
BRANCH   7  10
HETATM   10  C   UNL     1      41.552 -16.905   4.894  1.00  0.00     0.149 C 
HETATM   11  C   UNL     1      42.639 -17.327   5.851  1.00  0.00    -0.007 A 
HETATM   12  C   UNL     1      43.904 -17.664   5.363  1.00  0.00     0.083 A 
HETATM   13  C   UNL     1      42.400 -17.395   7.233  1.00  0.00     0.011 A 
HETATM   14  C   UNL     1      44.916 -18.061   6.239  1.00  0.00     0.038 A 
HETATM   15  O   UNL     1      44.240 -17.621   4.033  1.00  0.00    -0.310 OA
HETATM   16  C   UNL     1      44.674 -18.115   7.611  1.00  0.00     0.003 A 
HETATM   17  C   UNL     1      43.416 -17.781   8.108  1.00  0.00     0.001 A 
HETATM   18  C   UNL     1      43.242 -17.445   3.109  1.00  0.00     0.083 A 
HETATM   19  C   UNL     1      41.929 -17.114   3.448  1.00  0.00    -0.007 A 
HETATM   20  C   UNL     1      43.604 -17.625   1.773  1.00  0.00     0.038 A 
HETATM   21  C   UNL     1      40.971 -16.988   2.427  1.00  0.00     0.011 A 
HETATM   22  C   UNL     1      41.332 -17.178   1.093  1.00  0.00     0.001 A 
HETATM   23  C   UNL     1      42.649 -17.493   0.765  1.00  0.00     0.003 A 
ENDBRANCH   7  10
ENDBRANCH   5   6
BRANCH   1  24
HETATM   24  C   UNL     1      41.230 -12.417   2.574  1.00  0.00     0.732 A 
HETATM   25  N   UNL     1      40.348 -13.267   2.146  1.00  0.00    -0.067 NA
HETATM   26  C   UNL     1      40.261 -13.389   0.772  1.00  0.00     0.059 A 
HETATM   27  C   UNL     1      41.072 -12.751  -0.089  1.00  0.00     0.102 A 
HETATM   28  C   UNL     1      42.092 -11.832   0.440  1.00  0.00     0.261 A 
HETATM   29  N   UNL     1      42.078 -11.687   1.789  1.00  0.00    -0.152 N 
HETATM   30  O   UNL     1      42.879 -11.252  -0.295  1.00  0.00    -0.268 OA
HETATM   31  H   UNL     1      42.751 -11.057   2.215  1.00  0.00     0.187 HD
BRANCH  26  32
HETATM   32  C   UNL     1      39.169 -14.296   0.252  1.00  0.00     0.060 C 
BRANCH  32  33
HETATM   33  C   UNL     1      37.833 -14.030   0.951  1.00  0.00     0.002 C 
HETATM   34  C   UNL     1      37.223 -12.708   0.511  1.00  0.00     0.005 C 
ENDBRANCH  32  33
ENDBRANCH  26  32
ENDBRANCH   1  24
BRANCH   3  35
HETATM   35  C   UNL     1      41.377  -9.846   6.666  1.00  0.00     0.105 A 
HETATM   36  O   UNL     1      41.689  -8.554   6.340  1.00  0.00    -0.320 OA
HETATM   37  C   UNL     1      41.485  -7.798   7.449  1.00  0.00     0.142 A 
HETATM   38  C   UNL     1      41.041  -8.578   8.488  1.00  0.00     0.027 A 
HETATM   39  C   UNL     1      40.971  -9.899   7.985  1.00  0.00     0.041 A 
ENDBRANCH   3  35
TORSDOF 6
ENDMDL
MODEL 8
REMARK VINA RESULT:      -8.8      2.714      8.464
REMARK  6 active torsions:
REMARK  status: ('A' for Active; 'I' for Inactive)
REMARK    1  A    between atoms: C_2  and  C_3 
REMARK    2  A    between atoms: C_3  and  C_4 
REMARK    3  A    between atoms: C_6  and  N_7 
REMARK    4  A    between atoms: C_9  and  C_10 
REMARK    5  A    between atoms: C_16  and  N_17 
REMARK       I    between atoms: N_17  and  C_18 
REMARK    6  A    between atoms: C_18  and  C_19 
ROOT
HETATM    1  N   UNL     1      41.684 -16.156   0.916  1.00  0.00    -0.044 N 
HETATM    2  N   UNL     1      42.526 -17.227   0.901  1.00  0.00    -0.148 NA
HETATM    3  C   UNL     1      42.435 -17.721   2.141  1.00  0.00     0.115 A 
HETATM    4  C   UNL     1      41.510 -17.007   2.935  1.00  0.00     0.087 A 
HETATM    5  C   UNL     1      41.021 -16.008   2.126  1.00  0.00     0.152 A 
ENDROOT
BRANCH   5   6
HETATM    6  N   UNL     1      40.061 -15.033   2.408  1.00  0.00    -0.310 N 
HETATM    7  C   UNL     1      40.365 -13.731   2.948  1.00  0.00     0.236 C 
HETATM    8  O   UNL     1      41.530 -13.396   3.126  1.00  0.00    -0.272 OA
HETATM    9  H   UNL     1      39.084 -15.297   2.251  1.00  0.00     0.170 HD
BRANCH   7  10
HETATM   10  C   UNL     1      39.192 -12.804   3.251  1.00  0.00     0.149 C 
HETATM   11  C   UNL     1      38.977 -11.781   2.162  1.00  0.00    -0.007 A 
HETATM   12  C   UNL     1      39.127 -10.421   2.444  1.00  0.00     0.083 A 
HETATM   13  C   UNL     1      38.619 -12.174   0.862  1.00  0.00     0.011 A 
HETATM   14  C   UNL     1      38.925  -9.467   1.446  1.00  0.00     0.038 A 
HETATM   15  O   UNL     1      39.482  -9.938   3.678  1.00  0.00    -0.310 OA
HETATM   16  C   UNL     1      38.581  -9.865   0.155  1.00  0.00     0.003 A 
HETATM   17  C   UNL     1      38.429 -11.219  -0.137  1.00  0.00     0.001 A 
HETATM   18  C   UNL     1      39.489 -10.800   4.745  1.00  0.00     0.083 A 
HETATM   19  C   UNL     1      39.342 -12.183   4.617  1.00  0.00    -0.007 A 
HETATM   20  C   UNL     1      39.644 -10.219   6.004  1.00  0.00     0.038 A 
HETATM   21  C   UNL     1      39.329 -12.978   5.776  1.00  0.00     0.011 A 
HETATM   22  C   UNL     1      39.475 -12.394   7.034  1.00  0.00     0.001 A 
HETATM   23  C   UNL     1      39.636 -11.015   7.149  1.00  0.00     0.003 A 
ENDBRANCH   7  10
ENDBRANCH   5   6
BRANCH   1  24
HETATM   24  C   UNL     1      41.561 -15.345  -0.221  1.00  0.00     0.732 A 
HETATM   25  N   UNL     1      41.819 -14.074  -0.206  1.00  0.00    -0.067 NA
HETATM   26  C   UNL     1      41.684 -13.428  -1.421  1.00  0.00     0.059 A 
HETATM   27  C   UNL     1      41.240 -14.024  -2.540  1.00  0.00     0.102 A 
HETATM   28  C   UNL     1      40.912 -15.458  -2.503  1.00  0.00     0.261 A 
HETATM   29  N   UNL     1      41.142 -16.059  -1.308  1.00  0.00    -0.152 N 
HETATM   30  O   UNL     1      40.471 -16.043  -3.482  1.00  0.00    -0.268 OA
HETATM   31  H   UNL     1      40.946 -17.053  -1.221  1.00  0.00     0.187 HD
BRANCH  26  32
HETATM   32  C   UNL     1      42.080 -11.969  -1.447  1.00  0.00     0.060 C 
BRANCH  32  33
HETATM   33  C   UNL     1      42.160 -11.380  -0.036  1.00  0.00     0.002 C 
HETATM   34  C   UNL     1      42.349  -9.872  -0.068  1.00  0.00     0.005 C 
ENDBRANCH  32  33
ENDBRANCH  26  32
ENDBRANCH   1  24
BRANCH   3  35
HETATM   35  C   UNL     1      43.233 -18.890   2.609  1.00  0.00     0.105 A 
HETATM   36  O   UNL     1      43.877 -18.947   3.815  1.00  0.00    -0.320 OA
HETATM   37  C   UNL     1      44.503 -20.149   3.883  1.00  0.00     0.142 A 
HETATM   38  C   UNL     1      44.272 -20.877   2.741  1.00  0.00     0.027 A 
HETATM   39  C   UNL     1      43.453 -20.066   1.918  1.00  0.00     0.041 A 
ENDBRANCH   3  35
TORSDOF 6
ENDMDL
MODEL 9
REMARK VINA RESULT:      -8.8      2.624      6.612
REMARK  6 active torsions:
REMARK  status: ('A' for Active; 'I' for Inactive)
REMARK    1  A    between atoms: C_2  and  C_3 
REMARK    2  A    between atoms: C_3  and  C_4 
REMARK    3  A    between atoms: C_6  and  N_7 
REMARK    4  A    between atoms: C_9  and  C_10 
REMARK    5  A    between atoms: C_16  and  N_17 
REMARK       I    between atoms: N_17  and  C_18 
REMARK    6  A    between atoms: C_18  and  C_19 
ROOT
HETATM    1  N   UNL     1      40.952 -13.120   5.936  1.00  0.00    -0.044 N 
HETATM    2  N   UNL     1      40.800 -12.005   6.704  1.00  0.00    -0.148 NA
HETATM    3  C   UNL     1      39.827 -11.324   6.088  1.00  0.00     0.115 A 
HETATM    4  C   UNL     1      39.322 -12.013   4.962  1.00  0.00     0.087 A 
HETATM    5  C   UNL     1      40.048 -13.179   4.886  1.00  0.00     0.152 A 
ENDROOT
BRANCH   5   6
HETATM    6  N   UNL     1      39.937 -14.231   3.973  1.00  0.00    -0.310 N 
HETATM    7  C   UNL     1      40.807 -14.412   2.838  1.00  0.00     0.236 C 
HETATM    8  O   UNL     1      41.755 -13.655   2.662  1.00  0.00    -0.272 OA
HETATM    9  H   UNL     1      39.157 -14.879   4.116  1.00  0.00     0.170 HD
BRANCH   7  10
HETATM   10  C   UNL     1      40.514 -15.584   1.906  1.00  0.00     0.149 C 
HETATM   11  C   UNL     1      41.574 -16.655   1.985  1.00  0.00    -0.007 A 
HETATM   12  C   UNL     1      42.348 -16.955   0.862  1.00  0.00     0.083 A 
HETATM   13  C   UNL     1      41.794 -17.368   3.176  1.00  0.00     0.011 A 
HETATM   14  C   UNL     1      43.326 -17.948   0.923  1.00  0.00     0.038 A 
HETATM   15  O   UNL     1      42.216 -16.310  -0.343  1.00  0.00    -0.310 OA
HETATM   16  C   UNL     1      43.547 -18.643   2.110  1.00  0.00     0.003 A 
HETATM   17  C   UNL     1      42.780 -18.352   3.237  1.00  0.00     0.001 A 
HETATM   18  C   UNL     1      41.141 -15.479  -0.529  1.00  0.00     0.083 A 
HETATM   19  C   UNL     1      40.275 -15.098   0.498  1.00  0.00    -0.007 A 
HETATM   20  C   UNL     1      40.937 -15.022  -1.832  1.00  0.00     0.038 A 
HETATM   21  C   UNL     1      39.182 -14.268   0.197  1.00  0.00     0.011 A 
HETATM   22  C   UNL     1      38.974 -13.821  -1.108  1.00  0.00     0.001 A 
HETATM   23  C   UNL     1      39.853 -14.194  -2.122  1.00  0.00     0.003 A 
ENDBRANCH   7  10
ENDBRANCH   5   6
BRANCH   1  24
HETATM   24  C   UNL     1      41.943 -14.060   6.254  1.00  0.00     0.732 A 
HETATM   25  N   UNL     1      41.691 -15.325   6.391  1.00  0.00    -0.067 NA
HETATM   26  C   UNL     1      42.786 -16.121   6.668  1.00  0.00     0.059 A 
HETATM   27  C   UNL     1      44.026 -15.643   6.870  1.00  0.00     0.102 A 
HETATM   28  C   UNL     1      44.261 -14.196   6.754  1.00  0.00     0.261 A 
HETATM   29  N   UNL     1      43.169 -13.473   6.399  1.00  0.00    -0.152 N 
HETATM   30  O   UNL     1      45.361 -13.703   6.962  1.00  0.00    -0.268 OA
HETATM   31  H   UNL     1      43.268 -12.467   6.291  1.00  0.00     0.187 HD
BRANCH  26  32
HETATM   32  C   UNL     1      42.529 -17.610   6.727  1.00  0.00     0.060 C 
BRANCH  32  33
HETATM   33  C   UNL     1      43.782 -18.383   7.148  1.00  0.00     0.002 C 
HETATM   34  C   UNL     1      43.820 -19.770   6.525  1.00  0.00     0.005 C 
ENDBRANCH  32  33
ENDBRANCH  26  32
ENDBRANCH   1  24
BRANCH   3  35
HETATM   35  C   UNL     1      39.350  -9.990   6.552  1.00  0.00     0.105 A 
HETATM   36  O   UNL     1      38.412  -9.239   5.897  1.00  0.00    -0.320 OA
HETATM   37  C   UNL     1      38.246  -8.093   6.605  1.00  0.00     0.142 A 
HETATM   38  C   UNL     1      39.059  -8.089   7.712  1.00  0.00     0.027 A 
HETATM   39  C   UNL     1      39.772  -9.313   7.679  1.00  0.00     0.041 A 
ENDBRANCH   3  35
TORSDOF 6
ENDMDL
MODEL 10
REMARK VINA RESULT:      -8.7      2.251      4.392
REMARK  6 active torsions:
REMARK  status: ('A' for Active; 'I' for Inactive)
REMARK    1  A    between atoms: C_2  and  C_3 
REMARK    2  A    between atoms: C_3  and  C_4 
REMARK    3  A    between atoms: C_6  and  N_7 
REMARK    4  A    between atoms: C_9  and  C_10 
REMARK    5  A    between atoms: C_16  and  N_17 
REMARK       I    between atoms: N_17  and  C_18 
REMARK    6  A    between atoms: C_18  and  C_19 
ROOT
HETATM    1  N   UNL     1      40.134 -13.299   0.710  1.00  0.00    -0.044 N 
HETATM    2  N   UNL     1      39.062 -13.085  -0.103  1.00  0.00    -0.148 NA
HETATM    3  C   UNL     1      39.254 -13.939  -1.115  1.00  0.00     0.115 A 
HETATM    4  C   UNL     1      40.410 -14.730  -0.935  1.00  0.00     0.087 A 
HETATM    5  C   UNL     1      40.960 -14.316   0.256  1.00  0.00     0.152 A 
ENDROOT
BRANCH   5   6
HETATM    6  N   UNL     1      42.099 -14.788   0.915  1.00  0.00    -0.310 N 
HETATM    7  C   UNL     1      42.070 -15.739   1.999  1.00  0.00     0.236 C 
HETATM    8  O   UNL     1      41.007 -16.236   2.353  1.00  0.00    -0.272 OA
HETATM    9  H   UNL     1      42.995 -14.390   0.619  1.00  0.00     0.170 HD
BRANCH   7  10
HETATM   10  C   UNL     1      43.401 -16.108   2.646  1.00  0.00     0.149 C 
HETATM   11  C   UNL     1      43.620 -17.601   2.689  1.00  0.00    -0.007 A 
HETATM   12  C   UNL     1      43.720 -18.255   3.919  1.00  0.00     0.083 A 
HETATM   13  C   UNL     1      43.734 -18.349   1.506  1.00  0.00     0.011 A 
HETATM   14  C   UNL     1      43.929 -19.634   3.970  1.00  0.00     0.038 A 
HETATM   15  O   UNL     1      43.614 -17.616   5.129  1.00  0.00    -0.310 OA
HETATM   16  C   UNL     1      44.029 -20.372   2.792  1.00  0.00     0.003 A 
HETATM   17  C   UNL     1      43.931 -19.729   1.560  1.00  0.00     0.001 A 
HETATM   18  C   UNL     1      43.620 -16.244   5.150  1.00  0.00     0.083 A 
HETATM   19  C   UNL     1      43.534 -15.456   4.000  1.00  0.00    -0.007 A 
HETATM   20  C   UNL     1      43.728 -15.650   6.408  1.00  0.00     0.038 A 
HETATM   21  C   UNL     1      43.582 -14.058   4.126  1.00  0.00     0.011 A 
HETATM   22  C   UNL     1      43.700 -13.465   5.383  1.00  0.00     0.001 A 
HETATM   23  C   UNL     1      43.769 -14.261   6.525  1.00  0.00     0.003 A 
ENDBRANCH   7  10
ENDBRANCH   5   6
BRANCH   1  24
HETATM   24  C   UNL     1      40.300 -12.526   1.869  1.00  0.00     0.732 A 
HETATM   25  N   UNL     1      40.156 -13.014   3.062  1.00  0.00    -0.067 NA
HETATM   26  C   UNL     1      40.393 -12.127   4.096  1.00  0.00     0.059 A 
HETATM   27  C   UNL     1      40.673 -10.826   3.917  1.00  0.00     0.102 A 
HETATM   28  C   UNL     1      40.779 -10.301   2.546  1.00  0.00     0.261 A 
HETATM   29  N   UNL     1      40.620 -11.231   1.571  1.00  0.00    -0.152 N 
HETATM   30  O   UNL     1      40.998  -9.118   2.325  1.00  0.00    -0.268 OA
HETATM   31  H   UNL     1      40.694 -10.934   0.602  1.00  0.00     0.187 HD
BRANCH  26  32
HETATM   32  C   UNL     1      40.332 -12.703   5.493  1.00  0.00     0.060 C 
BRANCH  32  33
HETATM   33  C   UNL     1      39.464 -13.963   5.548  1.00  0.00     0.002 C 
HETATM   34  C   UNL     1      40.285 -15.193   5.903  1.00  0.00     0.005 C 
ENDBRANCH  32  33
ENDBRANCH  26  32
ENDBRANCH   1  24
BRANCH   3  35
HETATM   35  C   UNL     1      38.340 -14.024  -2.289  1.00  0.00     0.105 A 
HETATM   36  O   UNL     1      38.106 -15.170  -2.999  1.00  0.00    -0.320 OA
HETATM   37  C   UNL     1      37.237 -14.859  -3.995  1.00  0.00     0.142 A 
HETATM   38  C   UNL     1      36.900 -13.528  -3.940  1.00  0.00     0.027 A 
HETATM   39  C   UNL     1      37.611 -12.989  -2.840  1.00  0.00     0.041 A 
ENDBRANCH   3  35
TORSDOF 6
ENDMDL
