MODEL 1
REMARK VINA RESULT:      -8.1      0.000      0.000
REMARK  1 active torsions:
REMARK  status: ('A' for Active; 'I' for Inactive)
REMARK    1  A    between atoms: C_11  and  N_12 
REMARK       I    between atoms: N_12  and  C_13 
REMARK       I    between atoms: C_13  and  N_14 
ROOT
HETATM    1  N   UNL     1      42.255 -18.075   2.151  1.00  0.00    -0.308 N 
HETATM    2  C   UNL     1      42.655 -16.848   1.684  1.00  0.00     0.323 C 
HETATM    3  N   UNL     1      41.599 -16.003   1.299  1.00  0.00    -0.332 N 
HETATM    4  C   UNL     1      41.983 -14.730   0.689  1.00  0.00     0.160 C 
HETATM    5  C   UNL     1      41.989 -13.541   1.682  1.00  0.00     0.204 C 
HETATM    6  N   UNL     1      40.634 -12.865   1.668  1.00  0.00    -0.069 N 
HETATM    7  H   UNL     1      40.425 -12.525   0.719  1.00  0.00     0.277 HD
HETATM    8  H   UNL     1      40.710 -12.009   2.238  1.00  0.00     0.277 HD
HETATM    9  C   UNL     1      39.489 -13.676   2.181  1.00  0.00     0.239 C 
HETATM   10  C   UNL     1      39.951 -14.956   2.880  1.00  0.00     0.029 C 
HETATM   11  C   UNL     1      40.251 -16.082   1.864  1.00  0.00     0.134 C 
HETATM   12  C   UNL     1      42.279 -13.896   3.143  1.00  0.00     0.035 C 
HETATM   13  C   UNL     1      41.134 -14.672   3.819  1.00  0.00     0.010 C 
HETATM   14  O   UNL     1      43.814 -16.454   1.607  1.00  0.00    -0.247 OA
HETATM   15  H   UNL     1      41.394 -18.404   1.752  1.00  0.00     0.170 HD
ENDROOT
BRANCH   1  16
HETATM   16  C   UNL     1      43.032 -19.042   2.848  1.00  0.00     0.049 A 
HETATM   17  C   UNL     1      43.218 -18.915   4.266  1.00  0.00     0.021 A 
HETATM   18  C   UNL     1      44.013 -19.865   4.960  1.00  0.00     0.090 A 
HETATM   19  C   UNL     1      42.663 -17.876   5.058  1.00  0.00     0.017 A 
HETATM   20  N   UNL     1      44.223 -19.782   6.295  1.00  0.00    -0.259 NA
HETATM   21  C   UNL     1      44.593 -20.905   4.226  1.00  0.00     0.063 A 
HETATM   22  C   UNL     1      43.673 -18.777   6.999  1.00  0.00     0.117 A 
HETATM   23  C   UNL     1      42.891 -17.804   6.428  1.00  0.00     0.020 A 
HETATM   24 CL   UNL     1      45.576 -22.108   5.000  1.00  0.00    -0.082 Cl
HETATM   25  C   UNL     1      44.424 -21.022   2.848  1.00  0.00     0.028 A 
HETATM   26  C   UNL     1      43.655 -20.090   2.164  1.00  0.00     0.032 A 
ENDBRANCH   1  16
TORSDOF 1
ENDMDL
MODEL 2
REMARK VINA RESULT:      -8.1      2.210      3.612
REMARK  1 active torsions:
REMARK  status: ('A' for Active; 'I' for Inactive)
REMARK    1  A    between atoms: C_11  and  N_12 
REMARK       I    between atoms: N_12  and  C_13 
REMARK       I    between atoms: C_13  and  N_14 
ROOT
HETATM    1  N   UNL     1      43.051 -16.609   6.050  1.00  0.00    -0.308 N 
HETATM    2  C   UNL     1      41.771 -16.130   5.924  1.00  0.00     0.323 C 
HETATM    3  N   UNL     1      41.681 -14.728   5.872  1.00  0.00    -0.332 N 
HETATM    4  C   UNL     1      40.329 -14.170   5.854  1.00  0.00     0.160 C 
HETATM    5  C   UNL     1      39.821 -13.816   4.435  1.00  0.00     0.204 C 
HETATM    6  N   UNL     1      40.162 -12.374   4.121  1.00  0.00    -0.069 N 
HETATM    7  H   UNL     1      39.719 -11.753   4.813  1.00  0.00     0.277 HD
HETATM    8  H   UNL     1      39.703 -12.135   3.229  1.00  0.00     0.277 HD
HETATM    9  C   UNL     1      41.617 -12.052   4.006  1.00  0.00     0.239 C 
HETATM   10  C   UNL     1      42.488 -13.308   3.963  1.00  0.00     0.029 C 
HETATM   11  C   UNL     1      42.755 -13.864   5.380  1.00  0.00     0.134 C 
HETATM   12  C   UNL     1      40.401 -14.655   3.292  1.00  0.00     0.035 C 
HETATM   13  C   UNL     1      41.887 -14.360   3.016  1.00  0.00     0.010 C 
HETATM   14  O   UNL     1      40.756 -16.813   5.837  1.00  0.00    -0.247 OA
HETATM   15  H   UNL     1      43.674 -15.991   6.539  1.00  0.00     0.170 HD
ENDROOT
BRANCH   1  16
HETATM   16  C   UNL     1      43.506 -17.946   5.873  1.00  0.00     0.049 A 
HETATM   17  C   UNL     1      43.777 -18.435   4.550  1.00  0.00     0.021 A 
HETATM   18  C   UNL     1      44.208 -19.775   4.369  1.00  0.00     0.090 A 
HETATM   19  C   UNL     1      43.632 -17.665   3.366  1.00  0.00     0.017 A 
HETATM   20  N   UNL     1      44.466 -20.283   3.141  1.00  0.00    -0.259 NA
HETATM   21  C   UNL     1      44.357 -20.581   5.503  1.00  0.00     0.063 A 
HETATM   22  C   UNL     1      44.315 -19.510   2.050  1.00  0.00     0.117 A 
HETATM   23  C   UNL     1      43.901 -18.202   2.111  1.00  0.00     0.020 A 
HETATM   24 CL   UNL     1      44.881 -22.230   5.366  1.00  0.00    -0.082 Cl
HETATM   25  C   UNL     1      44.082 -20.112   6.785  1.00  0.00     0.028 A 
HETATM   26  C   UNL     1      43.652 -18.805   6.966  1.00  0.00     0.032 A 
ENDBRANCH   1  16
TORSDOF 1
ENDMDL
MODEL 3
REMARK VINA RESULT:      -8.0      2.185      3.084
REMARK  1 active torsions:
REMARK  status: ('A' for Active; 'I' for Inactive)
REMARK    1  A    between atoms: C_11  and  N_12 
REMARK       I    between atoms: N_12  and  C_13 
REMARK       I    between atoms: C_13  and  N_14 
ROOT
HETATM    1  N   UNL     1      43.296 -16.870   4.591  1.00  0.00    -0.308 N 
HETATM    2  C   UNL     1      42.053 -16.407   4.945  1.00  0.00     0.323 C 
HETATM    3  N   UNL     1      42.033 -15.065   5.361  1.00  0.00    -0.332 N 
HETATM    4  C   UNL     1      40.750 -14.563   5.855  1.00  0.00     0.160 C 
HETATM    5  C   UNL     1      39.934 -13.789   4.792  1.00  0.00     0.204 C 
HETATM    6  N   UNL     1      40.269 -12.314   4.873  1.00  0.00    -0.069 N 
HETATM    7  H   UNL     1      40.043 -11.957   5.812  1.00  0.00     0.277 HD
HETATM    8  H   UNL     1      39.621 -11.815   4.245  1.00  0.00     0.277 HD
HETATM    9  C   UNL     1      41.667 -11.937   4.508  1.00  0.00     0.239 C 
HETATM   10  C   UNL     1      42.430 -13.092   3.857  1.00  0.00     0.029 C 
HETATM   11  C   UNL     1      43.002 -14.063   4.914  1.00  0.00     0.134 C 
HETATM   12  C   UNL     1      40.170 -14.205   3.337  1.00  0.00     0.035 C 
HETATM   13  C   UNL     1      41.558 -13.801   2.808  1.00  0.00     0.010 C 
HETATM   14  O   UNL     1      41.011 -17.052   4.902  1.00  0.00    -0.247 OA
HETATM   15  H   UNL     1      44.053 -16.425   5.080  1.00  0.00     0.170 HD
ENDROOT
BRANCH   1  16
HETATM   16  C   UNL     1      43.619 -18.069   3.896  1.00  0.00     0.049 A 
HETATM   17  C   UNL     1      43.887 -19.270   4.638  1.00  0.00     0.021 A 
HETATM   18  C   UNL     1      44.233 -20.461   3.948  1.00  0.00     0.090 A 
HETATM   19  C   UNL     1      43.846 -19.363   6.054  1.00  0.00     0.017 A 
HETATM   20  N   UNL     1      44.503 -21.614   4.604  1.00  0.00    -0.259 NA
HETATM   21  C   UNL     1      44.298 -20.422   2.551  1.00  0.00     0.063 A 
HETATM   22  C   UNL     1      44.448 -21.649   5.948  1.00  0.00     0.117 A 
HETATM   23  C   UNL     1      44.128 -20.555   6.713  1.00  0.00     0.020 A 
HETATM   24 CL   UNL     1      44.712 -21.836   1.634  1.00  0.00    -0.082 Cl
HETATM   25  C   UNL     1      44.051 -19.255   1.832  1.00  0.00     0.028 A 
HETATM   26  C   UNL     1      43.722 -18.085   2.502  1.00  0.00     0.032 A 
ENDBRANCH   1  16
TORSDOF 1
ENDMDL
MODEL 4
REMARK VINA RESULT:      -7.8      1.795      2.948
REMARK  1 active torsions:
REMARK  status: ('A' for Active; 'I' for Inactive)
REMARK    1  A    between atoms: C_11  and  N_12 
REMARK       I    between atoms: N_12  and  C_13 
REMARK       I    between atoms: C_13  and  N_14 
ROOT
HETATM    1  N   UNL     1      41.276 -16.565   2.642  1.00  0.00    -0.308 N 
HETATM    2  C   UNL     1      41.444 -15.800   1.514  1.00  0.00     0.323 C 
HETATM    3  N   UNL     1      40.246 -15.317   0.959  1.00  0.00    -0.332 N 
HETATM    4  C   UNL     1      40.368 -14.594  -0.307  1.00  0.00     0.160 C 
HETATM    5  C   UNL     1      40.399 -13.055  -0.143  1.00  0.00     0.204 C 
HETATM    6  N   UNL     1      38.991 -12.507  -0.242  1.00  0.00    -0.069 N 
HETATM    7  H   UNL     1      38.587 -12.751  -1.157  1.00  0.00     0.277 HD
HETATM    8  H   UNL     1      39.059 -11.478  -0.257  1.00  0.00     0.277 HD
HETATM    9  C   UNL     1      38.053 -12.904   0.851  1.00  0.00     0.239 C 
HETATM   10  C   UNL     1      38.773 -13.579   2.019  1.00  0.00     0.029 C 
HETATM   11  C   UNL     1      39.031 -15.077   1.739  1.00  0.00     0.134 C 
HETATM   12  C   UNL     1      40.971 -12.537   1.181  1.00  0.00     0.035 C 
HETATM   13  C   UNL     1      40.055 -12.814   2.387  1.00  0.00     0.010 C 
HETATM   14  O   UNL     1      42.519 -15.509   1.000  1.00  0.00    -0.247 OA
HETATM   15  H   UNL     1      40.406 -17.065   2.672  1.00  0.00     0.170 HD
ENDROOT
BRANCH   1  16
HETATM   16  C   UNL     1      42.268 -16.978   3.574  1.00  0.00     0.049 A 
HETATM   17  C   UNL     1      43.006 -18.188   3.337  1.00  0.00     0.021 A 
HETATM   18  C   UNL     1      43.979 -18.616   4.277  1.00  0.00     0.090 A 
HETATM   19  C   UNL     1      42.827 -19.027   2.206  1.00  0.00     0.017 A 
HETATM   20  N   UNL     1      44.692 -19.752   4.101  1.00  0.00    -0.259 NA
HETATM   21  C   UNL     1      44.188 -17.831   5.417  1.00  0.00     0.063 A 
HETATM   22  C   UNL     1      44.485 -20.511   3.010  1.00  0.00     0.117 A 
HETATM   23  C   UNL     1      43.567 -20.193   2.040  1.00  0.00     0.020 A 
HETATM   24 CL   UNL     1      45.361 -18.284   6.613  1.00  0.00    -0.082 Cl
HETATM   25  C   UNL     1      43.464 -16.665   5.654  1.00  0.00     0.028 A 
HETATM   26  C   UNL     1      42.505 -16.248   4.742  1.00  0.00     0.032 A 
ENDBRANCH   1  16
TORSDOF 1
ENDMDL
MODEL 5
REMARK VINA RESULT:      -7.8      1.736      2.543
REMARK  1 active torsions:
REMARK  status: ('A' for Active; 'I' for Inactive)
REMARK    1  A    between atoms: C_11  and  N_12 
REMARK       I    between atoms: N_12  and  C_13 
REMARK       I    between atoms: C_13  and  N_14 
ROOT
HETATM    1  N   UNL     1      43.213 -16.377   3.550  1.00  0.00    -0.308 N 
HETATM    2  C   UNL     1      41.987 -15.865   3.896  1.00  0.00     0.323 C 
HETATM    3  N   UNL     1      41.933 -14.460   3.922  1.00  0.00    -0.332 N 
HETATM    4  C   UNL     1      40.680 -13.872   4.395  1.00  0.00     0.160 C 
HETATM    5  C   UNL     1      39.721 -13.450   3.255  1.00  0.00     0.204 C 
HETATM    6  N   UNL     1      39.981 -12.005   2.885  1.00  0.00    -0.069 N 
HETATM    7  H   UNL     1      39.830 -11.403   3.707  1.00  0.00     0.277 HD
HETATM    8  H   UNL     1      39.247 -11.720   2.219  1.00  0.00     0.277 HD
HETATM    9  C   UNL     1      41.313 -11.711   2.278  1.00  0.00     0.239 C 
HETATM   10  C   UNL     1      42.070 -12.983   1.894  1.00  0.00     0.029 C 
HETATM   11  C   UNL     1      42.797 -13.602   3.110  1.00  0.00     0.134 C 
HETATM   12  C   UNL     1      39.836 -14.255   1.957  1.00  0.00     0.035 C 
HETATM   13  C   UNL     1      41.140 -13.982   1.186  1.00  0.00     0.010 C 
HETATM   14  O   UNL     1      40.983 -16.521   4.150  1.00  0.00    -0.247 OA
HETATM   15  H   UNL     1      43.988 -15.793   3.809  1.00  0.00     0.170 HD
ENDROOT
BRANCH   1  16
HETATM   16  C   UNL     1      43.531 -17.715   3.185  1.00  0.00     0.049 A 
HETATM   17  C   UNL     1      43.817 -18.681   4.208  1.00  0.00     0.021 A 
HETATM   18  C   UNL     1      44.158 -20.011   3.846  1.00  0.00     0.090 A 
HETATM   19  C   UNL     1      43.798 -18.404   5.600  1.00  0.00     0.017 A 
HETATM   20  N   UNL     1      44.444 -20.953   4.774  1.00  0.00    -0.259 NA
HETATM   21  C   UNL     1      44.202 -20.335   2.486  1.00  0.00     0.063 A 
HETATM   22  C   UNL     1      44.411 -20.639   6.082  1.00  0.00     0.117 A 
HETATM   23  C   UNL     1      44.096 -19.384   6.542  1.00  0.00     0.020 A 
HETATM   24 CL   UNL     1      44.609 -21.939   1.961  1.00  0.00    -0.082 Cl
HETATM   25  C   UNL     1      43.937 -19.396   1.492  1.00  0.00     0.028 A 
HETATM   26  C   UNL     1      43.613 -18.092   1.842  1.00  0.00     0.032 A 
ENDBRANCH   1  16
TORSDOF 1
ENDMDL
MODEL 6
REMARK VINA RESULT:      -7.8      1.553      1.841
REMARK  1 active torsions:
REMARK  status: ('A' for Active; 'I' for Inactive)
REMARK    1  A    between atoms: C_11  and  N_12 
REMARK       I    between atoms: N_12  and  C_13 
REMARK       I    between atoms: C_13  and  N_14 
ROOT
HETATM    1  N   UNL     1      41.972 -16.831   2.867  1.00  0.00    -0.308 N 
HETATM    2  C   UNL     1      42.450 -15.545   2.901  1.00  0.00     0.323 C 
HETATM    3  N   UNL     1      41.452 -14.559   2.988  1.00  0.00    -0.332 N 
HETATM    4  C   UNL     1      41.908 -13.171   2.911  1.00  0.00     0.160 C 
HETATM    5  C   UNL     1      42.079 -12.496   4.294  1.00  0.00     0.204 C 
HETATM    6  N   UNL     1      40.791 -11.799   4.679  1.00  0.00    -0.069 N 
HETATM    7  H   UNL     1      40.555 -11.088   3.972  1.00  0.00     0.277 HD
HETATM    8  H   UNL     1      40.977 -11.257   5.537  1.00  0.00     0.277 HD
HETATM    9  C   UNL     1      39.612 -12.684   4.923  1.00  0.00     0.239 C 
HETATM   10  C   UNL     1      40.001 -14.161   5.000  1.00  0.00     0.029 C 
HETATM   11  C   UNL     1      40.139 -14.787   3.594  1.00  0.00     0.134 C 
HETATM   12  C   UNL     1      42.426 -13.433   5.455  1.00  0.00     0.035 C 
HETATM   13  C   UNL     1      41.260 -14.353   5.862  1.00  0.00     0.010 C 
HETATM   14  O   UNL     1      43.633 -15.219   2.883  1.00  0.00    -0.247 OA
HETATM   15  H   UNL     1      41.063 -16.919   2.449  1.00  0.00     0.170 HD
ENDROOT
BRANCH   1  16
HETATM   16  C   UNL     1      42.702 -18.040   3.039  1.00  0.00     0.049 A 
HETATM   17  C   UNL     1      43.108 -18.443   4.357  1.00  0.00     0.021 A 
HETATM   18  C   UNL     1      43.857 -19.636   4.530  1.00  0.00     0.090 A 
HETATM   19  C   UNL     1      42.823 -17.714   5.541  1.00  0.00     0.017 A 
HETATM   20  N   UNL     1      44.269 -20.051   5.750  1.00  0.00    -0.259 NA
HETATM   21  C   UNL     1      44.175 -20.388   3.393  1.00  0.00     0.063 A 
HETATM   22  C   UNL     1      43.971 -19.323   6.842  1.00  0.00     0.117 A 
HETATM   23  C   UNL     1      43.256 -18.153   6.788  1.00  0.00     0.020 A 
HETATM   24 CL   UNL     1      45.086 -21.860   3.520  1.00  0.00    -0.082 Cl
HETATM   25  C   UNL     1      43.793 -19.992   2.114  1.00  0.00     0.028 A 
HETATM   26  C   UNL     1      43.069 -18.821   1.939  1.00  0.00     0.032 A 
ENDBRANCH   1  16
TORSDOF 1
ENDMDL
MODEL 7
REMARK VINA RESULT:      -7.7      1.837      3.323
REMARK  1 active torsions:
REMARK  status: ('A' for Active; 'I' for Inactive)
REMARK    1  A    between atoms: C_11  and  N_12 
REMARK       I    between atoms: N_12  and  C_13 
REMARK       I    between atoms: C_13  and  N_14 
ROOT
HETATM    1  N   UNL     1      42.779 -15.729   4.560  1.00  0.00    -0.308 N 
HETATM    2  C   UNL     1      41.567 -15.104   4.406  1.00  0.00     0.323 C 
HETATM    3  N   UNL     1      41.550 -14.110   3.413  1.00  0.00    -0.332 N 
HETATM    4  C   UNL     1      40.311 -13.340   3.292  1.00  0.00     0.160 C 
HETATM    5  C   UNL     1      39.367 -13.852   2.177  1.00  0.00     0.204 C 
HETATM    6  N   UNL     1      39.666 -13.119   0.886  1.00  0.00    -0.069 N 
HETATM    7  H   UNL     1      39.529 -12.108   1.021  1.00  0.00     0.277 HD
HETATM    8  H   UNL     1      38.942 -13.389   0.203  1.00  0.00     0.277 HD
HETATM    9  C   UNL     1      41.008 -13.374   0.281  1.00  0.00     0.239 C 
HETATM   10  C   UNL     1      41.732 -14.546   0.945  1.00  0.00     0.029 C 
HETATM   11  C   UNL     1      42.438 -14.112   2.250  1.00  0.00     0.134 C 
HETATM   12  C   UNL     1      39.464 -15.347   1.856  1.00  0.00     0.035 C 
HETATM   13  C   UNL     1      40.778 -15.733   1.152  1.00  0.00     0.010 C 
HETATM   14  O   UNL     1      40.544 -15.361   5.033  1.00  0.00    -0.247 OA
HETATM   15  H   UNL     1      43.569 -15.150   4.337  1.00  0.00     0.170 HD
ENDROOT
BRANCH   1  16
HETATM   16  C   UNL     1      43.063 -16.926   5.276  1.00  0.00     0.049 A 
HETATM   17  C   UNL     1      43.562 -18.073   4.570  1.00  0.00     0.021 A 
HETATM   18  C   UNL     1      43.823 -19.276   5.278  1.00  0.00     0.090 A 
HETATM   19  C   UNL     1      43.813 -18.109   3.174  1.00  0.00     0.017 A 
HETATM   20  N   UNL     1      44.285 -20.385   4.655  1.00  0.00    -0.259 NA
HETATM   21  C   UNL     1      43.582 -19.299   6.656  1.00  0.00     0.063 A 
HETATM   22  C   UNL     1      44.508 -20.366   3.328  1.00  0.00     0.117 A 
HETATM   23  C   UNL     1      44.287 -19.257   2.549  1.00  0.00     0.020 A 
HETATM   24 CL   UNL     1      43.877 -20.730   7.592  1.00  0.00    -0.082 Cl
HETATM   25  C   UNL     1      43.086 -18.191   7.338  1.00  0.00     0.028 A 
HETATM   26  C   UNL     1      42.820 -17.015   6.649  1.00  0.00     0.032 A 
ENDBRANCH   1  16
TORSDOF 1
ENDMDL
MODEL 8
REMARK VINA RESULT:      -7.5      2.947      4.210
REMARK  1 active torsions:
REMARK  status: ('A' for Active; 'I' for Inactive)
REMARK    1  A    between atoms: C_11  and  N_12 
REMARK       I    between atoms: N_12  and  C_13 
REMARK       I    between atoms: C_13  and  N_14 
ROOT
HETATM    1  N   UNL     1      42.351 -15.070   0.697  1.00  0.00    -0.308 N 
HETATM    2  C   UNL     1      41.078 -14.829   0.244  1.00  0.00     0.323 C 
HETATM    3  N   UNL     1      40.984 -13.782  -0.689  1.00  0.00    -0.332 N 
HETATM    4  C   UNL     1      39.633 -13.415  -1.112  1.00  0.00     0.160 C 
HETATM    5  C   UNL     1      39.204 -14.061  -2.453  1.00  0.00     0.204 C 
HETATM    6  N   UNL     1      39.556 -13.132  -3.597  1.00  0.00    -0.069 N 
HETATM    7  H   UNL     1      39.072 -12.232  -3.474  1.00  0.00     0.277 HD
HETATM    8  H   UNL     1      39.146 -13.531  -4.455  1.00  0.00     0.277 HD
HETATM    9  C   UNL     1      41.013 -12.900  -3.831  1.00  0.00     0.239 C 
HETATM   10  C   UNL     1      41.891 -13.864  -3.031  1.00  0.00     0.029 C 
HETATM   11  C   UNL     1      42.081 -13.385  -1.574  1.00  0.00     0.134 C 
HETATM   12  C   UNL     1      39.851 -15.410  -2.779  1.00  0.00     0.035 C 
HETATM   13  C   UNL     1      41.349 -15.300  -3.119  1.00  0.00     0.010 C 
HETATM   14  O   UNL     1      40.072 -15.452   0.569  1.00  0.00    -0.247 OA
HETATM   15  H   UNL     1      42.942 -14.258   0.708  1.00  0.00     0.170 HD
ENDROOT
BRANCH   1  16
HETATM   16  C   UNL     1      42.822 -16.197   1.428  1.00  0.00     0.049 A 
HETATM   17  C   UNL     1      42.986 -16.102   2.852  1.00  0.00     0.021 A 
HETATM   18  C   UNL     1      43.477 -17.216   3.580  1.00  0.00     0.090 A 
HETATM   19  C   UNL     1      42.697 -14.941   3.616  1.00  0.00     0.017 A 
HETATM   20  N   UNL     1      43.657 -17.171   4.921  1.00  0.00    -0.259 NA
HETATM   21  C   UNL     1      43.788 -18.384   2.873  1.00  0.00     0.063 A 
HETATM   22  C   UNL     1      43.367 -16.046   5.598  1.00  0.00     0.117 A 
HETATM   23  C   UNL     1      42.889 -14.910   4.993  1.00  0.00     0.020 A 
HETATM   24 CL   UNL     1      44.393 -19.791   3.690  1.00  0.00    -0.082 Cl
HETATM   25  C   UNL     1      43.641 -18.472   1.491  1.00  0.00     0.028 A 
HETATM   26  C   UNL     1      43.169 -17.382   0.774  1.00  0.00     0.032 A 
ENDBRANCH   1  16
TORSDOF 1
ENDMDL
MODEL 9
REMARK VINA RESULT:      -7.3      1.619      2.804
REMARK  1 active torsions:
REMARK  status: ('A' for Active; 'I' for Inactive)
REMARK    1  A    between atoms: C_11  and  N_12 
REMARK       I    between atoms: N_12  and  C_13 
REMARK       I    between atoms: C_13  and  N_14 
ROOT
HETATM    1  N   UNL     1      41.826 -16.486   3.576  1.00  0.00    -0.308 N 
HETATM    2  C   UNL     1      42.292 -15.459   2.794  1.00  0.00     0.323 C 
HETATM    3  N   UNL     1      41.347 -14.949   1.886  1.00  0.00    -0.332 N 
HETATM    4  C   UNL     1      41.834 -13.932   0.953  1.00  0.00     0.160 C 
HETATM    5  C   UNL     1      41.532 -12.481   1.403  1.00  0.00     0.204 C 
HETATM    6  N   UNL     1      40.206 -12.037   0.822  1.00  0.00    -0.069 N 
HETATM    7  H   UNL     1      40.245 -12.081  -0.206  1.00  0.00     0.277 HD
HETATM    8  H   UNL     1      40.097 -11.034   1.033  1.00  0.00     0.277 HD
HETATM    9  C   UNL     1      38.996 -12.760   1.317  1.00  0.00     0.239 C 
HETATM   10  C   UNL     1      39.301 -13.641   2.529  1.00  0.00     0.029 C 
HETATM   11  C   UNL     1      39.901 -15.001   2.106  1.00  0.00     0.134 C 
HETATM   12  C   UNL     1      41.436 -12.260   2.916  1.00  0.00     0.035 C 
HETATM   13  C   UNL     1      40.180 -12.893   3.543  1.00  0.00     0.010 C 
HETATM   14  O   UNL     1      43.415 -14.969   2.849  1.00  0.00    -0.247 OA
HETATM   15  H   UNL     1      41.115 -17.044   3.139  1.00  0.00     0.170 HD
ENDROOT
BRANCH   1  16
HETATM   16  C   UNL     1      42.424 -17.036   4.745  1.00  0.00     0.049 A 
HETATM   17  C   UNL     1      43.265 -18.195   4.633  1.00  0.00     0.021 A 
HETATM   18  C   UNL     1      43.843 -18.761   5.800  1.00  0.00     0.090 A 
HETATM   19  C   UNL     1      43.567 -18.852   3.411  1.00  0.00     0.017 A 
HETATM   20  N   UNL     1      44.635 -19.857   5.745  1.00  0.00    -0.259 NA
HETATM   21  C   UNL     1      43.570 -18.158   7.032  1.00  0.00     0.063 A 
HETATM   22  C   UNL     1      44.890 -20.442   4.561  1.00  0.00     0.117 A 
HETATM   23  C   UNL     1      44.381 -19.980   3.373  1.00  0.00     0.020 A 
HETATM   24 CL   UNL     1      44.240 -18.788   8.505  1.00  0.00    -0.082 Cl
HETATM   25  C   UNL     1      42.744 -17.042   7.143  1.00  0.00     0.028 A 
HETATM   26  C   UNL     1      42.169 -16.491   6.006  1.00  0.00     0.032 A 
ENDBRANCH   1  16
TORSDOF 1
ENDMDL
MODEL 10
REMARK VINA RESULT:      -7.2      2.135      2.942
REMARK  1 active torsions:
REMARK  status: ('A' for Active; 'I' for Inactive)
REMARK    1  A    between atoms: C_11  and  N_12 
REMARK       I    between atoms: N_12  and  C_13 
REMARK       I    between atoms: C_13  and  N_14 
ROOT
HETATM    1  N   UNL     1      41.308 -16.527   2.797  1.00  0.00    -0.308 N 
HETATM    2  C   UNL     1      41.628 -16.051   1.550  1.00  0.00     0.323 C 
HETATM    3  N   UNL     1      40.556 -15.446   0.870  1.00  0.00    -0.332 N 
HETATM    4  C   UNL     1      40.821 -15.027  -0.507  1.00  0.00     0.160 C 
HETATM    5  C   UNL     1      41.179 -13.527  -0.642  1.00  0.00     0.204 C 
HETATM    6  N   UNL     1      39.918 -12.727  -0.895  1.00  0.00    -0.069 N 
HETATM    7  H   UNL     1      39.466 -13.056  -1.760  1.00  0.00     0.277 HD
HETATM    8  H   UNL     1      40.203 -11.759  -1.105  1.00  0.00     0.277 HD
HETATM    9  C   UNL     1      38.924 -12.697   0.219  1.00  0.00     0.239 C 
HETATM   10  C   UNL     1      39.492 -13.266   1.521  1.00  0.00     0.029 C 
HETATM   11  C   UNL     1      39.424 -14.810   1.544  1.00  0.00     0.134 C 
HETATM   12  C   UNL     1      41.855 -12.891   0.577  1.00  0.00     0.035 C 
HETATM   13  C   UNL     1      40.909 -12.729   1.780  1.00  0.00     0.010 C 
HETATM   14  O   UNL     1      42.737 -16.098   1.028  1.00  0.00    -0.247 OA
HETATM   15  H   UNL     1      40.352 -16.819   2.892  1.00  0.00     0.170 HD
ENDROOT
BRANCH   1  16
HETATM   16  C   UNL     1      42.196 -16.948   3.827  1.00  0.00     0.049 A 
HETATM   17  C   UNL     1      42.760 -15.975   4.720  1.00  0.00     0.021 A 
HETATM   18  C   UNL     1      43.664 -16.389   5.733  1.00  0.00     0.090 A 
HETATM   19  C   UNL     1      42.487 -14.583   4.665  1.00  0.00     0.017 A 
HETATM   20  N   UNL     1      44.227 -15.508   6.592  1.00  0.00    -0.259 NA
HETATM   21  C   UNL     1      43.976 -17.750   5.825  1.00  0.00     0.063 A 
HETATM   22  C   UNL     1      43.934 -14.198   6.497  1.00  0.00     0.117 A 
HETATM   23  C   UNL     1      43.075 -13.690   5.554  1.00  0.00     0.020 A 
HETATM   24 CL   UNL     1      45.071 -18.337   7.037  1.00  0.00    -0.082 Cl
HETATM   25  C   UNL     1      43.440 -18.693   4.951  1.00  0.00     0.028 A 
HETATM   26  C   UNL     1      42.562 -18.291   3.954  1.00  0.00     0.032 A 
ENDBRANCH   1  16
TORSDOF 1
ENDMDL
