MODEL 1
REMARK VINA RESULT:     -10.0      0.000      0.000
REMARK  5 active torsions:
REMARK  status: ('A' for Active; 'I' for Inactive)
REMARK    1  A    between atoms: C_3  and  O_4 
REMARK    2  A    between atoms: C_6  and  N_7 
REMARK       I    between atoms: N_7  and  C_8 
REMARK    3  A    between atoms: C_8  and  C_9 
REMARK    4  A    between atoms: C_12  and  C_13 
REMARK    5  A    between atoms: C_18  and  C_19 
ROOT
HETATM    1  C   UNL     1      40.522 -15.171   3.423  1.00  0.00     0.096 A 
HETATM    2  C   UNL     1      41.498 -16.005   3.938  1.00  0.00     0.138 A 
HETATM    3  N   UNL     1      41.667 -15.615   5.244  1.00  0.00    -0.240 N 
HETATM    4  C   UNL     1      42.617 -16.205   6.168  1.00  0.00     0.221 C 
HETATM    5  C   UNL     1      43.032 -17.598   5.663  1.00  0.00     0.066 C 
HETATM    6  C   UNL     1      43.372 -17.560   4.163  1.00  0.00     0.118 C 
HETATM    7  N   UNL     1      42.230 -17.027   3.408  1.00  0.00    -0.365 N 
HETATM    8  N   UNL     1      40.865 -14.611   5.625  1.00  0.00    -0.181 NA
HETATM    9  C   UNL     1      40.200 -14.313   4.505  1.00  0.00     0.160 A 
HETATM   10  H   UNL     1      42.417 -17.011   2.402  1.00  0.00     0.161 HD
ENDROOT
BRANCH   1  11
HETATM   11  C   UNL     1      39.926 -15.138   2.098  1.00  0.00     0.261 C 
HETATM   12  N   UNL     1      40.800 -14.712   1.115  1.00  0.00    -0.323 N 
HETATM   13  H   UNL     1      41.761 -14.593   1.414  1.00  0.00     0.169 HD
HETATM   14  O   UNL     1      38.772 -15.512   1.928  1.00  0.00    -0.267 OA
BRANCH  12  15
HETATM   15  C   UNL     1      40.535 -14.542  -0.258  1.00  0.00     0.037 A 
HETATM   16  C   UNL     1      41.378 -14.988  -1.277  1.00  0.00     0.066 A 
HETATM   17  C   UNL     1      41.031 -14.781  -2.611  1.00  0.00     0.067 A 
HETATM   18  C   UNL     1      39.852 -14.129  -2.955  1.00  0.00     0.036 A 
HETATM   19  C   UNL     1      39.003 -13.684  -1.943  1.00  0.00     0.005 A 
HETATM   20  C   UNL     1      39.340 -13.896  -0.603  1.00  0.00     0.029 A 
BRANCH  17  21
HETATM   21  O   UNL     1      41.886 -15.243  -3.569  1.00  0.00    -0.361 OA
HETATM   22  H   UNL     1      41.385 -15.414  -4.383  1.00  0.00     0.217 HD
ENDBRANCH  17  21
ENDBRANCH  12  15
ENDBRANCH   1  11
BRANCH   4  23
HETATM   23  C   UNL     1      43.806 -15.284   6.346  1.00  0.00     0.409 C 
HETATM   24  F   UNL     1      44.076 -14.554   5.242  1.00  0.00    -0.169 F 
HETATM   25  F   UNL     1      43.670 -14.434   7.384  1.00  0.00    -0.169 F 
HETATM   26  F   UNL     1      44.921 -16.022   6.599  1.00  0.00    -0.169 F 
ENDBRANCH   4  23
BRANCH   6  27
HETATM   27  C   UNL     1      43.732 -18.943   3.652  1.00  0.00    -0.035 A 
HETATM   28  C   UNL     1      44.526 -19.824   4.408  1.00  0.00     0.012 A 
HETATM   29  C   UNL     1      44.872 -21.079   3.902  1.00  0.00     0.043 A 
HETATM   30  C   UNL     1      44.430 -21.456   2.640  1.00  0.00     0.116 A 
HETATM   31  F   UNL     1      44.768 -22.657   2.155  1.00  0.00    -0.206 F 
HETATM   32  C   UNL     1      43.648 -20.603   1.874  1.00  0.00     0.043 A 
HETATM   33  C   UNL     1      43.298 -19.348   2.376  1.00  0.00     0.012 A 
ENDBRANCH   6  27
TORSDOF 5
ENDMDL
MODEL 2
REMARK VINA RESULT:      -9.8      0.827      1.620
REMARK  5 active torsions:
REMARK  status: ('A' for Active; 'I' for Inactive)
REMARK    1  A    between atoms: C_3  and  O_4 
REMARK    2  A    between atoms: C_6  and  N_7 
REMARK       I    between atoms: N_7  and  C_8 
REMARK    3  A    between atoms: C_8  and  C_9 
REMARK    4  A    between atoms: C_12  and  C_13 
REMARK    5  A    between atoms: C_18  and  C_19 
ROOT
HETATM    1  C   UNL     1      40.497 -15.068   3.255  1.00  0.00     0.096 A 
HETATM    2  C   UNL     1      41.485 -15.874   3.790  1.00  0.00     0.138 A 
HETATM    3  N   UNL     1      41.645 -15.451   5.088  1.00  0.00    -0.240 N 
HETATM    4  C   UNL     1      42.604 -16.004   6.026  1.00  0.00     0.221 C 
HETATM    5  C   UNL     1      43.043 -17.401   5.554  1.00  0.00     0.066 C 
HETATM    6  C   UNL     1      43.385 -17.390   4.054  1.00  0.00     0.118 C 
HETATM    7  N   UNL     1      42.236 -16.894   3.284  1.00  0.00    -0.365 N 
HETATM    8  N   UNL     1      40.826 -14.452   5.444  1.00  0.00    -0.181 NA
HETATM    9  C   UNL     1      40.158 -14.191   4.317  1.00  0.00     0.160 A 
HETATM   10  H   UNL     1      42.425 -16.898   2.278  1.00  0.00     0.161 HD
ENDROOT
BRANCH   1  11
HETATM   11  C   UNL     1      39.903 -15.075   1.928  1.00  0.00     0.261 C 
HETATM   12  N   UNL     1      40.800 -14.760   0.925  1.00  0.00    -0.323 N 
HETATM   13  H   UNL     1      41.767 -14.683   1.220  1.00  0.00     0.169 HD
HETATM   14  O   UNL     1      38.728 -15.387   1.777  1.00  0.00    -0.267 OA
BRANCH  12  15
HETATM   15  C   UNL     1      40.545 -14.653  -0.456  1.00  0.00     0.037 A 
HETATM   16  C   UNL     1      39.798 -13.626  -1.035  1.00  0.00     0.066 A 
HETATM   17  C   UNL     1      39.602 -13.598  -2.415  1.00  0.00     0.067 A 
HETATM   18  C   UNL     1      40.136 -14.584  -3.238  1.00  0.00     0.036 A 
HETATM   19  C   UNL     1      40.886 -15.610  -2.668  1.00  0.00     0.005 A 
HETATM   20  C   UNL     1      41.094 -15.641  -1.286  1.00  0.00     0.029 A 
BRANCH  17  21
HETATM   21  O   UNL     1      38.871 -12.568  -2.931  1.00  0.00    -0.361 OA
HETATM   22  H   UNL     1      38.645 -11.951  -2.215  1.00  0.00     0.217 HD
ENDBRANCH  17  21
ENDBRANCH  12  15
ENDBRANCH   1  11
BRANCH   4  23
HETATM   23  C   UNL     1      43.777 -15.060   6.185  1.00  0.00     0.409 C 
HETATM   24  F   UNL     1      44.904 -15.685   6.590  1.00  0.00    -0.169 F 
HETATM   25  F   UNL     1      44.064 -14.372   5.061  1.00  0.00    -0.169 F 
HETATM   26  F   UNL     1      43.490 -14.132   7.139  1.00  0.00    -0.169 F 
ENDBRANCH   4  23
BRANCH   6  27
HETATM   27  C   UNL     1      43.769 -18.779   3.574  1.00  0.00    -0.035 A 
HETATM   28  C   UNL     1      43.340 -19.272   2.328  1.00  0.00     0.012 A 
HETATM   29  C   UNL     1      43.677 -20.565   1.922  1.00  0.00     0.043 A 
HETATM   30  C   UNL     1      44.440 -21.370   2.760  1.00  0.00     0.116 A 
HETATM   31  F   UNL     1      44.758 -22.611   2.372  1.00  0.00    -0.206 F 
HETATM   32  C   UNL     1      44.872 -20.907   3.995  1.00  0.00     0.043 A 
HETATM   33  C   UNL     1      44.538 -19.615   4.404  1.00  0.00     0.012 A 
ENDBRANCH   6  27
TORSDOF 5
ENDMDL
MODEL 3
REMARK VINA RESULT:      -9.2      3.299      6.720
REMARK  5 active torsions:
REMARK  status: ('A' for Active; 'I' for Inactive)
REMARK    1  A    between atoms: C_3  and  O_4 
REMARK    2  A    between atoms: C_6  and  N_7 
REMARK       I    between atoms: N_7  and  C_8 
REMARK    3  A    between atoms: C_8  and  C_9 
REMARK    4  A    between atoms: C_12  and  C_13 
REMARK    5  A    between atoms: C_18  and  C_19 
ROOT
HETATM    1  C   UNL     1      43.633 -16.802   5.745  1.00  0.00     0.096 A 
HETATM    2  C   UNL     1      43.161 -15.848   4.862  1.00  0.00     0.138 A 
HETATM    3  N   UNL     1      43.468 -14.635   5.430  1.00  0.00    -0.240 N 
HETATM    4  C   UNL     1      43.134 -13.345   4.855  1.00  0.00     0.221 C 
HETATM    5  C   UNL     1      42.857 -13.505   3.351  1.00  0.00     0.066 C 
HETATM    6  C   UNL     1      41.928 -14.703   3.088  1.00  0.00     0.118 C 
HETATM    7  N   UNL     1      42.512 -15.922   3.664  1.00  0.00    -0.365 N 
HETATM    8  N   UNL     1      44.120 -14.725   6.597  1.00  0.00    -0.181 NA
HETATM    9  C   UNL     1      44.181 -16.043   6.809  1.00  0.00     0.160 A 
HETATM   10  H   UNL     1      41.927 -16.742   3.485  1.00  0.00     0.161 HD
ENDROOT
BRANCH   1  11
HETATM   11  C   UNL     1      43.606 -18.253   5.655  1.00  0.00     0.261 C 
HETATM   12  N   UNL     1      44.273 -18.745   4.548  1.00  0.00    -0.323 N 
HETATM   13  H   UNL     1      44.788 -18.055   4.013  1.00  0.00     0.169 HD
HETATM   14  O   UNL     1      43.073 -18.919   6.533  1.00  0.00    -0.267 OA
BRANCH  12  15
HETATM   15  C   UNL     1      44.411 -20.090   4.154  1.00  0.00     0.037 A 
HETATM   16  C   UNL     1      44.202 -20.547   2.852  1.00  0.00     0.066 A 
HETATM   17  C   UNL     1      44.369 -21.899   2.552  1.00  0.00     0.067 A 
HETATM   18  C   UNL     1      44.740 -22.813   3.532  1.00  0.00     0.036 A 
HETATM   19  C   UNL     1      44.955 -22.363   4.832  1.00  0.00     0.005 A 
HETATM   20  C   UNL     1      44.798 -21.008   5.140  1.00  0.00     0.029 A 
BRANCH  17  21
HETATM   21  O   UNL     1      44.159 -22.293   1.262  1.00  0.00    -0.361 OA
HETATM   22  H   UNL     1      43.380 -22.873   1.233  1.00  0.00     0.217 HD
ENDBRANCH  17  21
ENDBRANCH  12  15
ENDBRANCH   1  11
BRANCH   4  23
HETATM   23  C   UNL     1      41.958 -12.738   5.592  1.00  0.00     0.409 C 
HETATM   24  F   UNL     1      41.067 -13.663   6.012  1.00  0.00    -0.169 F 
HETATM   25  F   UNL     1      42.323 -11.999   6.660  1.00  0.00    -0.169 F 
HETATM   26  F   UNL     1      41.280 -11.902   4.761  1.00  0.00    -0.169 F 
ENDBRANCH   4  23
BRANCH   6  27
HETATM   27  C   UNL     1      41.694 -14.894   1.600  1.00  0.00    -0.035 A 
HETATM   28  C   UNL     1      41.549 -13.797   0.731  1.00  0.00     0.012 A 
HETATM   29  C   UNL     1      41.302 -13.997  -0.629  1.00  0.00     0.043 A 
HETATM   30  C   UNL     1      41.193 -15.291  -1.123  1.00  0.00     0.116 A 
HETATM   31  F   UNL     1      40.950 -15.481  -2.426  1.00  0.00    -0.206 F 
HETATM   32  C   UNL     1      41.329 -16.389  -0.285  1.00  0.00     0.043 A 
HETATM   33  C   UNL     1      41.579 -16.193   1.074  1.00  0.00     0.012 A 
ENDBRANCH   6  27
TORSDOF 5
ENDMDL
MODEL 4
REMARK VINA RESULT:      -9.2      3.815      7.823
REMARK  5 active torsions:
REMARK  status: ('A' for Active; 'I' for Inactive)
REMARK    1  A    between atoms: C_3  and  O_4 
REMARK    2  A    between atoms: C_6  and  N_7 
REMARK       I    between atoms: N_7  and  C_8 
REMARK    3  A    between atoms: C_8  and  C_9 
REMARK    4  A    between atoms: C_12  and  C_13 
REMARK    5  A    between atoms: C_18  and  C_19 
ROOT
HETATM    1  C   UNL     1      43.455 -15.921   5.261  1.00  0.00     0.096 A 
HETATM    2  C   UNL     1      43.032 -16.305   4.001  1.00  0.00     0.138 A 
HETATM    3  N   UNL     1      42.841 -17.664   4.073  1.00  0.00    -0.240 N 
HETATM    4  C   UNL     1      42.417 -18.499   2.966  1.00  0.00     0.221 C 
HETATM    5  C   UNL     1      41.749 -17.629   1.888  1.00  0.00     0.066 C 
HETATM    6  C   UNL     1      42.590 -16.374   1.598  1.00  0.00     0.118 C 
HETATM    7  N   UNL     1      42.809 -15.623   2.841  1.00  0.00    -0.365 N 
HETATM    8  N   UNL     1      43.084 -18.188   5.283  1.00  0.00    -0.181 NA
HETATM    9  C   UNL     1      43.499 -17.135   5.992  1.00  0.00     0.160 A 
HETATM   10  H   UNL     1      43.347 -14.768   2.677  1.00  0.00     0.161 HD
ENDROOT
BRANCH   1  11
HETATM   11  C   UNL     1      43.787 -14.602   5.773  1.00  0.00     0.261 C 
HETATM   12  N   UNL     1      44.558 -14.637   6.920  1.00  0.00    -0.323 N 
HETATM   13  H   UNL     1      44.889 -15.557   7.188  1.00  0.00     0.169 HD
HETATM   14  O   UNL     1      43.430 -13.596   5.172  1.00  0.00    -0.267 OA
BRANCH  12  15
HETATM   15  C   UNL     1      45.025 -13.546   7.678  1.00  0.00     0.037 A 
HETATM   16  C   UNL     1      46.202 -12.850   7.400  1.00  0.00     0.066 A 
HETATM   17  C   UNL     1      46.583 -11.775   8.204  1.00  0.00     0.067 A 
HETATM   18  C   UNL     1      45.810 -11.380   9.290  1.00  0.00     0.036 A 
HETATM   19  C   UNL     1      44.632 -12.068   9.571  1.00  0.00     0.005 A 
HETATM   20  C   UNL     1      44.238 -13.140   8.765  1.00  0.00     0.029 A 
BRANCH  17  21
HETATM   21  O   UNL     1      47.738 -11.124   7.885  1.00  0.00    -0.361 OA
HETATM   22  H   UNL     1      47.867 -10.387   8.506  1.00  0.00     0.217 HD
ENDBRANCH  17  21
ENDBRANCH  12  15
ENDBRANCH   1  11
BRANCH   4  23
HETATM   23  C   UNL     1      43.597 -19.278   2.423  1.00  0.00     0.409 C 
HETATM   24  F   UNL     1      43.855 -20.400   3.129  1.00  0.00    -0.169 F 
HETATM   25  F   UNL     1      43.454 -19.626   1.128  1.00  0.00    -0.169 F 
HETATM   26  F   UNL     1      44.720 -18.514   2.494  1.00  0.00    -0.169 F 
ENDBRANCH   4  23
BRANCH   6  27
HETATM   27  C   UNL     1      41.908 -15.488   0.571  1.00  0.00    -0.035 A 
HETATM   28  C   UNL     1      41.728 -14.110   0.791  1.00  0.00     0.012 A 
HETATM   29  C   UNL     1      41.068 -13.320  -0.153  1.00  0.00     0.043 A 
HETATM   30  C   UNL     1      40.581 -13.905  -1.316  1.00  0.00     0.116 A 
HETATM   31  F   UNL     1      39.943 -13.148  -2.217  1.00  0.00    -0.206 F 
HETATM   32  C   UNL     1      40.743 -15.263  -1.555  1.00  0.00     0.043 A 
HETATM   33  C   UNL     1      41.404 -16.054  -0.614  1.00  0.00     0.012 A 
ENDBRANCH   6  27
TORSDOF 5
ENDMDL
MODEL 5
REMARK VINA RESULT:      -9.1      3.449      7.076
REMARK  5 active torsions:
REMARK  status: ('A' for Active; 'I' for Inactive)
REMARK    1  A    between atoms: C_3  and  O_4 
REMARK    2  A    between atoms: C_6  and  N_7 
REMARK       I    between atoms: N_7  and  C_8 
REMARK    3  A    between atoms: C_8  and  C_9 
REMARK    4  A    between atoms: C_12  and  C_13 
REMARK    5  A    between atoms: C_18  and  C_19 
ROOT
HETATM    1  C   UNL     1      42.637 -16.087   3.907  1.00  0.00     0.096 A 
HETATM    2  C   UNL     1      42.112 -15.219   2.967  1.00  0.00     0.138 A 
HETATM    3  N   UNL     1      42.457 -13.959   3.392  1.00  0.00    -0.240 N 
HETATM    4  C   UNL     1      42.090 -12.728   2.717  1.00  0.00     0.221 C 
HETATM    5  C   UNL     1      41.717 -13.031   1.257  1.00  0.00     0.066 C 
HETATM    6  C   UNL     1      40.770 -14.241   1.171  1.00  0.00     0.118 C 
HETATM    7  N   UNL     1      41.388 -15.403   1.825  1.00  0.00    -0.365 N 
HETATM    8  N   UNL     1      43.182 -13.940   4.519  1.00  0.00    -0.181 NA
HETATM    9  C   UNL     1      43.255 -15.232   4.854  1.00  0.00     0.160 A 
HETATM   10  H   UNL     1      40.791 -16.232   1.765  1.00  0.00     0.161 HD
ENDROOT
BRANCH   1  11
HETATM   11  C   UNL     1      42.602 -17.539   3.960  1.00  0.00     0.261 C 
HETATM   12  N   UNL     1      43.701 -18.135   3.372  1.00  0.00    -0.323 N 
HETATM   13  H   UNL     1      44.437 -17.499   3.088  1.00  0.00     0.169 HD
HETATM   14  O   UNL     1      41.685 -18.116   4.531  1.00  0.00    -0.267 OA
BRANCH  12  15
HETATM   15  C   UNL     1      43.961 -19.513   3.231  1.00  0.00     0.037 A 
HETATM   16  C   UNL     1      44.525 -20.306   4.231  1.00  0.00     0.066 A 
HETATM   17  C   UNL     1      44.741 -21.665   4.005  1.00  0.00     0.067 A 
HETATM   18  C   UNL     1      44.409 -22.254   2.790  1.00  0.00     0.036 A 
HETATM   19  C   UNL     1      43.841 -21.469   1.788  1.00  0.00     0.005 A 
HETATM   20  C   UNL     1      43.613 -20.107   2.011  1.00  0.00     0.029 A 
BRANCH  17  21
HETATM   21  O   UNL     1      45.288 -22.398   5.017  1.00  0.00    -0.361 OA
HETATM   22  H   UNL     1      44.689 -22.375   5.782  1.00  0.00     0.217 HD
ENDBRANCH  17  21
ENDBRANCH  12  15
ENDBRANCH   1  11
BRANCH   4  23
HETATM   23  C   UNL     1      40.965 -12.043   3.465  1.00  0.00     0.409 C 
HETATM   24  F   UNL     1      40.130 -12.914   4.071  1.00  0.00    -0.169 F 
HETATM   25  F   UNL     1      41.399 -11.168   4.394  1.00  0.00    -0.169 F 
HETATM   26  F   UNL     1      40.205 -11.328   2.591  1.00  0.00    -0.169 F 
ENDBRANCH   4  23
BRANCH   6  27
HETATM   27  C   UNL     1      40.442 -14.574  -0.273  1.00  0.00    -0.035 A 
HETATM   28  C   UNL     1      41.237 -15.459  -1.024  1.00  0.00     0.012 A 
HETATM   29  C   UNL     1      40.934 -15.724  -2.361  1.00  0.00     0.043 A 
HETATM   30  C   UNL     1      39.841 -15.104  -2.953  1.00  0.00     0.116 A 
HETATM   31  F   UNL     1      39.555 -15.355  -4.237  1.00  0.00    -0.206 F 
HETATM   32  C   UNL     1      39.043 -14.225  -2.234  1.00  0.00     0.043 A 
HETATM   33  C   UNL     1      39.341 -13.958  -0.897  1.00  0.00     0.012 A 
ENDBRANCH   6  27
TORSDOF 5
ENDMDL
MODEL 6
REMARK VINA RESULT:      -9.1      1.718      2.343
REMARK  5 active torsions:
REMARK  status: ('A' for Active; 'I' for Inactive)
REMARK    1  A    between atoms: C_3  and  O_4 
REMARK    2  A    between atoms: C_6  and  N_7 
REMARK       I    between atoms: N_7  and  C_8 
REMARK    3  A    between atoms: C_8  and  C_9 
REMARK    4  A    between atoms: C_12  and  C_13 
REMARK    5  A    between atoms: C_18  and  C_19 
ROOT
HETATM    1  C   UNL     1      40.857 -14.784   1.123  1.00  0.00     0.096 A 
HETATM    2  C   UNL     1      41.646 -15.465   2.032  1.00  0.00     0.138 A 
HETATM    3  N   UNL     1      41.553 -14.756   3.206  1.00  0.00    -0.240 N 
HETATM    4  C   UNL     1      42.245 -15.097   4.435  1.00  0.00     0.221 C 
HETATM    5  C   UNL     1      42.673 -16.574   4.395  1.00  0.00     0.066 C 
HETATM    6  C   UNL     1      43.329 -16.919   3.047  1.00  0.00     0.118 C 
HETATM    7  N   UNL     1      42.411 -16.591   1.948  1.00  0.00    -0.365 N 
HETATM    8  N   UNL     1      40.751 -13.685   3.138  1.00  0.00    -0.181 NA
HETATM    9  C   UNL     1      40.362 -13.678   1.860  1.00  0.00     0.160 A 
HETATM   10  H   UNL     1      42.811 -16.832   1.037  1.00  0.00     0.161 HD
ENDROOT
BRANCH   1  11
HETATM   11  C   UNL     1      40.562 -15.086  -0.268  1.00  0.00     0.261 C 
HETATM   12  N   UNL     1      39.418 -14.466  -0.732  1.00  0.00    -0.323 N 
HETATM   13  H   UNL     1      39.001 -13.797  -0.094  1.00  0.00     0.169 HD
HETATM   14  O   UNL     1      41.322 -15.787  -0.924  1.00  0.00    -0.267 OA
BRANCH  12  15
HETATM   15  C   UNL     1      38.843 -14.568  -2.014  1.00  0.00     0.037 A 
HETATM   16  C   UNL     1      39.198 -15.536  -2.954  1.00  0.00     0.066 A 
HETATM   17  C   UNL     1      38.569 -15.565  -4.198  1.00  0.00     0.067 A 
HETATM   18  C   UNL     1      37.587 -14.637  -4.530  1.00  0.00     0.036 A 
HETATM   19  C   UNL     1      37.225 -13.670  -3.595  1.00  0.00     0.005 A 
HETATM   20  C   UNL     1      37.844 -13.640  -2.342  1.00  0.00     0.029 A 
BRANCH  17  21
HETATM   21  O   UNL     1      38.947 -16.536  -5.078  1.00  0.00    -0.361 OA
HETATM   22  H   UNL     1      38.802 -17.406  -4.669  1.00  0.00     0.217 HD
ENDBRANCH  17  21
ENDBRANCH  12  15
ENDBRANCH   1  11
BRANCH   4  23
HETATM   23  C   UNL     1      43.422 -14.166   4.642  1.00  0.00     0.409 C 
HETATM   24  F   UNL     1      44.095 -13.908   3.500  1.00  0.00    -0.169 F 
HETATM   25  F   UNL     1      43.077 -12.986   5.196  1.00  0.00    -0.169 F 
HETATM   26  F   UNL     1      44.315 -14.741   5.492  1.00  0.00    -0.169 F 
ENDBRANCH   4  23
BRANCH   6  27
HETATM   27  C   UNL     1      43.705 -18.389   2.987  1.00  0.00    -0.035 A 
HETATM   28  C   UNL     1      43.385 -19.185   1.872  1.00  0.00     0.012 A 
HETATM   29  C   UNL     1      43.712 -20.543   1.852  1.00  0.00     0.043 A 
HETATM   30  C   UNL     1      44.354 -21.110   2.946  1.00  0.00     0.116 A 
HETATM   31  F   UNL     1      44.661 -22.413   2.928  1.00  0.00    -0.206 F 
HETATM   32  C   UNL     1      44.677 -20.346   4.059  1.00  0.00     0.043 A 
HETATM   33  C   UNL     1      44.354 -18.988   4.082  1.00  0.00     0.012 A 
ENDBRANCH   6  27
TORSDOF 5
ENDMDL
MODEL 7
REMARK VINA RESULT:      -9.0      3.905      6.524
REMARK  5 active torsions:
REMARK  status: ('A' for Active; 'I' for Inactive)
REMARK    1  A    between atoms: C_3  and  O_4 
REMARK    2  A    between atoms: C_6  and  N_7 
REMARK       I    between atoms: N_7  and  C_8 
REMARK    3  A    between atoms: C_8  and  C_9 
REMARK    4  A    between atoms: C_12  and  C_13 
REMARK    5  A    between atoms: C_18  and  C_19 
ROOT
HETATM    1  C   UNL     1      42.218 -13.684   3.942  1.00  0.00     0.096 A 
HETATM    2  C   UNL     1      42.439 -14.926   3.376  1.00  0.00     0.138 A 
HETATM    3  N   UNL     1      42.413 -14.725   2.017  1.00  0.00    -0.240 N 
HETATM    4  C   UNL     1      42.577 -15.768   1.022  1.00  0.00     0.221 C 
HETATM    5  C   UNL     1      43.261 -16.988   1.661  1.00  0.00     0.066 C 
HETATM    6  C   UNL     1      42.611 -17.338   3.011  1.00  0.00     0.118 C 
HETATM    7  N   UNL     1      42.648 -16.169   3.900  1.00  0.00    -0.365 N 
HETATM    8  N   UNL     1      42.215 -13.449   1.656  1.00  0.00    -0.181 NA
HETATM    9  C   UNL     1      42.053 -12.824   2.826  1.00  0.00     0.160 A 
HETATM   10  H   UNL     1      42.243 -16.377   4.816  1.00  0.00     0.161 HD
ENDROOT
BRANCH   1  11
HETATM   11  C   UNL     1      42.162 -13.291   5.340  1.00  0.00     0.261 C 
HETATM   12  N   UNL     1      41.304 -12.233   5.577  1.00  0.00    -0.323 N 
HETATM   13  H   UNL     1      40.743 -11.947   4.783  1.00  0.00     0.169 HD
HETATM   14  O   UNL     1      42.797 -13.910   6.184  1.00  0.00    -0.267 OA
BRANCH  12  15
HETATM   15  C   UNL     1      41.041 -11.597   6.806  1.00  0.00     0.037 A 
HETATM   16  C   UNL     1      39.785 -11.561   7.413  1.00  0.00     0.066 A 
HETATM   17  C   UNL     1      39.619 -10.911   8.635  1.00  0.00     0.067 A 
HETATM   18  C   UNL     1      40.687 -10.287   9.270  1.00  0.00     0.036 A 
HETATM   19  C   UNL     1      41.945 -10.322   8.672  1.00  0.00     0.005 A 
HETATM   20  C   UNL     1      42.122 -10.979   7.450  1.00  0.00     0.029 A 
BRANCH  17  21
HETATM   21  O   UNL     1      38.372 -10.911   9.190  1.00  0.00    -0.361 OA
HETATM   22  H   UNL     1      37.861 -10.173   8.818  1.00  0.00     0.217 HD
ENDBRANCH  17  21
ENDBRANCH  12  15
ENDBRANCH   1  11
BRANCH   4  23
HETATM   23  C   UNL     1      41.236 -16.118   0.412  1.00  0.00     0.409 C 
HETATM   24  F   UNL     1      41.006 -15.478  -0.755  1.00  0.00    -0.169 F 
HETATM   25  F   UNL     1      41.076 -17.440   0.200  1.00  0.00    -0.169 F 
HETATM   26  F   UNL     1      40.238 -15.742   1.257  1.00  0.00    -0.169 F 
ENDBRANCH   4  23
BRANCH   6  27
HETATM   27  C   UNL     1      43.318 -18.510   3.667  1.00  0.00    -0.035 A 
HETATM   28  C   UNL     1      43.395 -18.634   5.067  1.00  0.00     0.012 A 
HETATM   29  C   UNL     1      44.079 -19.703   5.648  1.00  0.00     0.043 A 
HETATM   30  C   UNL     1      44.692 -20.649   4.835  1.00  0.00     0.116 A 
HETATM   31  F   UNL     1      45.352 -21.671   5.395  1.00  0.00    -0.206 F 
HETATM   32  C   UNL     1      44.632 -20.548   3.452  1.00  0.00     0.043 A 
HETATM   33  C   UNL     1      43.948 -19.481   2.867  1.00  0.00     0.012 A 
ENDBRANCH   6  27
TORSDOF 5
ENDMDL
MODEL 8
REMARK VINA RESULT:      -8.9      2.315      2.721
REMARK  5 active torsions:
REMARK  status: ('A' for Active; 'I' for Inactive)
REMARK    1  A    between atoms: C_3  and  O_4 
REMARK    2  A    between atoms: C_6  and  N_7 
REMARK       I    between atoms: N_7  and  C_8 
REMARK    3  A    between atoms: C_8  and  C_9 
REMARK    4  A    between atoms: C_12  and  C_13 
REMARK    5  A    between atoms: C_18  and  C_19 
ROOT
HETATM    1  C   UNL     1      41.182 -14.603   1.988  1.00  0.00     0.096 A 
HETATM    2  C   UNL     1      41.531 -15.677   2.785  1.00  0.00     0.138 A 
HETATM    3  N   UNL     1      40.742 -15.578   3.906  1.00  0.00    -0.240 N 
HETATM    4  C   UNL     1      40.788 -16.490   5.033  1.00  0.00     0.221 C 
HETATM    5  C   UNL     1      41.446 -17.812   4.603  1.00  0.00     0.066 C 
HETATM    6  C   UNL     1      42.732 -17.549   3.801  1.00  0.00     0.118 C 
HETATM    7  N   UNL     1      42.433 -16.691   2.646  1.00  0.00    -0.365 N 
HETATM    8  N   UNL     1      39.894 -14.540   3.889  1.00  0.00    -0.181 NA
HETATM    9  C   UNL     1      40.193 -13.923   2.743  1.00  0.00     0.160 A 
HETATM   10  H   UNL     1      43.267 -16.517   2.079  1.00  0.00     0.161 HD
ENDROOT
BRANCH   1  11
HETATM   11  C   UNL     1      41.674 -14.214   0.676  1.00  0.00     0.261 C 
HETATM   12  N   UNL     1      41.720 -12.845   0.492  1.00  0.00    -0.323 N 
HETATM   13  H   UNL     1      41.523 -12.292   1.319  1.00  0.00     0.169 HD
HETATM   14  O   UNL     1      42.044 -15.065  -0.124  1.00  0.00    -0.267 OA
BRANCH  12  15
HETATM   15  C   UNL     1      42.118 -12.144  -0.663  1.00  0.00     0.037 A 
HETATM   16  C   UNL     1      41.951 -12.623  -1.963  1.00  0.00     0.066 A 
HETATM   17  C   UNL     1      42.371 -11.856  -3.049  1.00  0.00     0.067 A 
HETATM   18  C   UNL     1      42.964 -10.611  -2.864  1.00  0.00     0.036 A 
HETATM   19  C   UNL     1      43.131 -10.125  -1.569  1.00  0.00     0.005 A 
HETATM   20  C   UNL     1      42.704 -10.885  -0.475  1.00  0.00     0.029 A 
BRANCH  17  21
HETATM   21  O   UNL     1      42.178 -12.366  -4.299  1.00  0.00    -0.361 OA
HETATM   22  H   UNL     1      41.232 -12.317  -4.517  1.00  0.00     0.217 HD
ENDBRANCH  17  21
ENDBRANCH  12  15
ENDBRANCH   1  11
BRANCH   4  23
HETATM   23  C   UNL     1      41.513 -15.842   6.194  1.00  0.00     0.409 C 
HETATM   24  F   UNL     1      41.882 -16.729   7.144  1.00  0.00    -0.169 F 
HETATM   25  F   UNL     1      42.610 -15.154   5.820  1.00  0.00    -0.169 F 
HETATM   26  F   UNL     1      40.689 -14.948   6.806  1.00  0.00    -0.169 F 
ENDBRANCH   4  23
BRANCH   6  27
HETATM   27  C   UNL     1      43.356 -18.851   3.331  1.00  0.00    -0.035 A 
HETATM   28  C   UNL     1      42.984 -19.448   2.112  1.00  0.00     0.012 A 
HETATM   29  C   UNL     1      43.547 -20.663   1.715  1.00  0.00     0.043 A 
HETATM   30  C   UNL     1      44.477 -21.288   2.536  1.00  0.00     0.116 A 
HETATM   31  F   UNL     1      45.011 -22.456   2.158  1.00  0.00    -0.206 F 
HETATM   32  C   UNL     1      44.858 -20.721   3.745  1.00  0.00     0.043 A 
HETATM   33  C   UNL     1      44.299 -19.506   4.144  1.00  0.00     0.012 A 
ENDBRANCH   6  27
TORSDOF 5
ENDMDL
MODEL 9
REMARK VINA RESULT:      -8.9      3.564      7.413
REMARK  5 active torsions:
REMARK  status: ('A' for Active; 'I' for Inactive)
REMARK    1  A    between atoms: C_3  and  O_4 
REMARK    2  A    between atoms: C_6  and  N_7 
REMARK       I    between atoms: N_7  and  C_8 
REMARK    3  A    between atoms: C_8  and  C_9 
REMARK    4  A    between atoms: C_12  and  C_13 
REMARK    5  A    between atoms: C_18  and  C_19 
ROOT
HETATM    1  C   UNL     1      43.040 -15.990   3.289  1.00  0.00     0.096 A 
HETATM    2  C   UNL     1      42.498 -14.914   2.611  1.00  0.00     0.138 A 
HETATM    3  N   UNL     1      42.100 -14.027   3.582  1.00  0.00    -0.240 N 
HETATM    4  C   UNL     1      41.450 -12.756   3.325  1.00  0.00     0.221 C 
HETATM    5  C   UNL     1      41.715 -12.324   1.873  1.00  0.00     0.066 C 
HETATM    6  C   UNL     1      41.480 -13.493   0.901  1.00  0.00     0.118 C 
HETATM    7  N   UNL     1      42.317 -14.637   1.288  1.00  0.00    -0.365 N 
HETATM    8  N   UNL     1      42.360 -14.431   4.833  1.00  0.00    -0.181 NA
HETATM    9  C   UNL     1      42.892 -15.643   4.656  1.00  0.00     0.160 A 
HETATM   10  H   UNL     1      42.201 -15.425   0.645  1.00  0.00     0.161 HD
ENDROOT
BRANCH   1  11
HETATM   11  C   UNL     1      43.638 -17.212   2.777  1.00  0.00     0.261 C 
HETATM   12  N   UNL     1      43.334 -18.329   3.533  1.00  0.00    -0.323 N 
HETATM   13  H   UNL     1      42.650 -18.181   4.266  1.00  0.00     0.169 HD
HETATM   14  O   UNL     1      44.294 -17.195   1.743  1.00  0.00    -0.267 OA
BRANCH  12  15
HETATM   15  C   UNL     1      43.772 -19.652   3.328  1.00  0.00     0.037 A 
HETATM   16  C   UNL     1      43.559 -20.371   2.151  1.00  0.00     0.066 A 
HETATM   17  C   UNL     1      44.034 -21.677   2.035  1.00  0.00     0.067 A 
HETATM   18  C   UNL     1      44.719 -22.289   3.079  1.00  0.00     0.036 A 
HETATM   19  C   UNL     1      44.939 -21.576   4.256  1.00  0.00     0.005 A 
HETATM   20  C   UNL     1      44.473 -20.263   4.377  1.00  0.00     0.029 A 
BRANCH  17  21
HETATM   21  O   UNL     1      43.807 -22.333   0.861  1.00  0.00    -0.361 OA
HETATM   22  H   UNL     1      42.979 -22.836   0.936  1.00  0.00     0.217 HD
ENDBRANCH  17  21
ENDBRANCH  12  15
ENDBRANCH   1  11
BRANCH   4  23
HETATM   23  C   UNL     1      39.970 -12.859   3.630  1.00  0.00     0.409 C 
HETATM   24  F   UNL     1      39.216 -12.048   2.857  1.00  0.00    -0.169 F 
HETATM   25  F   UNL     1      39.488 -14.112   3.510  1.00  0.00    -0.169 F 
HETATM   26  F   UNL     1      39.742 -12.482   4.918  1.00  0.00    -0.169 F 
ENDBRANCH   4  23
BRANCH   6  27
HETATM   27  C   UNL     1      41.791 -13.083  -0.527  1.00  0.00    -0.035 A 
HETATM   28  C   UNL     1      41.494 -13.924  -1.615  1.00  0.00     0.012 A 
HETATM   29  C   UNL     1      41.819 -13.541  -2.919  1.00  0.00     0.043 A 
HETATM   30  C   UNL     1      42.446 -12.320  -3.138  1.00  0.00     0.116 A 
HETATM   31  F   UNL     1      42.762 -11.957  -4.387  1.00  0.00    -0.206 F 
HETATM   32  C   UNL     1      42.752 -11.475  -2.081  1.00  0.00     0.043 A 
HETATM   33  C   UNL     1      42.427 -11.854  -0.777  1.00  0.00     0.012 A 
ENDBRANCH   6  27
TORSDOF 5
ENDMDL
MODEL 10
REMARK VINA RESULT:      -8.6      3.902      8.164
REMARK  5 active torsions:
REMARK  status: ('A' for Active; 'I' for Inactive)
REMARK    1  A    between atoms: C_3  and  O_4 
REMARK    2  A    between atoms: C_6  and  N_7 
REMARK       I    between atoms: N_7  and  C_8 
REMARK    3  A    between atoms: C_8  and  C_9 
REMARK    4  A    between atoms: C_12  and  C_13 
REMARK    5  A    between atoms: C_18  and  C_19 
ROOT
HETATM    1  C   UNL     1      43.778 -16.840   5.899  1.00  0.00     0.096 A 
HETATM    2  C   UNL     1      43.044 -16.636   4.744  1.00  0.00     0.138 A 
HETATM    3  N   UNL     1      43.071 -17.834   4.072  1.00  0.00    -0.240 N 
HETATM    4  C   UNL     1      42.445 -18.076   2.786  1.00  0.00     0.221 C 
HETATM    5  C   UNL     1      41.367 -17.011   2.527  1.00  0.00     0.066 C 
HETATM    6  C   UNL     1      41.898 -15.603   2.847  1.00  0.00     0.118 C 
HETATM    7  N   UNL     1      42.385 -15.557   4.233  1.00  0.00    -0.365 N 
HETATM    8  N   UNL     1      43.743 -18.804   4.708  1.00  0.00    -0.181 NA
HETATM    9  C   UNL     1      44.209 -18.186   5.797  1.00  0.00     0.160 A 
HETATM   10  H   UNL     1      42.724 -14.625   4.484  1.00  0.00     0.161 HD
ENDROOT
BRANCH   1  11
HETATM   11  C   UNL     1      44.067 -15.929   6.994  1.00  0.00     0.261 C 
HETATM   12  N   UNL     1      44.596 -14.722   6.577  1.00  0.00    -0.323 N 
HETATM   13  H   UNL     1      44.604 -14.578   5.573  1.00  0.00     0.169 HD
HETATM   14  O   UNL     1      43.798 -16.241   8.147  1.00  0.00    -0.267 OA
BRANCH  12  15
HETATM   15  C   UNL     1      45.008 -13.639   7.378  1.00  0.00     0.037 A 
HETATM   16  C   UNL     1      44.205 -13.037   8.349  1.00  0.00     0.066 A 
HETATM   17  C   UNL     1      44.700 -11.972   9.101  1.00  0.00     0.067 A 
HETATM   18  C   UNL     1      45.988 -11.487   8.901  1.00  0.00     0.036 A 
HETATM   19  C   UNL     1      46.796 -12.086   7.936  1.00  0.00     0.005 A 
HETATM   20  C   UNL     1      46.310 -13.160   7.184  1.00  0.00     0.029 A 
BRANCH  17  21
HETATM   21  O   UNL     1      43.879 -11.424  10.042  1.00  0.00    -0.361 OA
HETATM   22  H   UNL     1      44.421 -11.071  10.767  1.00  0.00     0.217 HD
ENDBRANCH  17  21
ENDBRANCH  12  15
ENDBRANCH   1  11
BRANCH   4  23
HETATM   23  C   UNL     1      43.496 -18.103   1.695  1.00  0.00     0.409 C 
HETATM   24  F   UNL     1      44.558 -17.316   1.969  1.00  0.00    -0.169 F 
HETATM   25  F   UNL     1      43.955 -19.343   1.429  1.00  0.00    -0.169 F 
HETATM   26  F   UNL     1      42.961 -17.636   0.535  1.00  0.00    -0.169 F 
ENDBRANCH   4  23
BRANCH   6  27
HETATM   27  C   UNL     1      40.820 -14.554   2.642  1.00  0.00    -0.035 A 
HETATM   28  C   UNL     1      40.922 -13.272   3.211  1.00  0.00     0.012 A 
HETATM   29  C   UNL     1      39.901 -12.334   3.036  1.00  0.00     0.043 A 
HETATM   30  C   UNL     1      38.775 -12.677   2.298  1.00  0.00     0.116 A 
HETATM   31  F   UNL     1      37.795 -11.779   2.137  1.00  0.00    -0.206 F 
HETATM   32  C   UNL     1      38.649 -13.937   1.730  1.00  0.00     0.043 A 
HETATM   33  C   UNL     1      39.668 -14.876   1.901  1.00  0.00     0.012 A 
ENDBRANCH   6  27
TORSDOF 5
ENDMDL
