MODEL 1
REMARK VINA RESULT:      -8.5      0.000      0.000
REMARK  4 active torsions:
REMARK  status: ('A' for Active; 'I' for Inactive)
REMARK    1  A    between atoms: C_2  and  N_3 
REMARK    2  A    between atoms: C_11  and  N_12 
REMARK    3  A    between atoms: N_12  and  C_15 
REMARK    4  A    between atoms: C_15  and  C_16 
ROOT
HETATM    1  N   UNL     1      40.651 -16.329   0.790  1.00  0.00    -0.067 N 
HETATM    2  H   UNL     1      40.042 -16.536  -0.017  1.00  0.00     0.280 HD
HETATM    3  C   UNL     1      42.064 -16.387   0.237  1.00  0.00     0.238 C 
HETATM    4  C   UNL     1      43.083 -16.299   1.369  1.00  0.00     0.066 C 
HETATM    5  C   UNL     1      42.900 -17.410   2.434  1.00  0.00     0.073 C 
HETATM    6  O   UNL     1      43.126 -18.648   1.752  1.00  0.00    -0.339 OA
HETATM    7  C   UNL     1      43.608 -19.715   2.450  1.00  0.00     0.078 A 
HETATM    8  C   UNL     1      44.128 -19.651   3.746  1.00  0.00     0.006 A 
HETATM    9  C   UNL     1      44.148 -18.361   4.508  1.00  0.00     0.224 C 
HETATM   10  C   UNL     1      43.939 -17.176   3.554  1.00  0.00     0.076 C 
HETATM   11  C   UNL     1      43.599 -20.923   1.747  1.00  0.00     0.037 A 
HETATM   12  C   UNL     1      44.111 -22.080   2.328  1.00  0.00     0.003 A 
HETATM   13  C   UNL     1      44.653 -22.029   3.606  1.00  0.00     0.001 A 
HETATM   14  C   UNL     1      44.672 -20.822   4.308  1.00  0.00     0.012 A 
HETATM   15  C   UNL     1      41.434 -17.403   2.913  1.00  0.00     0.066 C 
HETATM   16  C   UNL     1      40.449 -17.485   1.743  1.00  0.00     0.238 C 
ENDROOT
BRANCH   9  17
HETATM   17  N   UNL     1      43.129 -18.301   5.609  1.00  0.00    -0.063 N 
HETATM   18  H   UNL     1      42.188 -18.170   5.219  1.00  0.00     0.278 HD
HETATM   19  H   UNL     1      43.119 -19.177   6.139  1.00  0.00     0.278 HD
BRANCH  17  20
HETATM   20  C   UNL     1      43.278 -17.208   6.627  1.00  0.00     0.274 C 
BRANCH  20  21
HETATM   21  C   UNL     1      42.295 -16.148   6.311  1.00  0.00     0.004 A 
HETATM   22  C   UNL     1      42.530 -14.837   5.937  1.00  0.00     0.122 A 
HETATM   23  N   UNL     1      41.301 -14.271   5.730  1.00  0.00    -0.285 N 
HETATM   24  C   UNL     1      41.009 -12.902   5.369  1.00  0.00     0.179 C 
HETATM   25  N   UNL     1      40.297 -15.153   5.864  1.00  0.00    -0.185 NA
HETATM   26  C   UNL     1      40.887 -16.265   6.291  1.00  0.00     0.149 A 
ENDBRANCH  20  21
ENDBRANCH  17  20
ENDBRANCH   9  17
BRANCH   1  27
HETATM   27  C   UNL     1      40.180 -14.945   1.275  1.00  0.00     0.180 C 
HETATM   28  C   UNL     1      38.726 -15.009   1.747  1.00  0.00     0.039 C 
HETATM   29  C   UNL     1      40.295 -13.927   0.139  1.00  0.00     0.039 C 
ENDBRANCH   1  27
TORSDOF 4
ENDMDL
MODEL 2
REMARK VINA RESULT:      -8.0      2.213      5.454
REMARK  4 active torsions:
REMARK  status: ('A' for Active; 'I' for Inactive)
REMARK    1  A    between atoms: C_2  and  N_3 
REMARK    2  A    between atoms: C_11  and  N_12 
REMARK    3  A    between atoms: N_12  and  C_15 
REMARK    4  A    between atoms: C_15  and  C_16 
ROOT
HETATM    1  N   UNL     1      40.548 -13.490   1.048  1.00  0.00    -0.067 N 
HETATM    2  H   UNL     1      40.454 -12.462   1.023  1.00  0.00     0.280 HD
HETATM    3  C   UNL     1      39.649 -13.935   2.188  1.00  0.00     0.238 C 
HETATM    4  C   UNL     1      39.847 -15.421   2.473  1.00  0.00     0.066 C 
HETATM    5  C   UNL     1      41.317 -15.783   2.803  1.00  0.00     0.073 C 
HETATM    6  O   UNL     1      41.634 -15.073   4.005  1.00  0.00    -0.339 OA
HETATM    7  C   UNL     1      42.569 -15.584   4.855  1.00  0.00     0.078 A 
HETATM    8  C   UNL     1      43.094 -16.878   4.777  1.00  0.00     0.006 A 
HETATM    9  C   UNL     1      42.686 -17.812   3.679  1.00  0.00     0.224 C 
HETATM   10  C   UNL     1      41.401 -17.313   3.004  1.00  0.00     0.076 C 
HETATM   11  C   UNL     1      42.953 -14.723   5.886  1.00  0.00     0.037 A 
HETATM   12  C   UNL     1      43.864 -15.142   6.852  1.00  0.00     0.003 A 
HETATM   13  C   UNL     1      44.378 -16.432   6.802  1.00  0.00     0.001 A 
HETATM   14  C   UNL     1      43.989 -17.298   5.779  1.00  0.00     0.012 A 
HETATM   15  C   UNL     1      42.228 -15.235   1.685  1.00  0.00     0.066 C 
HETATM   16  C   UNL     1      41.988 -13.744   1.430  1.00  0.00     0.238 C 
ENDROOT
BRANCH   9  17
HETATM   17  N   UNL     1      43.750 -18.014   2.639  1.00  0.00    -0.063 N 
HETATM   18  H   UNL     1      43.806 -17.195   2.021  1.00  0.00     0.278 HD
HETATM   19  H   UNL     1      44.668 -18.125   3.078  1.00  0.00     0.278 HD
BRANCH  17  20
HETATM   20  C   UNL     1      43.595 -19.184   1.712  1.00  0.00     0.274 C 
BRANCH  20  21
HETATM   21  C   UNL     1      44.047 -20.399   2.425  1.00  0.00     0.004 A 
HETATM   22  C   UNL     1      44.485 -20.521   3.731  1.00  0.00     0.122 A 
HETATM   23  N   UNL     1      44.761 -21.848   3.922  1.00  0.00    -0.285 N 
HETATM   24  C   UNL     1      45.293 -22.478   5.110  1.00  0.00     0.179 C 
HETATM   25  N   UNL     1      44.449 -22.599   2.852  1.00  0.00    -0.185 NA
HETATM   26  C   UNL     1      44.093 -21.719   1.922  1.00  0.00     0.149 A 
ENDBRANCH  20  21
ENDBRANCH  17  20
ENDBRANCH   9  17
BRANCH   1  27
HETATM   27  C   UNL     1      40.117 -13.945  -0.359  1.00  0.00     0.180 C 
HETATM   28  C   UNL     1      40.915 -13.200  -1.431  1.00  0.00     0.039 C 
HETATM   29  C   UNL     1      38.626 -13.671  -0.563  1.00  0.00     0.039 C 
ENDBRANCH   1  27
TORSDOF 4
ENDMDL
MODEL 3
REMARK VINA RESULT:      -7.5      2.204      5.287
REMARK  4 active torsions:
REMARK  status: ('A' for Active; 'I' for Inactive)
REMARK    1  A    between atoms: C_2  and  N_3 
REMARK    2  A    between atoms: C_11  and  N_12 
REMARK    3  A    between atoms: N_12  and  C_15 
REMARK    4  A    between atoms: C_15  and  C_16 
ROOT
HETATM    1  N   UNL     1      41.553 -13.848   5.936  1.00  0.00    -0.067 N 
HETATM    2  H   UNL     1      41.984 -13.630   6.848  1.00  0.00     0.280 HD
HETATM    3  C   UNL     1      40.731 -15.101   6.184  1.00  0.00     0.238 C 
HETATM    4  C   UNL     1      40.197 -15.656   4.866  1.00  0.00     0.066 C 
HETATM    5  C   UNL     1      41.319 -15.969   3.844  1.00  0.00     0.073 C 
HETATM    6  O   UNL     1      42.121 -16.991   4.444  1.00  0.00    -0.339 OA
HETATM    7  C   UNL     1      42.788 -17.872   3.644  1.00  0.00     0.078 A 
HETATM    8  C   UNL     1      42.577 -18.017   2.269  1.00  0.00     0.006 A 
HETATM    9  C   UNL     1      41.599 -17.145   1.541  1.00  0.00     0.224 C 
HETATM   10  C   UNL     1      40.654 -16.457   2.537  1.00  0.00     0.076 C 
HETATM   11  C   UNL     1      43.698 -18.694   4.313  1.00  0.00     0.037 A 
HETATM   12  C   UNL     1      44.407 -19.671   3.620  1.00  0.00     0.003 A 
HETATM   13  C   UNL     1      44.192 -19.844   2.258  1.00  0.00     0.001 A 
HETATM   14  C   UNL     1      43.277 -19.030   1.588  1.00  0.00     0.012 A 
HETATM   15  C   UNL     1      42.205 -14.718   3.679  1.00  0.00     0.066 C 
HETATM   16  C   UNL     1      42.710 -14.193   5.027  1.00  0.00     0.238 C 
ENDROOT
BRANCH   9  17
HETATM   17  N   UNL     1      42.253 -16.106   0.676  1.00  0.00    -0.063 N 
HETATM   18  H   UNL     1      42.666 -15.365   1.257  1.00  0.00     0.278 HD
HETATM   19  H   UNL     1      43.012 -16.519   0.127  1.00  0.00     0.278 HD
BRANCH  17  20
HETATM   20  C   UNL     1      41.382 -15.381  -0.309  1.00  0.00     0.274 C 
BRANCH  20  21
HETATM   21  C   UNL     1      41.845 -13.978  -0.386  1.00  0.00     0.004 A 
HETATM   22  C   UNL     1      42.151 -13.231  -1.509  1.00  0.00     0.122 A 
HETATM   23  N   UNL     1      42.501 -11.987  -1.059  1.00  0.00    -0.285 N 
HETATM   24  C   UNL     1      42.950 -10.858  -1.843  1.00  0.00     0.179 C 
HETATM   25  N   UNL     1      42.358 -11.859   0.271  1.00  0.00    -0.185 NA
HETATM   26  C   UNL     1      42.038 -13.080   0.688  1.00  0.00     0.149 A 
ENDBRANCH  20  21
ENDBRANCH  17  20
ENDBRANCH   9  17
BRANCH   1  27
HETATM   27  C   UNL     1      40.751 -12.582   5.582  1.00  0.00     0.180 C 
HETATM   28  C   UNL     1      41.638 -11.340   5.684  1.00  0.00     0.039 C 
HETATM   29  C   UNL     1      39.565 -12.431   6.536  1.00  0.00     0.039 C 
ENDBRANCH   1  27
TORSDOF 4
ENDMDL
MODEL 4
REMARK VINA RESULT:      -7.4      2.081      3.231
REMARK  4 active torsions:
REMARK  status: ('A' for Active; 'I' for Inactive)
REMARK    1  A    between atoms: C_2  and  N_3 
REMARK    2  A    between atoms: C_11  and  N_12 
REMARK    3  A    between atoms: N_12  and  C_15 
REMARK    4  A    between atoms: C_15  and  C_16 
ROOT
HETATM    1  N   UNL     1      39.841 -15.442   0.725  1.00  0.00    -0.067 N 
HETATM    2  H   UNL     1      39.302 -16.105   0.147  1.00  0.00     0.280 HD
HETATM    3  C   UNL     1      41.283 -15.627   0.286  1.00  0.00     0.238 C 
HETATM    4  C   UNL     1      42.223 -14.850   1.204  1.00  0.00     0.066 C 
HETATM    5  C   UNL     1      42.081 -15.252   2.694  1.00  0.00     0.073 C 
HETATM    6  O   UNL     1      42.459 -16.631   2.765  1.00  0.00    -0.339 OA
HETATM    7  C   UNL     1      42.995 -17.117   3.921  1.00  0.00     0.078 A 
HETATM    8  C   UNL     1      43.432 -16.328   4.990  1.00  0.00     0.006 A 
HETATM    9  C   UNL     1      43.289 -14.837   4.959  1.00  0.00     0.224 C 
HETATM   10  C   UNL     1      43.028 -14.356   3.525  1.00  0.00     0.076 C 
HETATM   11  C   UNL     1      43.138 -18.506   3.958  1.00  0.00     0.037 A 
HETATM   12  C   UNL     1      43.719 -19.126   5.062  1.00  0.00     0.003 A 
HETATM   13  C   UNL     1      44.179 -18.355   6.122  1.00  0.00     0.001 A 
HETATM   14  C   UNL     1      44.047 -16.966   6.084  1.00  0.00     0.012 A 
HETATM   15  C   UNL     1      40.595 -15.155   3.096  1.00  0.00     0.066 C 
HETATM   16  C   UNL     1      39.692 -15.943   2.143  1.00  0.00     0.238 C 
ENDROOT
BRANCH   9  17
HETATM   17  N   UNL     1      42.206 -14.321   5.863  1.00  0.00    -0.063 N 
HETATM   18  H   UNL     1      41.281 -14.559   5.485  1.00  0.00     0.278 HD
HETATM   19  H   UNL     1      42.275 -14.751   6.790  1.00  0.00     0.278 HD
BRANCH  17  20
HETATM   20  C   UNL     1      42.155 -12.840   6.102  1.00  0.00     0.274 C 
BRANCH  20  21
HETATM   21  C   UNL     1      40.827 -12.351   5.672  1.00  0.00     0.004 A 
HETATM   22  C   UNL     1      40.474 -11.742   4.482  1.00  0.00     0.122 A 
HETATM   23  N   UNL     1      39.128 -11.505   4.555  1.00  0.00    -0.285 N 
HETATM   24  C   UNL     1      38.293 -10.843   3.578  1.00  0.00     0.179 C 
HETATM   25  N   UNL     1      38.578 -11.997   5.677  1.00  0.00    -0.185 NA
HETATM   26  C   UNL     1      39.611 -12.437   6.388  1.00  0.00     0.149 A 
ENDBRANCH  20  21
ENDBRANCH  17  20
ENDBRANCH   9  17
BRANCH   1  27
HETATM   27  C   UNL     1      39.218 -14.069   0.409  1.00  0.00     0.180 C 
HETATM   28  C   UNL     1      37.761 -14.022   0.872  1.00  0.00     0.039 C 
HETATM   29  C   UNL     1      39.275 -13.803  -1.096  1.00  0.00     0.039 C 
ENDBRANCH   1  27
TORSDOF 4
ENDMDL
MODEL 5
REMARK VINA RESULT:      -7.1      2.274      5.604
REMARK  4 active torsions:
REMARK  status: ('A' for Active; 'I' for Inactive)
REMARK    1  A    between atoms: C_2  and  N_3 
REMARK    2  A    between atoms: C_11  and  N_12 
REMARK    3  A    between atoms: N_12  and  C_15 
REMARK    4  A    between atoms: C_15  and  C_16 
ROOT
HETATM    1  N   UNL     1      40.028 -13.600  -1.087  1.00  0.00    -0.067 N 
HETATM    2  H   UNL     1      40.117 -12.652  -1.486  1.00  0.00     0.280 HD
HETATM    3  C   UNL     1      39.128 -13.429   0.124  1.00  0.00     0.238 C 
HETATM    4  C   UNL     1      39.073 -14.721   0.934  1.00  0.00     0.066 C 
HETATM    5  C   UNL     1      40.472 -15.206   1.394  1.00  0.00     0.073 C 
HETATM    6  O   UNL     1      40.976 -14.182   2.259  1.00  0.00    -0.339 OA
HETATM    7  C   UNL     1      41.850 -14.517   3.250  1.00  0.00     0.078 A 
HETATM    8  C   UNL     1      42.132 -15.825   3.656  1.00  0.00     0.006 A 
HETATM    9  C   UNL     1      41.504 -16.999   2.969  1.00  0.00     0.224 C 
HETATM   10  C   UNL     1      40.293 -16.548   2.140  1.00  0.00     0.076 C 
HETATM   11  C   UNL     1      42.437 -13.429   3.901  1.00  0.00     0.037 A 
HETATM   12  C   UNL     1      43.311 -13.633   4.966  1.00  0.00     0.003 A 
HETATM   13  C   UNL     1      43.583 -14.925   5.397  1.00  0.00     0.001 A 
HETATM   14  C   UNL     1      42.991 -16.014   4.755  1.00  0.00     0.012 A 
HETATM   15  C   UNL     1      41.402 -15.278   0.166  1.00  0.00     0.066 C 
HETATM   16  C   UNL     1      41.418 -13.962  -0.617  1.00  0.00     0.238 C 
ENDROOT
BRANCH   9  17
HETATM   17  N   UNL     1      42.457 -17.756   2.088  1.00  0.00    -0.063 N 
HETATM   18  H   UNL     1      42.174 -18.741   2.019  1.00  0.00     0.278 HD
HETATM   19  H   UNL     1      42.453 -17.372   1.139  1.00  0.00     0.278 HD
BRANCH  17  20
HETATM   20  C   UNL     1      43.897 -17.798   2.507  1.00  0.00     0.274 C 
BRANCH  20  21
HETATM   21  C   UNL     1      44.147 -19.099   3.166  1.00  0.00     0.004 A 
HETATM   22  C   UNL     1      44.254 -20.352   2.590  1.00  0.00     0.122 A 
HETATM   23  N   UNL     1      44.515 -21.224   3.613  1.00  0.00    -0.285 N 
HETATM   24  C   UNL     1      44.666 -22.660   3.532  1.00  0.00     0.179 C 
HETATM   25  N   UNL     1      44.667 -20.604   4.794  1.00  0.00    -0.185 NA
HETATM   26  C   UNL     1      44.368 -19.333   4.542  1.00  0.00     0.149 A 
ENDBRANCH  20  21
ENDBRANCH  17  20
ENDBRANCH   9  17
BRANCH   1  27
HETATM   27  C   UNL     1      39.446 -14.443  -2.237  1.00  0.00     0.180 C 
HETATM   28  C   UNL     1      40.362 -14.385  -3.460  1.00  0.00     0.039 C 
HETATM   29  C   UNL     1      38.062 -13.919  -2.621  1.00  0.00     0.039 C 
ENDBRANCH   1  27
TORSDOF 4
ENDMDL
MODEL 6
REMARK VINA RESULT:      -7.1      2.672      4.294
REMARK  4 active torsions:
REMARK  status: ('A' for Active; 'I' for Inactive)
REMARK    1  A    between atoms: C_2  and  N_3 
REMARK    2  A    between atoms: C_11  and  N_12 
REMARK    3  A    between atoms: N_12  and  C_15 
REMARK    4  A    between atoms: C_15  and  C_16 
ROOT
HETATM    1  N   UNL     1      39.838 -15.179   0.877  1.00  0.00    -0.067 N 
HETATM    2  H   UNL     1      39.452 -15.964   0.329  1.00  0.00     0.280 HD
HETATM    3  C   UNL     1      41.308 -15.127   0.501  1.00  0.00     0.238 C 
HETATM    4  C   UNL     1      42.052 -14.138   1.393  1.00  0.00     0.066 C 
HETATM    5  C   UNL     1      41.917 -14.465   2.902  1.00  0.00     0.073 C 
HETATM    6  O   UNL     1      42.531 -15.745   3.081  1.00  0.00    -0.339 OA
HETATM    7  C   UNL     1      43.093 -16.053   4.285  1.00  0.00     0.078 A 
HETATM    8  C   UNL     1      43.333 -15.134   5.311  1.00  0.00     0.006 A 
HETATM    9  C   UNL     1      42.928 -13.698   5.172  1.00  0.00     0.224 C 
HETATM   10  C   UNL     1      42.650 -13.362   3.699  1.00  0.00     0.076 C 
HETATM   11  C   UNL     1      43.479 -17.389   4.423  1.00  0.00     0.037 A 
HETATM   12  C   UNL     1      44.111 -17.823   5.586  1.00  0.00     0.003 A 
HETATM   13  C   UNL     1      44.378 -16.917   6.605  1.00  0.00     0.001 A 
HETATM   14  C   UNL     1      44.002 -15.580   6.466  1.00  0.00     0.012 A 
HETATM   15  C   UNL     1      40.421 -14.613   3.247  1.00  0.00     0.066 C 
HETATM   16  C   UNL     1      39.717 -15.609   2.321  1.00  0.00     0.238 C 
ENDROOT
BRANCH   9  17
HETATM   17  N   UNL     1      41.731 -13.331   6.001  1.00  0.00    -0.063 N 
HETATM   18  H   UNL     1      40.963 -13.993   5.834  1.00  0.00     0.278 HD
HETATM   19  H   UNL     1      41.957 -13.374   6.999  1.00  0.00     0.278 HD
BRANCH  17  20
HETATM   20  C   UNL     1      41.126 -11.976   5.776  1.00  0.00     0.274 C 
BRANCH  20  21
HETATM   21  C   UNL     1      40.983 -11.312   7.091  1.00  0.00     0.004 A 
HETATM   22  C   UNL     1      41.969 -10.769   7.896  1.00  0.00     0.122 A 
HETATM   23  N   UNL     1      41.329 -10.249   8.989  1.00  0.00    -0.285 N 
HETATM   24  C   UNL     1      41.927  -9.615  10.142  1.00  0.00     0.179 C 
HETATM   25  N   UNL     1      39.993 -10.347   8.900  1.00  0.00    -0.185 NA
HETATM   26  C   UNL     1      39.785 -11.056   7.795  1.00  0.00     0.149 A 
ENDBRANCH  20  21
ENDBRANCH  17  20
ENDBRANCH   9  17
BRANCH   1  27
HETATM   27  C   UNL     1      38.996 -13.964   0.446  1.00  0.00     0.180 C 
HETATM   28  C   UNL     1      37.526 -14.172   0.819  1.00  0.00     0.039 C 
HETATM   29  C   UNL     1      39.106 -13.761  -1.066  1.00  0.00     0.039 C 
ENDBRANCH   1  27
TORSDOF 4
ENDMDL
MODEL 7
REMARK VINA RESULT:      -7.0      2.452      5.767
REMARK  4 active torsions:
REMARK  status: ('A' for Active; 'I' for Inactive)
REMARK    1  A    between atoms: C_2  and  N_3 
REMARK    2  A    between atoms: C_11  and  N_12 
REMARK    3  A    between atoms: N_12  and  C_15 
REMARK    4  A    between atoms: C_15  and  C_16 
ROOT
HETATM    1  N   UNL     1      40.949 -12.223  -0.963  1.00  0.00    -0.067 N 
HETATM    2  H   UNL     1      40.729 -11.215  -1.004  1.00  0.00     0.280 HD
HETATM    3  C   UNL     1      39.617 -12.900  -0.690  1.00  0.00     0.238 C 
HETATM    4  C   UNL     1      39.824 -14.384  -0.400  1.00  0.00     0.066 C 
HETATM    5  C   UNL     1      40.786 -14.640   0.787  1.00  0.00     0.073 C 
HETATM    6  O   UNL     1      40.152 -14.066   1.935  1.00  0.00    -0.339 OA
HETATM    7  C   UNL     1      40.404 -14.591   3.168  1.00  0.00     0.078 A 
HETATM    8  C   UNL     1      41.059 -15.805   3.399  1.00  0.00     0.006 A 
HETATM    9  C   UNL     1      41.594 -16.622   2.263  1.00  0.00     0.224 C 
HETATM   10  C   UNL     1      40.968 -16.167   0.937  1.00  0.00     0.076 C 
HETATM   11  C   UNL     1      39.904 -13.839   4.234  1.00  0.00     0.037 A 
HETATM   12  C   UNL     1      40.051 -14.290   5.544  1.00  0.00     0.003 A 
HETATM   13  C   UNL     1      40.677 -15.505   5.789  1.00  0.00     0.001 A 
HETATM   14  C   UNL     1      41.169 -16.263   4.725  1.00  0.00     0.012 A 
HETATM   15  C   UNL     1      42.096 -13.863   0.542  1.00  0.00     0.066 C 
HETATM   16  C   UNL     1      41.838 -12.383   0.249  1.00  0.00     0.238 C 
ENDROOT
BRANCH   9  17
HETATM   17  N   UNL     1      43.090 -16.580   2.149  1.00  0.00    -0.063 N 
HETATM   18  H   UNL     1      43.382 -15.780   1.574  1.00  0.00     0.278 HD
HETATM   19  H   UNL     1      43.519 -16.463   3.071  1.00  0.00     0.278 HD
BRANCH  17  20
HETATM   20  C   UNL     1      43.768 -17.766   1.528  1.00  0.00     0.274 C 
BRANCH  20  21
HETATM   21  C   UNL     1      44.021 -18.761   2.594  1.00  0.00     0.004 A 
HETATM   22  C   UNL     1      43.961 -18.592   3.965  1.00  0.00     0.122 A 
HETATM   23  N   UNL     1      44.248 -19.811   4.516  1.00  0.00    -0.285 N 
HETATM   24  C   UNL     1      44.357 -20.143   5.919  1.00  0.00     0.179 C 
HETATM   25  N   UNL     1      44.406 -20.772   3.591  1.00  0.00    -0.185 NA
HETATM   26  C   UNL     1      44.348 -20.126   2.430  1.00  0.00     0.149 A 
ENDBRANCH  20  21
ENDBRANCH  17  20
ENDBRANCH   9  17
BRANCH   1  27
HETATM   27  C   UNL     1      41.585 -12.529  -2.331  1.00  0.00     0.180 C 
HETATM   28  C   UNL     1      42.729 -11.555  -2.620  1.00  0.00     0.039 C 
HETATM   29  C   UNL     1      40.534 -12.409  -3.435  1.00  0.00     0.039 C 
ENDBRANCH   1  27
TORSDOF 4
ENDMDL
MODEL 8
REMARK VINA RESULT:      -7.0      3.497      4.831
REMARK  4 active torsions:
REMARK  status: ('A' for Active; 'I' for Inactive)
REMARK    1  A    between atoms: C_2  and  N_3 
REMARK    2  A    between atoms: C_11  and  N_12 
REMARK    3  A    between atoms: N_12  and  C_15 
REMARK    4  A    between atoms: C_15  and  C_16 
ROOT
HETATM    1  N   UNL     1      39.799 -13.393   3.483  1.00  0.00    -0.067 N 
HETATM    2  H   UNL     1      38.896 -13.741   3.123  1.00  0.00     0.280 HD
HETATM    3  C   UNL     1      40.842 -13.986   2.552  1.00  0.00     0.238 C 
HETATM    4  C   UNL     1      42.246 -13.720   3.088  1.00  0.00     0.066 C 
HETATM    5  C   UNL     1      42.461 -14.269   4.521  1.00  0.00     0.073 C 
HETATM    6  O   UNL     1      42.304 -15.688   4.424  1.00  0.00    -0.339 OA
HETATM    7  C   UNL     1      42.969 -16.494   5.300  1.00  0.00     0.078 A 
HETATM    8  C   UNL     1      43.989 -16.070   6.157  1.00  0.00     0.006 A 
HETATM    9  C   UNL     1      44.404 -14.631   6.210  1.00  0.00     0.224 C 
HETATM   10  C   UNL     1      43.886 -13.880   4.975  1.00  0.00     0.076 C 
HETATM   11  C   UNL     1      42.593 -17.839   5.255  1.00  0.00     0.037 A 
HETATM   12  C   UNL     1      43.230 -18.776   6.064  1.00  0.00     0.003 A 
HETATM   13  C   UNL     1      44.261 -18.375   6.904  1.00  0.00     0.001 A 
HETATM   14  C   UNL     1      44.646 -17.034   6.944  1.00  0.00     0.012 A 
HETATM   15  C   UNL     1      41.335 -13.737   5.431  1.00  0.00     0.066 C 
HETATM   16  C   UNL     1      39.947 -14.021   4.849  1.00  0.00     0.238 C 
ENDROOT
BRANCH   9  17
HETATM   17  N   UNL     1      43.948 -13.922   7.452  1.00  0.00    -0.063 N 
HETATM   18  H   UNL     1      43.183 -13.272   7.233  1.00  0.00     0.278 HD
HETATM   19  H   UNL     1      43.589 -14.592   8.139  1.00  0.00     0.278 HD
BRANCH  17  20
HETATM   20  C   UNL     1      44.961 -13.089   8.183  1.00  0.00     0.274 C 
BRANCH  20  21
HETATM   21  C   UNL     1      44.248 -12.282   9.198  1.00  0.00     0.004 A 
HETATM   22  C   UNL     1      44.295 -12.389  10.576  1.00  0.00     0.122 A 
HETATM   23  N   UNL     1      43.484 -11.402  11.066  1.00  0.00    -0.285 N 
HETATM   24  C   UNL     1      43.164 -11.128  12.449  1.00  0.00     0.179 C 
HETATM   25  N   UNL     1      42.987 -10.614  10.098  1.00  0.00    -0.185 NA
HETATM   26  C   UNL     1      43.382 -11.189   8.967  1.00  0.00     0.149 A 
ENDBRANCH  20  21
ENDBRANCH  17  20
ENDBRANCH   9  17
BRANCH   1  27
HETATM   27  C   UNL     1      39.660 -11.860   3.439  1.00  0.00     0.180 C 
HETATM   28  C   UNL     1      38.585 -11.391   4.422  1.00  0.00     0.039 C 
HETATM   29  C   UNL     1      39.280 -11.410   2.028  1.00  0.00     0.039 C 
ENDBRANCH   1  27
TORSDOF 4
ENDMDL
MODEL 9
REMARK VINA RESULT:      -6.8      2.568      7.213
REMARK  4 active torsions:
REMARK  status: ('A' for Active; 'I' for Inactive)
REMARK    1  A    between atoms: C_2  and  N_3 
REMARK    2  A    between atoms: C_11  and  N_12 
REMARK    3  A    between atoms: N_12  and  C_15 
REMARK    4  A    between atoms: C_15  and  C_16 
ROOT
HETATM    1  N   UNL     1      42.819 -18.446   4.266  1.00  0.00    -0.067 N 
HETATM    2  H   UNL     1      42.368 -19.261   4.710  1.00  0.00     0.280 HD
HETATM    3  C   UNL     1      43.386 -17.637   5.420  1.00  0.00     0.238 C 
HETATM    4  C   UNL     1      43.908 -16.292   4.923  1.00  0.00     0.066 C 
HETATM    5  C   UNL     1      42.828 -15.458   4.190  1.00  0.00     0.073 C 
HETATM    6  O   UNL     1      41.814 -15.188   5.164  1.00  0.00    -0.339 OA
HETATM    7  C   UNL     1      41.063 -14.056   5.049  1.00  0.00     0.078 A 
HETATM    8  C   UNL     1      41.346 -12.997   4.181  1.00  0.00     0.006 A 
HETATM    9  C   UNL     1      42.513 -13.056   3.244  1.00  0.00     0.224 C 
HETATM   10  C   UNL     1      43.490 -14.159   3.678  1.00  0.00     0.076 C 
HETATM   11  C   UNL     1      39.975 -13.987   5.922  1.00  0.00     0.037 A 
HETATM   12  C   UNL     1      39.156 -12.861   5.941  1.00  0.00     0.003 A 
HETATM   13  C   UNL     1      39.437 -11.790   5.102  1.00  0.00     0.001 A 
HETATM   14  C   UNL     1      40.529 -11.851   4.235  1.00  0.00     0.012 A 
HETATM   15  C   UNL     1      42.192 -16.327   3.086  1.00  0.00     0.066 C 
HETATM   16  C   UNL     1      41.690 -17.668   3.630  1.00  0.00     0.238 C 
ENDROOT
BRANCH   9  17
HETATM   17  N   UNL     1      42.120 -13.275   1.811  1.00  0.00    -0.063 N 
HETATM   18  H   UNL     1      42.773 -13.923   1.355  1.00  0.00     0.278 HD
HETATM   19  H   UNL     1      41.187 -13.694   1.753  1.00  0.00     0.278 HD
BRANCH  17  20
HETATM   20  C   UNL     1      42.085 -12.072   0.914  1.00  0.00     0.274 C 
BRANCH  20  21
HETATM   21  C   UNL     1      42.096 -12.542  -0.488  1.00  0.00     0.004 A 
HETATM   22  C   UNL     1      41.407 -13.602  -1.049  1.00  0.00     0.122 A 
HETATM   23  N   UNL     1      41.730 -13.609  -2.380  1.00  0.00    -0.285 N 
HETATM   24  C   UNL     1      41.302 -14.554  -3.387  1.00  0.00     0.179 C 
HETATM   25  N   UNL     1      42.513 -12.574  -2.727  1.00  0.00    -0.185 NA
HETATM   26  C   UNL     1      42.799 -11.975  -1.575  1.00  0.00     0.149 A 
ENDBRANCH  20  21
ENDBRANCH  17  20
ENDBRANCH   9  17
BRANCH   1  27
HETATM   27  C   UNL     1      43.857 -19.061   3.309  1.00  0.00     0.180 C 
HETATM   28  C   UNL     1      43.163 -19.700   2.105  1.00  0.00     0.039 C 
HETATM   29  C   UNL     1      44.676 -20.126   4.041  1.00  0.00     0.039 C 
ENDBRANCH   1  27
TORSDOF 4
ENDMDL
MODEL 10
REMARK VINA RESULT:      -6.7      2.899      6.533
REMARK  4 active torsions:
REMARK  status: ('A' for Active; 'I' for Inactive)
REMARK    1  A    between atoms: C_2  and  N_3 
REMARK    2  A    between atoms: C_11  and  N_12 
REMARK    3  A    between atoms: N_12  and  C_15 
REMARK    4  A    between atoms: C_15  and  C_16 
ROOT
HETATM    1  N   UNL     1      43.226 -17.858   5.177  1.00  0.00    -0.067 N 
HETATM    2  H   UNL     1      43.657 -18.626   4.638  1.00  0.00     0.280 HD
HETATM    3  C   UNL     1      41.748 -18.202   5.232  1.00  0.00     0.238 C 
HETATM    4  C   UNL     1      40.953 -17.044   5.828  1.00  0.00     0.066 C 
HETATM    5  C   UNL     1      41.145 -15.717   5.052  1.00  0.00     0.073 C 
HETATM    6  O   UNL     1      40.631 -15.955   3.737  1.00  0.00    -0.339 OA
HETATM    7  C   UNL     1      40.120 -14.913   3.022  1.00  0.00     0.078 A 
HETATM    8  C   UNL     1      39.835 -13.649   3.548  1.00  0.00     0.006 A 
HETATM    9  C   UNL     1      40.130 -13.324   4.981  1.00  0.00     0.224 C 
HETATM   10  C   UNL     1      40.350 -14.613   5.785  1.00  0.00     0.076 C 
HETATM   11  C   UNL     1      39.836 -15.206   1.686  1.00  0.00     0.037 A 
HETATM   12  C   UNL     1      39.263 -14.243   0.859  1.00  0.00     0.003 A 
HETATM   13  C   UNL     1      38.952 -12.990   1.372  1.00  0.00     0.001 A 
HETATM   14  C   UNL     1      39.226 -12.697   2.709  1.00  0.00     0.012 A 
HETATM   15  C   UNL     1      42.655 -15.433   4.917  1.00  0.00     0.066 C 
HETATM   16  C   UNL     1      43.410 -16.625   4.322  1.00  0.00     0.238 C 
ENDROOT
BRANCH   9  17
HETATM   17  N   UNL     1      41.314 -12.417   5.157  1.00  0.00    -0.063 N 
HETATM   18  H   UNL     1      41.939 -12.783   5.886  1.00  0.00     0.278 HD
HETATM   19  H   UNL     1      41.858 -12.363   4.291  1.00  0.00     0.278 HD
BRANCH  17  20
HETATM   20  C   UNL     1      41.042 -10.997   5.560  1.00  0.00     0.274 C 
BRANCH  20  21
HETATM   21  C   UNL     1      41.008 -10.937   7.038  1.00  0.00     0.004 A 
HETATM   22  C   UNL     1      42.054 -10.721   7.917  1.00  0.00     0.122 A 
HETATM   23  N   UNL     1      41.508 -10.727   9.172  1.00  0.00    -0.285 N 
HETATM   24  C   UNL     1      42.197 -10.590  10.436  1.00  0.00     0.179 C 
HETATM   25  N   UNL     1      40.170 -10.849   9.153  1.00  0.00    -0.185 NA
HETATM   26  C   UNL     1      39.875 -11.054   7.873  1.00  0.00     0.149 A 
ENDBRANCH  20  21
ENDBRANCH  17  20
ENDBRANCH   9  17
BRANCH   1  27
HETATM   27  C   UNL     1      43.968 -17.878   6.526  1.00  0.00     0.180 C 
HETATM   28  C   UNL     1      45.481 -17.857   6.307  1.00  0.00     0.039 C 
HETATM   29  C   UNL     1      43.592 -19.137   7.309  1.00  0.00     0.039 C 
ENDBRANCH   1  27
TORSDOF 4
ENDMDL
