MODEL 1
REMARK VINA RESULT:      -9.3      0.000      0.000
REMARK  6 active torsions:
REMARK  status: ('A' for Active; 'I' for Inactive)
REMARK    1  A    between atoms: C_6  and  C_8 
REMARK    2  A    between atoms: C_6  and  O_7 
REMARK    3  A    between atoms: C_8  and  N_9 
REMARK       I    between atoms: N_9  and  C_10 
REMARK    4  A    between atoms: C_10  and  C_11 
REMARK       I    between atoms: C_11  and  N_12 
REMARK    5  A    between atoms: N_12  and  C_13 
REMARK       I    between atoms: N_17  and  C_18 
REMARK    6  A    between atoms: C_18  and  C_19 
ROOT
HETATM    1  C   UNL     1      39.423 -10.785   6.158  1.00  0.00     0.313 C 
HETATM    2  N   UNL     1      40.311 -11.343   5.263  1.00  0.00    -0.319 N 
HETATM    3  O   UNL     1      38.696  -9.840   5.874  1.00  0.00    -0.262 OA
HETATM    4  H   UNL     1      40.587 -10.713   4.520  1.00  0.00     0.169 HD
ENDROOT
BRANCH   1   5
HETATM    5  C   UNL     1      39.460 -11.296   7.608  1.00  0.00     0.309 C 
HETATM    6  N   UNL     1      40.141 -10.489   8.494  1.00  0.00    -0.350 N 
HETATM    7  H   UNL     1      40.481  -9.584   8.187  1.00  0.00     0.163 HD
HETATM    8  O   UNL     1      38.895 -12.341   7.901  1.00  0.00    -0.262 OA
BRANCH   6   9
HETATM    9  C   UNL     1      40.133 -10.791   9.912  1.00  0.00     0.161 C 
BRANCH   9  10
HETATM   10  C   UNL     1      40.862  -9.729  10.765  1.00  0.00     0.078 C 
HETATM   11  C   UNL     1      42.280  -9.425  10.245  1.00  0.00     0.078 C 
HETATM   12  C   UNL     1      43.278 -10.514  10.545  1.00  0.00    -0.049 A 
HETATM   13  C   UNL     1      43.071 -11.429  11.594  1.00  0.00    -0.052 A 
HETATM   14  C   UNL     1      44.454 -10.585   9.785  1.00  0.00     0.007 A 
HETATM   15  C   UNL     1      44.031 -12.424  11.832  1.00  0.00     0.007 A 
HETATM   16  C   UNL     1      41.809 -11.422  12.421  1.00  0.00     0.042 C 
HETATM   17  C   UNL     1      45.191 -12.494  11.059  1.00  0.00     0.001 A 
HETATM   18  C   UNL     1      45.404 -11.573  10.039  1.00  0.00     0.001 A 
HETATM   19  C   UNL     1      40.957 -10.166  12.236  1.00  0.00     0.044 C 
BRANCH  10  20
HETATM   20  O   UNL     1      40.076  -8.522  10.702  1.00  0.00    -0.388 OA
HETATM   21  H   UNL     1      39.382  -8.583  11.383  1.00  0.00     0.210 HD
ENDBRANCH  10  20
ENDBRANCH   9  10
ENDBRANCH   6   9
ENDBRANCH   1   5
BRANCH   2  22
HETATM   22  C   UNL     1      40.963 -12.581   5.361  1.00  0.00     0.035 A 
HETATM   23  C   UNL     1      42.229 -12.711   5.928  1.00  0.00     0.039 A 
HETATM   24  C   UNL     1      42.845 -13.971   6.049  1.00  0.00    -0.029 A 
HETATM   25  C   UNL     1      42.213 -15.129   5.550  1.00  0.00     0.043 A 
HETATM   26  C   UNL     1      44.202 -14.015   6.701  1.00  0.00     0.042 C 
HETATM   27  N   UNL     1      42.904 -16.395   5.574  1.00  0.00    -0.313 N 
HETATM   28  C   UNL     1      40.928 -14.976   5.005  1.00  0.00     0.032 A 
HETATM   29  C   UNL     1      42.307 -17.612   5.165  1.00  0.00     0.265 C 
HETATM   30  C   UNL     1      44.288 -16.393   6.072  1.00  0.00     0.133 C 
HETATM   31  O   UNL     1      41.092 -17.806   5.193  1.00  0.00    -0.267 OA
HETATM   32  C   UNL     1      44.504 -15.410   7.206  1.00  0.00     0.025 C 
HETATM   33  C   UNL     1      40.296 -13.725   4.943  1.00  0.00     0.032 A 
BRANCH  29  34
HETATM   34  C   UNL     1      43.215 -18.660   4.696  1.00  0.00     0.073 A 
HETATM   35  S   UNL     1      43.892 -19.753   5.829  1.00  0.00    -0.097 SA
HETATM   36  C   UNL     1      44.763 -20.580   4.613  1.00  0.00     0.050 A 
HETATM   37  C   UNL     1      44.523 -20.061   3.361  1.00  0.00     0.009 A 
HETATM   38  C   UNL     1      43.614 -18.963   3.406  1.00  0.00     0.025 A 
ENDBRANCH  29  34
ENDBRANCH   2  22
TORSDOF 6
ENDMDL
MODEL 2
REMARK VINA RESULT:      -9.3      4.947      8.406
REMARK  6 active torsions:
REMARK  status: ('A' for Active; 'I' for Inactive)
REMARK    1  A    between atoms: C_6  and  C_8 
REMARK    2  A    between atoms: C_6  and  O_7 
REMARK    3  A    between atoms: C_8  and  N_9 
REMARK       I    between atoms: N_9  and  C_10 
REMARK    4  A    between atoms: C_10  and  C_11 
REMARK       I    between atoms: C_11  and  N_12 
REMARK    5  A    between atoms: N_12  and  C_13 
REMARK       I    between atoms: N_17  and  C_18 
REMARK    6  A    between atoms: C_18  and  C_19 
ROOT
HETATM    1  C   UNL     1      41.630 -11.704   5.813  1.00  0.00     0.313 C 
HETATM    2  N   UNL     1      41.108 -11.039   4.724  1.00  0.00    -0.319 N 
HETATM    3  O   UNL     1      41.677 -11.211   6.934  1.00  0.00    -0.262 OA
HETATM    4  H   UNL     1      41.119 -10.031   4.821  1.00  0.00     0.169 HD
ENDROOT
BRANCH   1   5
HETATM    5  C   UNL     1      42.299 -13.065   5.561  1.00  0.00     0.309 C 
HETATM    6  N   UNL     1      41.649 -14.147   6.115  1.00  0.00    -0.350 N 
HETATM    7  H   UNL     1      40.743 -14.016   6.554  1.00  0.00     0.163 HD
HETATM    8  O   UNL     1      43.325 -13.128   4.896  1.00  0.00    -0.262 OA
BRANCH   6   9
HETATM    9  C   UNL     1      42.104 -15.495   5.837  1.00  0.00     0.161 C 
BRANCH   9  10
HETATM   10  C   UNL     1      41.012 -16.388   5.207  1.00  0.00     0.078 C 
HETATM   11  C   UNL     1      41.549 -17.770   4.788  1.00  0.00     0.078 C 
HETATM   12  C   UNL     1      42.397 -17.735   3.543  1.00  0.00    -0.049 A 
HETATM   13  C   UNL     1      42.288 -16.686   2.611  1.00  0.00    -0.052 A 
HETATM   14  C   UNL     1      43.283 -18.793   3.295  1.00  0.00     0.007 A 
HETATM   15  C   UNL     1      43.101 -16.701   1.467  1.00  0.00     0.007 A 
HETATM   16  C   UNL     1      41.377 -15.505   2.842  1.00  0.00     0.042 C 
HETATM   17  C   UNL     1      43.990 -17.751   1.238  1.00  0.00     0.001 A 
HETATM   18  C   UNL     1      44.079 -18.798   2.150  1.00  0.00     0.001 A 
HETATM   19  C   UNL     1      40.378 -15.710   3.981  1.00  0.00     0.044 C 
BRANCH  10  20
HETATM   20  O   UNL     1      39.986 -16.571   6.203  1.00  0.00    -0.388 OA
HETATM   21  H   UNL     1      40.406 -16.943   6.998  1.00  0.00     0.210 HD
ENDBRANCH  10  20
ENDBRANCH   9  10
ENDBRANCH   6   9
ENDBRANCH   1   5
BRANCH   2  22
HETATM   22  C   UNL     1      40.728 -11.583   3.489  1.00  0.00     0.035 A 
HETATM   23  C   UNL     1      41.618 -11.701   2.424  1.00  0.00     0.039 A 
HETATM   24  C   UNL     1      41.222 -12.286   1.205  1.00  0.00    -0.029 A 
HETATM   25  C   UNL     1      39.893 -12.722   1.019  1.00  0.00     0.043 A 
HETATM   26  C   UNL     1      42.262 -12.395   0.123  1.00  0.00     0.042 C 
HETATM   27  N   UNL     1      39.470 -13.212  -0.270  1.00  0.00    -0.313 N 
HETATM   28  C   UNL     1      39.022 -12.615   2.114  1.00  0.00     0.032 A 
HETATM   29  C   UNL     1      38.178 -13.738  -0.513  1.00  0.00     0.265 C 
HETATM   30  C   UNL     1      40.456 -13.166  -1.361  1.00  0.00     0.133 C 
HETATM   31  O   UNL     1      37.484 -14.245   0.368  1.00  0.00    -0.267 OA
HETATM   32  C   UNL     1      41.869 -13.451  -0.888  1.00  0.00     0.025 C 
HETATM   33  C   UNL     1      39.442 -12.085   3.344  1.00  0.00     0.032 A 
BRANCH  29  34
HETATM   34  C   UNL     1      37.688 -13.657  -1.890  1.00  0.00     0.073 A 
HETATM   35  S   UNL     1      37.172 -12.145  -2.510  1.00  0.00    -0.097 SA
HETATM   36  C   UNL     1      36.777 -12.826  -4.027  1.00  0.00     0.050 A 
HETATM   37  C   UNL     1      37.060 -14.172  -4.080  1.00  0.00     0.009 A 
HETATM   38  C   UNL     1      37.605 -14.649  -2.851  1.00  0.00     0.025 A 
ENDBRANCH  29  34
ENDBRANCH   2  22
TORSDOF 6
ENDMDL
MODEL 3
REMARK VINA RESULT:      -9.2      1.636      2.642
REMARK  6 active torsions:
REMARK  status: ('A' for Active; 'I' for Inactive)
REMARK    1  A    between atoms: C_6  and  C_8 
REMARK    2  A    between atoms: C_6  and  O_7 
REMARK    3  A    between atoms: C_8  and  N_9 
REMARK       I    between atoms: N_9  and  C_10 
REMARK    4  A    between atoms: C_10  and  C_11 
REMARK       I    between atoms: C_11  and  N_12 
REMARK    5  A    between atoms: N_12  and  C_13 
REMARK       I    between atoms: N_17  and  C_18 
REMARK    6  A    between atoms: C_18  and  C_19 
ROOT
HETATM    1  C   UNL     1      39.439 -10.509   7.249  1.00  0.00     0.313 C 
HETATM    2  N   UNL     1      40.164 -10.980   6.175  1.00  0.00    -0.319 N 
HETATM    3  O   UNL     1      38.682  -9.547   7.170  1.00  0.00    -0.262 OA
HETATM    4  H   UNL     1      40.318 -10.286   5.454  1.00  0.00     0.169 HD
ENDROOT
BRANCH   1   5
HETATM    5  C   UNL     1      39.710 -11.142   8.623  1.00  0.00     0.309 C 
HETATM    6  N   UNL     1      40.731 -10.560   9.343  1.00  0.00    -0.350 N 
HETATM    7  H   UNL     1      41.167  -9.712   8.998  1.00  0.00     0.163 HD
HETATM    8  O   UNL     1      39.029 -12.084   9.006  1.00  0.00    -0.262 OA
BRANCH   6   9
HETATM    9  C   UNL     1      40.995 -10.978  10.707  1.00  0.00     0.161 C 
BRANCH   9  10
HETATM   10  C   UNL     1      42.499 -10.995  11.058  1.00  0.00     0.078 C 
HETATM   11  C   UNL     1      42.754 -11.280  12.550  1.00  0.00     0.078 C 
HETATM   12  C   UNL     1      42.442 -10.111  13.448  1.00  0.00    -0.049 A 
HETATM   13  C   UNL     1      42.419  -8.793  12.955  1.00  0.00    -0.052 A 
HETATM   14  C   UNL     1      42.210 -10.345  14.812  1.00  0.00     0.007 A 
HETATM   15  C   UNL     1      42.123  -7.740  13.834  1.00  0.00     0.007 A 
HETATM   16  C   UNL     1      42.627  -8.485  11.493  1.00  0.00     0.042 C 
HETATM   17  C   UNL     1      41.879  -7.986  15.185  1.00  0.00     0.001 A 
HETATM   18  C   UNL     1      41.926  -9.288  15.674  1.00  0.00     0.001 A 
HETATM   19  C   UNL     1      43.171  -9.664  10.685  1.00  0.00     0.044 C 
BRANCH  10  20
HETATM   20  O   UNL     1      43.106 -12.042  10.275  1.00  0.00    -0.388 OA
HETATM   21  H   UNL     1      42.739 -11.992   9.375  1.00  0.00     0.210 HD
ENDBRANCH  10  20
ENDBRANCH   9  10
ENDBRANCH   6   9
ENDBRANCH   1   5
BRANCH   2  22
HETATM   22  C   UNL     1      40.814 -12.217   6.057  1.00  0.00     0.035 A 
HETATM   23  C   UNL     1      42.161 -12.381   6.372  1.00  0.00     0.039 A 
HETATM   24  C   UNL     1      42.781 -13.642   6.281  1.00  0.00    -0.029 A 
HETATM   25  C   UNL     1      42.061 -14.763   5.819  1.00  0.00     0.043 A 
HETATM   26  C   UNL     1      44.233 -13.726   6.670  1.00  0.00     0.042 C 
HETATM   27  N   UNL     1      42.737 -16.022   5.619  1.00  0.00    -0.313 N 
HETATM   28  C   UNL     1      40.700 -14.577   5.530  1.00  0.00     0.032 A 
HETATM   29  C   UNL     1      42.066 -17.208   5.233  1.00  0.00     0.265 C 
HETATM   30  C   UNL     1      44.188 -16.047   5.855  1.00  0.00     0.133 C 
HETATM   31  O   UNL     1      40.876 -17.413   5.467  1.00  0.00    -0.267 OA
HETATM   32  C   UNL     1      44.613 -15.153   7.003  1.00  0.00     0.025 C 
HETATM   33  C   UNL     1      40.075 -13.331   5.681  1.00  0.00     0.032 A 
BRANCH  29  34
HETATM   34  C   UNL     1      42.868 -18.210   4.527  1.00  0.00     0.073 A 
HETATM   35  S   UNL     1      43.733 -19.381   5.431  1.00  0.00    -0.097 SA
HETATM   36  C   UNL     1      44.362 -20.106   4.016  1.00  0.00     0.050 A 
HETATM   37  C   UNL     1      43.901 -19.494   2.873  1.00  0.00     0.009 A 
HETATM   38  C   UNL     1      43.022 -18.410   3.167  1.00  0.00     0.025 A 
ENDBRANCH  29  34
ENDBRANCH   2  22
TORSDOF 6
ENDMDL
MODEL 4
REMARK VINA RESULT:      -9.1      3.416      7.084
REMARK  6 active torsions:
REMARK  status: ('A' for Active; 'I' for Inactive)
REMARK    1  A    between atoms: C_6  and  C_8 
REMARK    2  A    between atoms: C_6  and  O_7 
REMARK    3  A    between atoms: C_8  and  N_9 
REMARK       I    between atoms: N_9  and  C_10 
REMARK    4  A    between atoms: C_10  and  C_11 
REMARK       I    between atoms: C_11  and  N_12 
REMARK    5  A    between atoms: N_12  and  C_13 
REMARK       I    between atoms: N_17  and  C_18 
REMARK    6  A    between atoms: C_18  and  C_19 
ROOT
HETATM    1  C   UNL     1      39.400 -10.649   4.652  1.00  0.00     0.313 C 
HETATM    2  N   UNL     1      39.532 -11.592   5.649  1.00  0.00    -0.319 N 
HETATM    3  O   UNL     1      38.911  -9.541   4.845  1.00  0.00    -0.262 OA
HETATM    4  H   UNL     1      38.885 -11.464   6.417  1.00  0.00     0.169 HD
ENDROOT
BRANCH   1   5
HETATM    5  C   UNL     1      39.761 -11.072   3.219  1.00  0.00     0.309 C 
HETATM    6  N   UNL     1      38.717 -11.591   2.483  1.00  0.00    -0.350 N 
HETATM    7  H   UNL     1      37.777 -11.572   2.865  1.00  0.00     0.163 HD
HETATM    8  O   UNL     1      40.905 -10.924   2.808  1.00  0.00    -0.262 OA
BRANCH   6   9
HETATM    9  C   UNL     1      38.897 -11.901   1.078  1.00  0.00     0.161 C 
BRANCH   9  10
HETATM   10  C   UNL     1      37.980 -13.043   0.584  1.00  0.00     0.078 C 
HETATM   11  C   UNL     1      38.186 -14.349   1.375  1.00  0.00     0.078 C 
HETATM   12  C   UNL     1      39.462 -15.070   1.024  1.00  0.00    -0.049 A 
HETATM   13  C   UNL     1      40.110 -14.858  -0.207  1.00  0.00    -0.052 A 
HETATM   14  C   UNL     1      39.987 -16.001   1.932  1.00  0.00     0.007 A 
HETATM   15  C   UNL     1      41.296 -15.555  -0.484  1.00  0.00     0.007 A 
HETATM   16  C   UNL     1      39.610 -13.843  -1.207  1.00  0.00     0.042 C 
HETATM   17  C   UNL     1      41.817 -16.467   0.433  1.00  0.00     0.001 A 
HETATM   18  C   UNL     1      41.161 -16.693   1.639  1.00  0.00     0.001 A 
HETATM   19  C   UNL     1      38.202 -13.327  -0.910  1.00  0.00     0.044 C 
BRANCH  10  20
HETATM   20  O   UNL     1      36.619 -12.601   0.763  1.00  0.00    -0.388 OA
HETATM   21  H   UNL     1      36.397 -12.015   0.018  1.00  0.00     0.210 HD
ENDBRANCH  10  20
ENDBRANCH   9  10
ENDBRANCH   6   9
ENDBRANCH   1   5
BRANCH   2  22
HETATM   22  C   UNL     1      40.325 -12.749   5.633  1.00  0.00     0.035 A 
HETATM   23  C   UNL     1      41.669 -12.735   6.000  1.00  0.00     0.039 A 
HETATM   24  C   UNL     1      42.433 -13.918   6.011  1.00  0.00    -0.029 A 
HETATM   25  C   UNL     1      41.864 -15.141   5.601  1.00  0.00     0.043 A 
HETATM   26  C   UNL     1      43.868 -13.806   6.450  1.00  0.00     0.042 C 
HETATM   27  N   UNL     1      42.688 -16.322   5.506  1.00  0.00    -0.313 N 
HETATM   28  C   UNL     1      40.503 -15.135   5.259  1.00  0.00     0.032 A 
HETATM   29  C   UNL     1      42.173 -17.601   5.177  1.00  0.00     0.265 C 
HETATM   30  C   UNL     1      44.122 -16.163   5.787  1.00  0.00     0.133 C 
HETATM   31  O   UNL     1      41.006 -17.929   5.387  1.00  0.00    -0.267 OA
HETATM   32  C   UNL     1      44.397 -15.156   6.887  1.00  0.00     0.025 C 
HETATM   33  C   UNL     1      39.734 -13.963   5.308  1.00  0.00     0.032 A 
BRANCH  29  34
HETATM   34  C   UNL     1      43.111 -18.543   4.564  1.00  0.00     0.073 A 
HETATM   35  S   UNL     1      43.966 -19.645   5.561  1.00  0.00    -0.097 SA
HETATM   36  C   UNL     1      44.782 -20.326   4.222  1.00  0.00     0.050 A 
HETATM   37  C   UNL     1      44.393 -19.754   3.032  1.00  0.00     0.009 A 
HETATM   38  C   UNL     1      43.413 -18.736   3.228  1.00  0.00     0.025 A 
ENDBRANCH  29  34
ENDBRANCH   2  22
TORSDOF 6
ENDMDL
MODEL 5
REMARK VINA RESULT:      -8.9      3.016      8.720
REMARK  6 active torsions:
REMARK  status: ('A' for Active; 'I' for Inactive)
REMARK    1  A    between atoms: C_6  and  C_8 
REMARK    2  A    between atoms: C_6  and  O_7 
REMARK    3  A    between atoms: C_8  and  N_9 
REMARK       I    between atoms: N_9  and  C_10 
REMARK    4  A    between atoms: C_10  and  C_11 
REMARK       I    between atoms: C_11  and  N_12 
REMARK    5  A    between atoms: N_12  and  C_13 
REMARK       I    between atoms: N_17  and  C_18 
REMARK    6  A    between atoms: C_18  and  C_19 
ROOT
HETATM    1  C   UNL     1      42.084 -13.157   2.464  1.00  0.00     0.313 C 
HETATM    2  N   UNL     1      41.026 -12.431   2.967  1.00  0.00    -0.319 N 
HETATM    3  O   UNL     1      42.236 -13.370   1.266  1.00  0.00    -0.262 OA
HETATM    4  H   UNL     1      40.219 -12.414   2.356  1.00  0.00     0.169 HD
ENDROOT
BRANCH   1   5
HETATM    5  C   UNL     1      43.026 -13.834   3.472  1.00  0.00     0.309 C 
HETATM    6  N   UNL     1      42.470 -14.875   4.184  1.00  0.00    -0.350 N 
HETATM    7  H   UNL     1      41.539 -15.203   3.946  1.00  0.00     0.163 HD
HETATM    8  O   UNL     1      44.182 -13.446   3.584  1.00  0.00    -0.262 OA
BRANCH   6   9
HETATM    9  C   UNL     1      43.292 -15.680   5.067  1.00  0.00     0.161 C 
BRANCH   9  10
HETATM   10  C   UNL     1      42.516 -16.837   5.734  1.00  0.00     0.078 C 
HETATM   11  C   UNL     1      43.393 -18.084   5.959  1.00  0.00     0.078 C 
HETATM   12  C   UNL     1      43.678 -18.854   4.696  1.00  0.00    -0.049 A 
HETATM   13  C   UNL     1      42.844 -18.748   3.567  1.00  0.00    -0.052 A 
HETATM   14  C   UNL     1      44.778 -19.724   4.665  1.00  0.00     0.007 A 
HETATM   15  C   UNL     1      43.155 -19.487   2.416  1.00  0.00     0.007 A 
HETATM   16  C   UNL     1      41.669 -17.802   3.531  1.00  0.00     0.042 C 
HETATM   17  C   UNL     1      44.260 -20.338   2.392  1.00  0.00     0.001 A 
HETATM   18  C   UNL     1      45.069 -20.459   3.517  1.00  0.00     0.001 A 
HETATM   19  C   UNL     1      41.289 -17.238   4.900  1.00  0.00     0.044 C 
BRANCH  10  20
HETATM   20  O   UNL     1      42.055 -16.357   7.014  1.00  0.00    -0.388 OA
HETATM   21  H   UNL     1      41.769 -15.434   6.899  1.00  0.00     0.210 HD
ENDBRANCH  10  20
ENDBRANCH   9  10
ENDBRANCH   6   9
ENDBRANCH   1   5
BRANCH   2  22
HETATM   22  C   UNL     1      40.901 -11.875   4.249  1.00  0.00     0.035 A 
HETATM   23  C   UNL     1      41.362 -10.596   4.552  1.00  0.00     0.039 A 
HETATM   24  C   UNL     1      41.191 -10.046   5.837  1.00  0.00    -0.029 A 
HETATM   25  C   UNL     1      40.591 -10.803   6.865  1.00  0.00     0.043 A 
HETATM   26  C   UNL     1      41.696  -8.646   6.061  1.00  0.00     0.042 C 
HETATM   27  N   UNL     1      40.527 -10.273   8.206  1.00  0.00    -0.313 N 
HETATM   28  C   UNL     1      40.114 -12.080   6.530  1.00  0.00     0.032 A 
HETATM   29  C   UNL     1      39.873 -10.939   9.271  1.00  0.00     0.265 C 
HETATM   30  C   UNL     1      41.165  -8.969   8.442  1.00  0.00     0.133 C 
HETATM   31  O   UNL     1      38.952 -11.736   9.100  1.00  0.00    -0.267 OA
HETATM   32  C   UNL     1      41.022  -8.024   7.265  1.00  0.00     0.025 C 
HETATM   33  C   UNL     1      40.235 -12.596   5.231  1.00  0.00     0.032 A 
BRANCH  29  34
HETATM   34  C   UNL     1      40.346 -10.631  10.622  1.00  0.00     0.073 A 
HETATM   35  S   UNL     1      39.379  -9.657  11.649  1.00  0.00    -0.097 SA
HETATM   36  C   UNL     1      40.521  -9.745  12.918  1.00  0.00     0.050 A 
HETATM   37  C   UNL     1      41.606 -10.525  12.586  1.00  0.00     0.009 A 
HETATM   38  C   UNL     1      41.496 -11.053  11.266  1.00  0.00     0.025 A 
ENDBRANCH  29  34
ENDBRANCH   2  22
TORSDOF 6
ENDMDL
MODEL 6
REMARK VINA RESULT:      -8.8      2.714      8.718
REMARK  6 active torsions:
REMARK  status: ('A' for Active; 'I' for Inactive)
REMARK    1  A    between atoms: C_6  and  C_8 
REMARK    2  A    between atoms: C_6  and  O_7 
REMARK    3  A    between atoms: C_8  and  N_9 
REMARK       I    between atoms: N_9  and  C_10 
REMARK    4  A    between atoms: C_10  and  C_11 
REMARK       I    between atoms: C_11  and  N_12 
REMARK    5  A    between atoms: N_12  and  C_13 
REMARK       I    between atoms: N_17  and  C_18 
REMARK    6  A    between atoms: C_18  and  C_19 
ROOT
HETATM    1  C   UNL     1      41.437 -15.039   3.783  1.00  0.00     0.313 C 
HETATM    2  N   UNL     1      41.542 -13.699   4.090  1.00  0.00    -0.319 N 
HETATM    3  O   UNL     1      41.303 -15.450   2.636  1.00  0.00    -0.262 OA
HETATM    4  H   UNL     1      41.137 -13.089   3.390  1.00  0.00     0.169 HD
ENDROOT
BRANCH   1   5
HETATM    5  C   UNL     1      41.350 -16.032   4.953  1.00  0.00     0.309 C 
HETATM    6  N   UNL     1      42.347 -16.983   4.987  1.00  0.00    -0.350 N 
HETATM    7  H   UNL     1      43.118 -16.924   4.331  1.00  0.00     0.163 HD
HETATM    8  O   UNL     1      40.448 -15.930   5.774  1.00  0.00    -0.262 OA
BRANCH   6   9
HETATM    9  C   UNL     1      42.452 -17.892   6.112  1.00  0.00     0.161 C 
BRANCH   9  10
HETATM   10  C   UNL     1      43.899 -18.052   6.631  1.00  0.00     0.078 C 
HETATM   11  C   UNL     1      44.881 -18.472   5.521  1.00  0.00     0.078 C 
HETATM   12  C   UNL     1      44.747 -19.917   5.114  1.00  0.00    -0.049 A 
HETATM   13  C   UNL     1      44.173 -20.872   5.974  1.00  0.00    -0.052 A 
HETATM   14  C   UNL     1      45.243 -20.319   3.865  1.00  0.00     0.007 A 
HETATM   15  C   UNL     1      44.072 -22.204   5.547  1.00  0.00     0.007 A 
HETATM   16  C   UNL     1      43.592 -20.491   7.314  1.00  0.00     0.042 C 
HETATM   17  C   UNL     1      44.555 -22.590   4.296  1.00  0.00     0.001 A 
HETATM   18  C   UNL     1      45.143 -21.648   3.457  1.00  0.00     0.001 A 
HETATM   19  C   UNL     1      43.969 -19.081   7.771  1.00  0.00     0.044 C 
BRANCH  10  20
HETATM   20  O   UNL     1      44.307 -16.772   7.153  1.00  0.00    -0.388 OA
HETATM   21  H   UNL     1      45.251 -16.654   6.945  1.00  0.00     0.210 HD
ENDBRANCH  10  20
ENDBRANCH   9  10
ENDBRANCH   6   9
ENDBRANCH   1   5
BRANCH   2  22
HETATM   22  C   UNL     1      41.989 -13.128   5.291  1.00  0.00     0.035 A 
HETATM   23  C   UNL     1      43.163 -13.539   5.918  1.00  0.00     0.039 A 
HETATM   24  C   UNL     1      43.608 -12.923   7.104  1.00  0.00    -0.029 A 
HETATM   25  C   UNL     1      42.844 -11.905   7.712  1.00  0.00     0.043 A 
HETATM   26  C   UNL     1      44.902 -13.416   7.692  1.00  0.00     0.042 C 
HETATM   27  N   UNL     1      43.251 -11.364   8.987  1.00  0.00    -0.313 N 
HETATM   28  C   UNL     1      41.678 -11.492   7.049  1.00  0.00     0.032 A 
HETATM   29  C   UNL     1      42.581 -10.289   9.621  1.00  0.00     0.265 C 
HETATM   30  C   UNL     1      44.432 -11.966   9.623  1.00  0.00     0.133 C 
HETATM   31  O   UNL     1      41.932  -9.446   9.004  1.00  0.00    -0.267 OA
HETATM   32  C   UNL     1      45.494 -12.379   8.622  1.00  0.00     0.025 C 
HETATM   33  C   UNL     1      41.273 -12.070   5.837  1.00  0.00     0.032 A 
BRANCH  29  34
HETATM   34  C   UNL     1      42.698 -10.217  11.078  1.00  0.00     0.073 A 
HETATM   35  S   UNL     1      41.643 -11.153  12.052  1.00  0.00    -0.097 SA
HETATM   36  C   UNL     1      42.343 -10.563  13.496  1.00  0.00     0.050 A 
HETATM   37  C   UNL     1      43.381  -9.693  13.250  1.00  0.00     0.009 A 
HETATM   38  C   UNL     1      43.600  -9.508  11.853  1.00  0.00     0.025 A 
ENDBRANCH  29  34
ENDBRANCH   2  22
TORSDOF 6
ENDMDL
MODEL 7
REMARK VINA RESULT:      -8.7      4.146      7.455
REMARK  6 active torsions:
REMARK  status: ('A' for Active; 'I' for Inactive)
REMARK    1  A    between atoms: C_6  and  C_8 
REMARK    2  A    between atoms: C_6  and  O_7 
REMARK    3  A    between atoms: C_8  and  N_9 
REMARK       I    between atoms: N_9  and  C_10 
REMARK    4  A    between atoms: C_10  and  C_11 
REMARK       I    between atoms: C_11  and  N_12 
REMARK    5  A    between atoms: N_12  and  C_13 
REMARK       I    between atoms: N_17  and  C_18 
REMARK    6  A    between atoms: C_18  and  C_19 
ROOT
HETATM    1  C   UNL     1      41.230 -10.818   4.787  1.00  0.00     0.313 C 
HETATM    2  N   UNL     1      42.110 -11.715   5.353  1.00  0.00    -0.319 N 
HETATM    3  O   UNL     1      41.373  -9.603   4.869  1.00  0.00    -0.262 OA
HETATM    4  H   UNL     1      42.640 -11.331   6.125  1.00  0.00     0.169 HD
ENDROOT
BRANCH   1   5
HETATM    5  C   UNL     1      39.951 -11.383   4.148  1.00  0.00     0.309 C 
HETATM    6  N   UNL     1      40.034 -11.629   2.795  1.00  0.00    -0.350 N 
HETATM    7  H   UNL     1      40.926 -11.532   2.322  1.00  0.00     0.163 HD
HETATM    8  O   UNL     1      38.964 -11.594   4.841  1.00  0.00    -0.262 OA
BRANCH   6   9
HETATM    9  C   UNL     1      38.942 -12.286   2.102  1.00  0.00     0.161 C 
BRANCH   9  10
HETATM   10  C   UNL     1      39.167 -13.803   1.912  1.00  0.00     0.078 C 
HETATM   11  C   UNL     1      40.514 -14.119   1.236  1.00  0.00     0.078 C 
HETATM   12  C   UNL     1      40.532 -13.817  -0.241  1.00  0.00    -0.049 A 
HETATM   13  C   UNL     1      39.343 -13.749  -0.990  1.00  0.00    -0.052 A 
HETATM   14  C   UNL     1      41.767 -13.642  -0.883  1.00  0.00     0.007 A 
HETATM   15  C   UNL     1      39.415 -13.464  -2.362  1.00  0.00     0.007 A 
HETATM   16  C   UNL     1      37.985 -13.895  -0.347  1.00  0.00     0.042 C 
HETATM   17  C   UNL     1      40.648 -13.276  -2.987  1.00  0.00     0.001 A 
HETATM   18  C   UNL     1      41.823 -13.368  -2.248  1.00  0.00     0.001 A 
HETATM   19  C   UNL     1      38.036 -14.433   1.084  1.00  0.00     0.044 C 
BRANCH  10  20
HETATM   20  O   UNL     1      39.154 -14.402   3.224  1.00  0.00    -0.388 OA
HETATM   21  H   UNL     1      40.062 -14.685   3.430  1.00  0.00     0.210 HD
ENDBRANCH  10  20
ENDBRANCH   9  10
ENDBRANCH   6   9
ENDBRANCH   1   5
BRANCH   2  22
HETATM   22  C   UNL     1      42.225 -13.088   5.085  1.00  0.00     0.035 A 
HETATM   23  C   UNL     1      41.471 -14.043   5.763  1.00  0.00     0.039 A 
HETATM   24  C   UNL     1      41.579 -15.411   5.449  1.00  0.00    -0.029 A 
HETATM   25  C   UNL     1      42.494 -15.852   4.470  1.00  0.00     0.043 A 
HETATM   26  C   UNL     1      40.702 -16.365   6.216  1.00  0.00     0.042 C 
HETATM   27  N   UNL     1      42.678 -17.264   4.240  1.00  0.00    -0.313 N 
HETATM   28  C   UNL     1      43.225 -14.869   3.785  1.00  0.00     0.032 A 
HETATM   29  C   UNL     1      43.519 -17.780   3.223  1.00  0.00     0.265 C 
HETATM   30  C   UNL     1      41.929 -18.187   5.106  1.00  0.00     0.133 C 
HETATM   31  O   UNL     1      43.793 -17.157   2.198  1.00  0.00    -0.267 OA
HETATM   32  C   UNL     1      40.549 -17.670   5.463  1.00  0.00     0.025 C 
HETATM   33  C   UNL     1      43.068 -13.503   4.063  1.00  0.00     0.032 A 
BRANCH  29  34
HETATM   34  C   UNL     1      44.063 -19.121   3.445  1.00  0.00     0.073 A 
HETATM   35  S   UNL     1      43.786 -20.342   2.274  1.00  0.00    -0.097 SA
HETATM   36  C   UNL     1      44.651 -21.503   3.184  1.00  0.00     0.050 A 
HETATM   37  C   UNL     1      45.170 -20.971   4.343  1.00  0.00     0.009 A 
HETATM   38  C   UNL     1      44.847 -19.589   4.484  1.00  0.00     0.025 A 
ENDBRANCH  29  34
ENDBRANCH   2  22
TORSDOF 6
ENDMDL
MODEL 8
REMARK VINA RESULT:      -8.6      4.017      7.022
REMARK  6 active torsions:
REMARK  status: ('A' for Active; 'I' for Inactive)
REMARK    1  A    between atoms: C_6  and  C_8 
REMARK    2  A    between atoms: C_6  and  O_7 
REMARK    3  A    between atoms: C_8  and  N_9 
REMARK       I    between atoms: N_9  and  C_10 
REMARK    4  A    between atoms: C_10  and  C_11 
REMARK       I    between atoms: C_11  and  N_12 
REMARK    5  A    between atoms: N_12  and  C_13 
REMARK       I    between atoms: N_17  and  C_18 
REMARK    6  A    between atoms: C_18  and  C_19 
ROOT
HETATM    1  C   UNL     1      39.676 -12.614   6.229  1.00  0.00     0.313 C 
HETATM    2  N   UNL     1      39.394 -13.944   6.003  1.00  0.00    -0.319 N 
HETATM    3  O   UNL     1      39.117 -11.954   7.098  1.00  0.00    -0.262 OA
HETATM    4  H   UNL     1      38.476 -14.224   6.323  1.00  0.00     0.169 HD
ENDROOT
BRANCH   1   5
HETATM    5  C   UNL     1      40.633 -11.913   5.251  1.00  0.00     0.309 C 
HETATM    6  N   UNL     1      40.042 -11.426   4.105  1.00  0.00    -0.350 N 
HETATM    7  H   UNL     1      39.033 -11.455   4.010  1.00  0.00     0.163 HD
HETATM    8  O   UNL     1      41.821 -11.810   5.528  1.00  0.00    -0.262 OA
BRANCH   6   9
HETATM    9  C   UNL     1      40.811 -10.628   3.169  1.00  0.00     0.161 C 
BRANCH   9  10
HETATM   10  C   UNL     1      39.931  -9.841   2.173  1.00  0.00     0.078 C 
HETATM   11  C   UNL     1      38.579 -10.529   1.908  1.00  0.00     0.078 C 
HETATM   12  C   UNL     1      38.685 -11.746   1.025  1.00  0.00    -0.049 A 
HETATM   13  C   UNL     1      39.774 -11.925   0.151  1.00  0.00    -0.052 A 
HETATM   14  C   UNL     1      37.654 -12.697   1.051  1.00  0.00     0.007 A 
HETATM   15  C   UNL     1      39.825 -13.075  -0.650  1.00  0.00     0.007 A 
HETATM   16  C   UNL     1      40.928 -10.953   0.106  1.00  0.00     0.042 C 
HETATM   17  C   UNL     1      38.801 -14.022  -0.604  1.00  0.00     0.001 A 
HETATM   18  C   UNL     1      37.715 -13.830   0.243  1.00  0.00     0.001 A 
HETATM   19  C   UNL     1      40.654  -9.636   0.833  1.00  0.00     0.044 C 
BRANCH  10  20
HETATM   20  O   UNL     1      39.685  -8.545   2.757  1.00  0.00    -0.388 OA
HETATM   21  H   UNL     1      38.839  -8.216   2.405  1.00  0.00     0.210 HD
ENDBRANCH  10  20
ENDBRANCH   9  10
ENDBRANCH   6   9
ENDBRANCH   1   5
BRANCH   2  22
HETATM   22  C   UNL     1      40.151 -14.867   5.266  1.00  0.00     0.035 A 
HETATM   23  C   UNL     1      39.927 -15.099   3.911  1.00  0.00     0.039 A 
HETATM   24  C   UNL     1      40.726 -16.003   3.186  1.00  0.00    -0.029 A 
HETATM   25  C   UNL     1      41.745 -16.735   3.830  1.00  0.00     0.043 A 
HETATM   26  C   UNL     1      40.425 -16.166   1.720  1.00  0.00     0.042 C 
HETATM   27  N   UNL     1      42.479 -17.742   3.103  1.00  0.00    -0.313 N 
HETATM   28  C   UNL     1      41.968 -16.466   5.190  1.00  0.00     0.032 A 
HETATM   29  C   UNL     1      43.565 -18.462   3.659  1.00  0.00     0.265 C 
HETATM   30  C   UNL     1      42.067 -17.999   1.714  1.00  0.00     0.133 C 
HETATM   31  O   UNL     1      44.263 -18.023   4.572  1.00  0.00    -0.267 OA
HETATM   32  C   UNL     1      41.620 -16.743   0.992  1.00  0.00     0.025 C 
HETATM   33  C   UNL     1      41.206 -15.520   5.891  1.00  0.00     0.032 A 
BRANCH  29  34
HETATM   34  C   UNL     1      43.834 -19.782   3.086  1.00  0.00     0.073 A 
HETATM   35  S   UNL     1      44.754 -20.915   3.985  1.00  0.00    -0.097 SA
HETATM   36  C   UNL     1      44.642 -22.089   2.748  1.00  0.00     0.050 A 
HETATM   37  C   UNL     1      43.893 -21.646   1.681  1.00  0.00     0.009 A 
HETATM   38  C   UNL     1      43.410 -20.320   1.884  1.00  0.00     0.025 A 
ENDBRANCH  29  34
ENDBRANCH   2  22
TORSDOF 6
ENDMDL
MODEL 9
REMARK VINA RESULT:      -8.6      3.259      8.285
REMARK  6 active torsions:
REMARK  status: ('A' for Active; 'I' for Inactive)
REMARK    1  A    between atoms: C_6  and  C_8 
REMARK    2  A    between atoms: C_6  and  O_7 
REMARK    3  A    between atoms: C_8  and  N_9 
REMARK       I    between atoms: N_9  and  C_10 
REMARK    4  A    between atoms: C_10  and  C_11 
REMARK       I    between atoms: C_11  and  N_12 
REMARK    5  A    between atoms: N_12  and  C_13 
REMARK       I    between atoms: N_17  and  C_18 
REMARK    6  A    between atoms: C_18  and  C_19 
ROOT
HETATM    1  C   UNL     1      40.674 -12.645   1.421  1.00  0.00     0.313 C 
HETATM    2  N   UNL     1      39.807 -11.861   2.152  1.00  0.00    -0.319 N 
HETATM    3  O   UNL     1      40.585 -12.780   0.205  1.00  0.00    -0.262 OA
HETATM    4  H   UNL     1      38.911 -11.718   1.702  1.00  0.00     0.169 HD
ENDROOT
BRANCH   1   5
HETATM    5  C   UNL     1      41.700 -13.486   2.197  1.00  0.00     0.309 C 
HETATM    6  N   UNL     1      41.226 -14.686   2.681  1.00  0.00    -0.350 N 
HETATM    7  H   UNL     1      40.295 -14.997   2.424  1.00  0.00     0.163 HD
HETATM    8  O   UNL     1      42.846 -13.077   2.333  1.00  0.00    -0.262 OA
BRANCH   6   9
HETATM    9  C   UNL     1      42.130 -15.628   3.313  1.00  0.00     0.161 C 
BRANCH   9  10
HETATM   10  C   UNL     1      41.485 -17.007   3.576  1.00  0.00     0.078 C 
HETATM   11  C   UNL     1      41.228 -17.263   5.073  1.00  0.00     0.078 C 
HETATM   12  C   UNL     1      42.479 -17.573   5.854  1.00  0.00    -0.049 A 
HETATM   13  C   UNL     1      43.635 -18.068   5.222  1.00  0.00    -0.052 A 
HETATM   14  C   UNL     1      42.471 -17.401   7.246  1.00  0.00     0.007 A 
HETATM   15  C   UNL     1      44.773 -18.341   5.995  1.00  0.00     0.007 A 
HETATM   16  C   UNL     1      43.713 -18.240   3.724  1.00  0.00     0.042 C 
HETATM   17  C   UNL     1      44.758 -18.151   7.377  1.00  0.00     0.001 A 
HETATM   18  C   UNL     1      43.607 -17.684   8.002  1.00  0.00     0.001 A 
HETATM   19  C   UNL     1      42.359 -18.144   3.021  1.00  0.00     0.044 C 
BRANCH  10  20
HETATM   20  O   UNL     1      40.223 -17.026   2.878  1.00  0.00    -0.388 OA
HETATM   21  H   UNL     1      39.687 -16.286   3.214  1.00  0.00     0.210 HD
ENDBRANCH  10  20
ENDBRANCH   9  10
ENDBRANCH   6   9
ENDBRANCH   1   5
BRANCH   2  22
HETATM   22  C   UNL     1      39.974 -11.394   3.464  1.00  0.00     0.035 A 
HETATM   23  C   UNL     1      40.731 -10.263   3.760  1.00  0.00     0.039 A 
HETATM   24  C   UNL     1      40.852  -9.794   5.083  1.00  0.00    -0.029 A 
HETATM   25  C   UNL     1      40.247 -10.493   6.148  1.00  0.00     0.043 A 
HETATM   26  C   UNL     1      41.667  -8.548   5.300  1.00  0.00     0.042 C 
HETATM   27  N   UNL     1      40.475 -10.070   7.509  1.00  0.00    -0.313 N 
HETATM   28  C   UNL     1      39.471 -11.616   5.822  1.00  0.00     0.032 A 
HETATM   29  C   UNL     1      39.842 -10.672   8.624  1.00  0.00     0.265 C 
HETATM   30  C   UNL     1      41.400  -8.945   7.714  1.00  0.00     0.133 C 
HETATM   31  O   UNL     1      38.758 -11.250   8.548  1.00  0.00    -0.267 OA
HETATM   32  C   UNL     1      41.306  -7.900   6.620  1.00  0.00     0.025 C 
HETATM   33  C   UNL     1      39.307 -12.041   4.496  1.00  0.00     0.032 A 
BRANCH  29  34
HETATM   34  C   UNL     1      40.544 -10.574   9.904  1.00  0.00     0.073 A 
HETATM   35  S   UNL     1      39.750  -9.861  11.245  1.00  0.00    -0.097 SA
HETATM   36  C   UNL     1      41.107 -10.094  12.258  1.00  0.00     0.050 A 
HETATM   37  C   UNL     1      42.138 -10.731  11.605  1.00  0.00     0.009 A 
HETATM   38  C   UNL     1      41.806 -11.026  10.249  1.00  0.00     0.025 A 
ENDBRANCH  29  34
ENDBRANCH   2  22
TORSDOF 6
ENDMDL
MODEL 10
REMARK VINA RESULT:      -8.6      2.984      9.031
REMARK  6 active torsions:
REMARK  status: ('A' for Active; 'I' for Inactive)
REMARK    1  A    between atoms: C_6  and  C_8 
REMARK    2  A    between atoms: C_6  and  O_7 
REMARK    3  A    between atoms: C_8  and  N_9 
REMARK       I    between atoms: N_9  and  C_10 
REMARK    4  A    between atoms: C_10  and  C_11 
REMARK       I    between atoms: C_11  and  N_12 
REMARK    5  A    between atoms: N_12  and  C_13 
REMARK       I    between atoms: N_17  and  C_18 
REMARK    6  A    between atoms: C_18  and  C_19 
ROOT
HETATM    1  C   UNL     1      42.497 -13.087   4.645  1.00  0.00     0.313 C 
HETATM    2  N   UNL     1      41.767 -12.220   5.430  1.00  0.00    -0.319 N 
HETATM    3  O   UNL     1      42.284 -13.240   3.447  1.00  0.00    -0.262 OA
HETATM    4  H   UNL     1      40.846 -12.017   5.061  1.00  0.00     0.169 HD
ENDROOT
BRANCH   1   5
HETATM    5  C   UNL     1      43.524 -13.990   5.348  1.00  0.00     0.309 C 
HETATM    6  N   UNL     1      42.998 -15.112   5.952  1.00  0.00    -0.350 N 
HETATM    7  H   UNL     1      42.018 -15.338   5.821  1.00  0.00     0.163 HD
HETATM    8  O   UNL     1      44.711 -13.694   5.328  1.00  0.00    -0.262 OA
BRANCH   6   9
HETATM    9  C   UNL     1      43.876 -16.110   6.531  1.00  0.00     0.161 C 
BRANCH   9  10
HETATM   10  C   UNL     1      43.138 -17.401   6.950  1.00  0.00     0.078 C 
HETATM   11  C   UNL     1      43.906 -18.676   6.554  1.00  0.00     0.078 C 
HETATM   12  C   UNL     1      43.842 -18.984   5.080  1.00  0.00    -0.049 A 
HETATM   13  C   UNL     1      42.808 -18.479   4.270  1.00  0.00    -0.052 A 
HETATM   14  C   UNL     1      44.813 -19.826   4.519  1.00  0.00     0.007 A 
HETATM   15  C   UNL     1      42.794 -18.796   2.903  1.00  0.00     0.007 A 
HETATM   16  C   UNL     1      41.756 -17.541   4.811  1.00  0.00     0.042 C 
HETATM   17  C   UNL     1      43.774 -19.622   2.353  1.00  0.00     0.001 A 
HETATM   18  C   UNL     1      44.782 -20.139   3.162  1.00  0.00     0.001 A 
HETATM   19  C   UNL     1      41.730 -17.460   6.338  1.00  0.00     0.044 C 
BRANCH  10  20
HETATM   20  O   UNL     1      43.005 -17.366   8.386  1.00  0.00    -0.388 OA
HETATM   21  H   UNL     1      43.877 -17.565   8.770  1.00  0.00     0.210 HD
ENDBRANCH  10  20
ENDBRANCH   9  10
ENDBRANCH   6   9
ENDBRANCH   1   5
BRANCH   2  22
HETATM   22  C   UNL     1      42.092 -11.741   6.708  1.00  0.00     0.035 A 
HETATM   23  C   UNL     1      43.270 -12.101   7.359  1.00  0.00     0.039 A 
HETATM   24  C   UNL     1      43.590 -11.576   8.626  1.00  0.00    -0.029 A 
HETATM   25  C   UNL     1      42.696 -10.708   9.288  1.00  0.00     0.043 A 
HETATM   26  C   UNL     1      44.898 -12.001   9.237  1.00  0.00     0.042 C 
HETATM   27  N   UNL     1      42.982 -10.270  10.633  1.00  0.00    -0.313 N 
HETATM   28  C   UNL     1      41.528 -10.342   8.602  1.00  0.00     0.032 A 
HETATM   29  C   UNL     1      42.174  -9.340  11.333  1.00  0.00     0.265 C 
HETATM   30  C   UNL     1      44.186 -10.819  11.275  1.00  0.00     0.133 C 
HETATM   31  O   UNL     1      41.472  -8.503  10.767  1.00  0.00    -0.267 OA
HETATM   32  C   UNL     1      45.332 -11.017  10.302  1.00  0.00     0.025 C 
HETATM   33  C   UNL     1      41.245 -10.823   7.315  1.00  0.00     0.032 A 
BRANCH  29  34
HETATM   34  C   UNL     1      42.210  -9.415  12.794  1.00  0.00     0.073 A 
HETATM   35  S   UNL     1      41.207 -10.545  13.603  1.00  0.00    -0.097 SA
HETATM   36  C   UNL     1      41.772 -10.049  15.138  1.00  0.00     0.050 A 
HETATM   37  C   UNL     1      42.730  -9.065  15.044  1.00  0.00     0.009 A 
HETATM   38  C   UNL     1      42.998  -8.711  13.689  1.00  0.00     0.025 A 
ENDBRANCH  29  34
ENDBRANCH   2  22
TORSDOF 6
ENDMDL
