MODEL 1
REMARK VINA RESULT:      -9.7      0.000      0.000
REMARK  5 active torsions:
REMARK  status: ('A' for Active; 'I' for Inactive)
REMARK    1  A    between atoms: C_7  and  C_8 
REMARK    2  A    between atoms: N_9  and  C_10 
REMARK    3  A    between atoms: C_10  and  C_11 
REMARK       I    between atoms: C_11  and  N_12 
REMARK    4  A    between atoms: N_12  and  C_13 
REMARK    5  A    between atoms: C_13  and  C_14 
ROOT
HETATM    1  C   UNL     1      42.430 -16.218   4.869  1.00  0.00     0.158 A 
HETATM    2  N   UNL     1      43.438 -15.173   4.798  1.00  0.00    -0.326 N 
HETATM    3  C   UNL     1      43.408 -14.498   3.594  1.00  0.00     0.255 A 
HETATM    4  O   UNL     1      44.060 -13.528   3.261  1.00  0.00    -0.267 OA
HETATM    5  C   UNL     1      42.412 -15.177   2.751  1.00  0.00     0.040 A 
HETATM    6  C   UNL     1      41.854 -16.224   3.486  1.00  0.00    -0.015 A 
HETATM    7  C   UNL     1      42.034 -14.891   1.452  1.00  0.00     0.017 A 
HETATM    8  C   UNL     1      41.044 -15.693   0.880  1.00  0.00     0.001 A 
HETATM    9  C   UNL     1      40.465 -16.747   1.611  1.00  0.00     0.001 A 
HETATM   10  C   UNL     1      40.864 -17.016   2.925  1.00  0.00     0.011 A 
ENDROOT
BRANCH   1  11
HETATM   11  C   UNL     1      42.972 -17.578   5.175  1.00  0.00     0.004 A 
HETATM   12  C   UNL     1      43.059 -18.134   6.450  1.00  0.00     0.017 A 
HETATM   13  C   UNL     1      42.636 -17.581   7.771  1.00  0.00     0.069 C 
HETATM   14  N   UNL     1      43.658 -19.371   6.337  1.00  0.00    -0.354 N 
HETATM   15  C   UNL     1      43.937 -20.247   7.457  1.00  0.00     0.156 C 
HETATM   16  C   UNL     1      43.974 -19.635   5.022  1.00  0.00     0.045 A 
HETATM   17  C   UNL     1      43.531 -18.546   4.266  1.00  0.00     0.001 A 
HETATM   18  C   UNL     1      44.620 -20.736   4.430  1.00  0.00     0.030 A 
HETATM   19  C   UNL     1      43.729 -18.580   2.866  1.00  0.00     0.014 A 
HETATM   20  C   UNL     1      44.369 -19.672   2.272  1.00  0.00     0.001 A 
HETATM   21  C   UNL     1      44.813 -20.734   3.047  1.00  0.00     0.002 A 
ENDBRANCH   1  11
BRANCH   2  22
HETATM   22  C   UNL     1      44.308 -14.841   5.921  1.00  0.00     0.229 C 
BRANCH  22  23
HETATM   23  C   UNL     1      43.851 -13.592   6.675  1.00  0.00     0.235 C 
HETATM   24  N   UNL     1      44.693 -13.198   7.691  1.00  0.00    -0.357 N 
HETATM   25  H   UNL     1      45.420 -13.843   7.990  1.00  0.00     0.162 HD
HETATM   26  O   UNL     1      42.776 -13.044   6.450  1.00  0.00    -0.272 OA
BRANCH  24  27
HETATM   27  C   UNL     1      44.435 -12.037   8.522  1.00  0.00     0.154 C 
BRANCH  27  28
HETATM   28  C   UNL     1      45.040 -12.119   9.930  1.00  0.00     0.139 C 
HETATM   29  O   UNL     1      44.318 -13.098  10.707  1.00  0.00    -0.384 OA
HETATM   30  C   UNL     1      43.946 -12.495  11.952  1.00  0.00     0.168 C 
HETATM   31  C   UNL     1      43.905 -11.006  11.703  1.00  0.00     0.029 C 
HETATM   32  C   UNL     1      45.039 -10.820  10.726  1.00  0.00     0.035 C 
ENDBRANCH  27  28
ENDBRANCH  24  27
ENDBRANCH  22  23
ENDBRANCH   2  22
TORSDOF 5
ENDMDL
MODEL 2
REMARK VINA RESULT:      -8.9      1.932      2.957
REMARK  5 active torsions:
REMARK  status: ('A' for Active; 'I' for Inactive)
REMARK    1  A    between atoms: C_7  and  C_8 
REMARK    2  A    between atoms: N_9  and  C_10 
REMARK    3  A    between atoms: C_10  and  C_11 
REMARK       I    between atoms: C_11  and  N_12 
REMARK    4  A    between atoms: N_12  and  C_13 
REMARK    5  A    between atoms: C_13  and  C_14 
ROOT
HETATM    1  C   UNL     1      42.397 -16.102   4.919  1.00  0.00     0.158 A 
HETATM    2  N   UNL     1      43.400 -15.054   4.829  1.00  0.00    -0.326 N 
HETATM    3  C   UNL     1      43.305 -14.338   3.653  1.00  0.00     0.255 A 
HETATM    4  O   UNL     1      43.939 -13.356   3.319  1.00  0.00    -0.267 OA
HETATM    5  C   UNL     1      42.266 -14.989   2.842  1.00  0.00     0.040 A 
HETATM    6  C   UNL     1      41.747 -16.062   3.569  1.00  0.00    -0.015 A 
HETATM    7  C   UNL     1      41.819 -14.659   1.576  1.00  0.00     0.017 A 
HETATM    8  C   UNL     1      40.799 -15.443   1.031  1.00  0.00     0.001 A 
HETATM    9  C   UNL     1      40.260 -16.522   1.754  1.00  0.00     0.001 A 
HETATM   10  C   UNL     1      40.728 -16.836   3.035  1.00  0.00     0.011 A 
ENDROOT
BRANCH   1  11
HETATM   11  C   UNL     1      42.954 -17.471   5.148  1.00  0.00     0.004 A 
HETATM   12  C   UNL     1      43.064 -18.090   6.393  1.00  0.00     0.017 A 
HETATM   13  C   UNL     1      42.657 -17.607   7.746  1.00  0.00     0.069 C 
HETATM   14  N   UNL     1      43.671 -19.314   6.209  1.00  0.00    -0.354 N 
HETATM   15  C   UNL     1      43.974 -20.242   7.279  1.00  0.00     0.156 C 
HETATM   16  C   UNL     1      43.970 -19.510   4.877  1.00  0.00     0.045 A 
HETATM   17  C   UNL     1      43.507 -18.388   4.184  1.00  0.00     0.001 A 
HETATM   18  C   UNL     1      44.616 -20.574   4.222  1.00  0.00     0.030 A 
HETATM   19  C   UNL     1      43.685 -18.350   2.781  1.00  0.00     0.014 A 
HETATM   20  C   UNL     1      44.325 -19.405   2.124  1.00  0.00     0.001 A 
HETATM   21  C   UNL     1      44.789 -20.501   2.839  1.00  0.00     0.002 A 
ENDBRANCH   1  11
BRANCH   2  22
HETATM   22  C   UNL     1      44.329 -14.760   5.915  1.00  0.00     0.229 C 
BRANCH  22  23
HETATM   23  C   UNL     1      43.860 -13.603   6.798  1.00  0.00     0.235 C 
HETATM   24  N   UNL     1      42.743 -12.946   6.335  1.00  0.00    -0.357 N 
HETATM   25  H   UNL     1      42.436 -13.132   5.384  1.00  0.00     0.162 HD
HETATM   26  O   UNL     1      44.486 -13.236   7.789  1.00  0.00    -0.272 OA
BRANCH  24  27
HETATM   27  C   UNL     1      42.144 -11.823   7.031  1.00  0.00     0.154 C 
BRANCH  27  28
HETATM   28  C   UNL     1      40.806 -11.353   6.443  1.00  0.00     0.139 C 
HETATM   29  O   UNL     1      39.757 -12.252   6.859  1.00  0.00    -0.384 OA
HETATM   30  C   UNL     1      39.022 -12.651   5.694  1.00  0.00     0.168 C 
HETATM   31  C   UNL     1      39.965 -12.488   4.526  1.00  0.00     0.029 C 
HETATM   32  C   UNL     1      40.749 -11.262   4.923  1.00  0.00     0.035 C 
ENDBRANCH  27  28
ENDBRANCH  24  27
ENDBRANCH  22  23
ENDBRANCH   2  22
TORSDOF 5
ENDMDL
MODEL 3
REMARK VINA RESULT:      -8.7      1.074      2.299
REMARK  5 active torsions:
REMARK  status: ('A' for Active; 'I' for Inactive)
REMARK    1  A    between atoms: C_7  and  C_8 
REMARK    2  A    between atoms: N_9  and  C_10 
REMARK    3  A    between atoms: C_10  and  C_11 
REMARK       I    between atoms: C_11  and  N_12 
REMARK    4  A    between atoms: N_12  and  C_13 
REMARK    5  A    between atoms: C_13  and  C_14 
ROOT
HETATM    1  C   UNL     1      42.742 -16.657   4.737  1.00  0.00     0.158 A 
HETATM    2  N   UNL     1      43.660 -15.530   4.782  1.00  0.00    -0.326 N 
HETATM    3  C   UNL     1      43.344 -14.560   3.853  1.00  0.00     0.255 A 
HETATM    4  O   UNL     1      43.862 -13.472   3.697  1.00  0.00    -0.267 OA
HETATM    5  C   UNL     1      42.227 -15.086   3.052  1.00  0.00     0.040 A 
HETATM    6  C   UNL     1      41.889 -16.347   3.545  1.00  0.00    -0.015 A 
HETATM    7  C   UNL     1      41.570 -14.499   1.987  1.00  0.00     0.017 A 
HETATM    8  C   UNL     1      40.523 -15.216   1.404  1.00  0.00     0.001 A 
HETATM    9  C   UNL     1      40.163 -16.485   1.895  1.00  0.00     0.001 A 
HETATM   10  C   UNL     1      40.843 -17.058   2.975  1.00  0.00     0.011 A 
ENDROOT
BRANCH   1  11
HETATM   11  C   UNL     1      43.403 -17.982   4.529  1.00  0.00     0.004 A 
HETATM   12  C   UNL     1      43.934 -18.428   3.320  1.00  0.00     0.017 A 
HETATM   13  C   UNL     1      44.016 -17.743   1.995  1.00  0.00     0.069 C 
HETATM   14  N   UNL     1      44.405 -19.710   3.507  1.00  0.00    -0.354 N 
HETATM   15  C   UNL     1      45.015 -20.514   2.467  1.00  0.00     0.156 C 
HETATM   16  C   UNL     1      44.188 -20.120   4.805  1.00  0.00     0.045 A 
HETATM   17  C   UNL     1      43.590 -19.050   5.478  1.00  0.00     0.001 A 
HETATM   18  C   UNL     1      44.460 -21.342   5.445  1.00  0.00     0.030 A 
HETATM   19  C   UNL     1      43.274 -19.216   6.846  1.00  0.00     0.014 A 
HETATM   20  C   UNL     1      43.541 -20.429   7.489  1.00  0.00     0.001 A 
HETATM   21  C   UNL     1      44.123 -21.480   6.794  1.00  0.00     0.002 A 
ENDBRANCH   1  11
BRANCH   2  22
HETATM   22  C   UNL     1      44.729 -15.426   5.769  1.00  0.00     0.229 C 
BRANCH  22  23
HETATM   23  C   UNL     1      44.289 -14.710   7.046  1.00  0.00     0.235 C 
HETATM   24  N   UNL     1      44.401 -13.339   7.001  1.00  0.00    -0.357 N 
HETATM   25  H   UNL     1      44.929 -12.925   6.238  1.00  0.00     0.162 HD
HETATM   26  O   UNL     1      43.951 -15.319   8.058  1.00  0.00    -0.272 OA
BRANCH  24  27
HETATM   27  C   UNL     1      44.033 -12.482   8.112  1.00  0.00     0.154 C 
BRANCH  27  28
HETATM   28  C   UNL     1      45.045 -12.469   9.266  1.00  0.00     0.139 C 
HETATM   29  O   UNL     1      44.471 -13.126  10.415  1.00  0.00    -0.384 OA
HETATM   30  C   UNL     1      44.631 -12.263  11.548  1.00  0.00     0.168 C 
HETATM   31  C   UNL     1      44.750 -10.862  10.998  1.00  0.00     0.029 C 
HETATM   32  C   UNL     1      45.514 -11.092   9.718  1.00  0.00     0.035 C 
ENDBRANCH  27  28
ENDBRANCH  24  27
ENDBRANCH  22  23
ENDBRANCH   2  22
TORSDOF 5
ENDMDL
MODEL 4
REMARK VINA RESULT:      -8.6      3.165      6.643
REMARK  5 active torsions:
REMARK  status: ('A' for Active; 'I' for Inactive)
REMARK    1  A    between atoms: C_7  and  C_8 
REMARK    2  A    between atoms: N_9  and  C_10 
REMARK    3  A    between atoms: C_10  and  C_11 
REMARK       I    between atoms: C_11  and  N_12 
REMARK    4  A    between atoms: N_12  and  C_13 
REMARK    5  A    between atoms: C_13  and  C_14 
ROOT
HETATM    1  C   UNL     1      42.771 -15.711   3.276  1.00  0.00     0.158 A 
HETATM    2  N   UNL     1      41.345 -15.698   2.993  1.00  0.00    -0.326 N 
HETATM    3  C   UNL     1      40.666 -14.781   3.769  1.00  0.00     0.255 A 
HETATM    4  O   UNL     1      39.491 -14.474   3.714  1.00  0.00    -0.267 OA
HETATM    5  C   UNL     1      41.644 -14.213   4.710  1.00  0.00     0.040 A 
HETATM    6  C   UNL     1      42.889 -14.788   4.450  1.00  0.00    -0.015 A 
HETATM    7  C   UNL     1      41.448 -13.271   5.703  1.00  0.00     0.017 A 
HETATM    8  C   UNL     1      42.561 -12.891   6.457  1.00  0.00     0.001 A 
HETATM    9  C   UNL     1      43.825 -13.455   6.202  1.00  0.00     0.001 A 
HETATM   10  C   UNL     1      43.998 -14.406   5.190  1.00  0.00     0.011 A 
ENDROOT
BRANCH   1  11
HETATM   11  C   UNL     1      43.312 -17.052   3.657  1.00  0.00     0.004 A 
HETATM   12  C   UNL     1      43.854 -17.976   2.765  1.00  0.00     0.017 A 
HETATM   13  C   UNL     1      44.062 -17.881   1.289  1.00  0.00     0.069 C 
HETATM   14  N   UNL     1      44.193 -19.108   3.476  1.00  0.00    -0.354 N 
HETATM   15  C   UNL     1      44.771 -20.298   2.886  1.00  0.00     0.156 C 
HETATM   16  C   UNL     1      43.878 -18.953   4.809  1.00  0.00     0.045 A 
HETATM   17  C   UNL     1      43.353 -17.666   4.959  1.00  0.00     0.001 A 
HETATM   18  C   UNL     1      44.002 -19.836   5.896  1.00  0.00     0.030 A 
HETATM   19  C   UNL     1      42.960 -17.253   6.254  1.00  0.00     0.014 A 
HETATM   20  C   UNL     1      43.081 -18.126   7.339  1.00  0.00     0.001 A 
HETATM   21  C   UNL     1      43.592 -19.404   7.159  1.00  0.00     0.002 A 
ENDBRANCH   1  11
BRANCH   2  22
HETATM   22  C   UNL     1      40.745 -16.509   1.940  1.00  0.00     0.229 C 
BRANCH  22  23
HETATM   23  C   UNL     1      40.665 -15.777   0.600  1.00  0.00     0.235 C 
HETATM   24  N   UNL     1      39.647 -14.855   0.513  1.00  0.00    -0.357 N 
HETATM   25  H   UNL     1      38.928 -14.863   1.231  1.00  0.00     0.162 HD
HETATM   26  O   UNL     1      41.394 -16.058  -0.348  1.00  0.00    -0.272 OA
BRANCH  24  27
HETATM   27  C   UNL     1      39.406 -14.058  -0.675  1.00  0.00     0.154 C 
BRANCH  27  28
HETATM   28  C   UNL     1      40.049 -12.664  -0.644  1.00  0.00     0.139 C 
HETATM   29  O   UNL     1      41.300 -12.696  -1.363  1.00  0.00    -0.384 OA
HETATM   30  C   UNL     1      42.311 -12.119  -0.527  1.00  0.00     0.168 C 
HETATM   31  C   UNL     1      41.827 -12.285   0.894  1.00  0.00     0.029 C 
HETATM   32  C   UNL     1      40.338 -12.101   0.742  1.00  0.00     0.035 C 
ENDBRANCH  27  28
ENDBRANCH  24  27
ENDBRANCH  22  23
ENDBRANCH   2  22
TORSDOF 5
ENDMDL
MODEL 5
REMARK VINA RESULT:      -8.5      4.859      8.763
REMARK  5 active torsions:
REMARK  status: ('A' for Active; 'I' for Inactive)
REMARK    1  A    between atoms: C_7  and  C_8 
REMARK    2  A    between atoms: N_9  and  C_10 
REMARK    3  A    between atoms: C_10  and  C_11 
REMARK       I    between atoms: C_11  and  N_12 
REMARK    4  A    between atoms: N_12  and  C_13 
REMARK    5  A    between atoms: C_13  and  C_14 
ROOT
HETATM    1  C   UNL     1      41.772 -13.207  -0.323  1.00  0.00     0.158 A 
HETATM    2  N   UNL     1      41.417 -14.348  -1.151  1.00  0.00    -0.326 N 
HETATM    3  C   UNL     1      41.648 -14.114  -2.491  1.00  0.00     0.255 A 
HETATM    4  O   UNL     1      41.533 -14.891  -3.419  1.00  0.00    -0.267 OA
HETATM    5  C   UNL     1      42.073 -12.711  -2.611  1.00  0.00     0.040 A 
HETATM    6  C   UNL     1      42.113 -12.153  -1.332  1.00  0.00    -0.015 A 
HETATM    7  C   UNL     1      42.399 -11.997  -3.749  1.00  0.00     0.017 A 
HETATM    8  C   UNL     1      42.788 -10.666  -3.582  1.00  0.00     0.001 A 
HETATM    9  C   UNL     1      42.841 -10.090  -2.299  1.00  0.00     0.001 A 
HETATM   10  C   UNL     1      42.508 -10.834  -1.162  1.00  0.00     0.011 A 
ENDROOT
BRANCH   1  11
HETATM   11  C   UNL     1      40.662 -12.706   0.545  1.00  0.00     0.004 A 
HETATM   12  C   UNL     1      40.753 -12.507   1.922  1.00  0.00     0.017 A 
HETATM   13  C   UNL     1      41.911 -12.693   2.845  1.00  0.00     0.069 C 
HETATM   14  N   UNL     1      39.519 -12.093   2.376  1.00  0.00    -0.354 N 
HETATM   15  C   UNL     1      39.217 -11.803   3.763  1.00  0.00     0.156 C 
HETATM   16  C   UNL     1      38.618 -12.025   1.334  1.00  0.00     0.045 A 
HETATM   17  C   UNL     1      39.311 -12.373   0.171  1.00  0.00     0.001 A 
HETATM   18  C   UNL     1      37.251 -11.694   1.315  1.00  0.00     0.030 A 
HETATM   19  C   UNL     1      38.603 -12.368  -1.053  1.00  0.00     0.014 A 
HETATM   20  C   UNL     1      37.244 -12.039  -1.080  1.00  0.00     0.001 A 
HETATM   21  C   UNL     1      36.577 -11.711   0.093  1.00  0.00     0.002 A 
ENDBRANCH   1  11
BRANCH   2  22
HETATM   22  C   UNL     1      40.958 -15.614  -0.589  1.00  0.00     0.229 C 
BRANCH  22  23
HETATM   23  C   UNL     1      41.810 -16.082   0.590  1.00  0.00     0.235 C 
HETATM   24  N   UNL     1      42.892 -16.859   0.241  1.00  0.00    -0.357 N 
HETATM   25  H   UNL     1      42.938 -17.220  -0.708  1.00  0.00     0.162 HD
HETATM   26  O   UNL     1      41.499 -15.859   1.757  1.00  0.00    -0.272 OA
BRANCH  24  27
HETATM   27  C   UNL     1      43.821 -17.400   1.216  1.00  0.00     0.154 C 
BRANCH  27  28
HETATM   28  C   UNL     1      43.210 -18.438   2.166  1.00  0.00     0.139 C 
HETATM   29  O   UNL     1      43.621 -18.152   3.520  1.00  0.00    -0.384 OA
HETATM   30  C   UNL     1      44.141 -19.358   4.093  1.00  0.00     0.168 C 
HETATM   31  C   UNL     1      44.602 -20.210   2.935  1.00  0.00     0.029 C 
HETATM   32  C   UNL     1      43.573 -19.890   1.880  1.00  0.00     0.035 C 
ENDBRANCH  27  28
ENDBRANCH  24  27
ENDBRANCH  22  23
ENDBRANCH   2  22
TORSDOF 5
ENDMDL
MODEL 6
REMARK VINA RESULT:      -8.4      3.298      8.274
REMARK  5 active torsions:
REMARK  status: ('A' for Active; 'I' for Inactive)
REMARK    1  A    between atoms: C_7  and  C_8 
REMARK    2  A    between atoms: N_9  and  C_10 
REMARK    3  A    between atoms: C_10  and  C_11 
REMARK       I    between atoms: C_11  and  N_12 
REMARK    4  A    between atoms: N_12  and  C_13 
REMARK    5  A    between atoms: C_13  and  C_14 
ROOT
HETATM    1  C   UNL     1      41.993 -16.609   3.692  1.00  0.00     0.158 A 
HETATM    2  N   UNL     1      42.789 -16.488   2.481  1.00  0.00    -0.326 N 
HETATM    3  C   UNL     1      43.774 -17.451   2.404  1.00  0.00     0.255 A 
HETATM    4  O   UNL     1      44.543 -17.667   1.488  1.00  0.00    -0.267 OA
HETATM    5  C   UNL     1      43.735 -18.202   3.669  1.00  0.00     0.040 A 
HETATM    6  C   UNL     1      42.705 -17.684   4.455  1.00  0.00    -0.015 A 
HETATM    7  C   UNL     1      44.536 -19.250   4.082  1.00  0.00     0.017 A 
HETATM    8  C   UNL     1      44.276 -19.800   5.339  1.00  0.00     0.001 A 
HETATM    9  C   UNL     1      43.237 -19.295   6.141  1.00  0.00     0.001 A 
HETATM   10  C   UNL     1      42.439 -18.233   5.701  1.00  0.00     0.011 A 
ENDROOT
BRANCH   1  11
HETATM   11  C   UNL     1      41.949 -15.369   4.526  1.00  0.00     0.004 A 
HETATM   12  C   UNL     1      40.943 -14.404   4.470  1.00  0.00     0.017 A 
HETATM   13  C   UNL     1      39.701 -14.358   3.642  1.00  0.00     0.069 C 
HETATM   14  N   UNL     1      41.275 -13.390   5.342  1.00  0.00    -0.354 N 
HETATM   15  C   UNL     1      40.478 -12.198   5.547  1.00  0.00     0.156 C 
HETATM   16  C   UNL     1      42.476 -13.660   5.962  1.00  0.00     0.045 A 
HETATM   17  C   UNL     1      42.908 -14.905   5.495  1.00  0.00     0.001 A 
HETATM   18  C   UNL     1      43.226 -12.913   6.889  1.00  0.00     0.030 A 
HETATM   19  C   UNL     1      44.127 -15.419   5.997  1.00  0.00     0.014 A 
HETATM   20  C   UNL     1      44.876 -14.682   6.918  1.00  0.00     0.001 A 
HETATM   21  C   UNL     1      44.432 -13.441   7.355  1.00  0.00     0.002 A 
ENDBRANCH   1  11
BRANCH   2  22
HETATM   22  C   UNL     1      42.496 -15.507   1.442  1.00  0.00     0.229 C 
BRANCH  22  23
HETATM   23  C   UNL     1      41.694 -16.094   0.281  1.00  0.00     0.235 C 
HETATM   24  N   UNL     1      41.633 -15.291  -0.835  1.00  0.00    -0.357 N 
HETATM   25  H   UNL     1      41.937 -14.325  -0.750  1.00  0.00     0.162 HD
HETATM   26  O   UNL     1      41.081 -17.155   0.374  1.00  0.00    -0.272 OA
BRANCH  24  27
HETATM   27  C   UNL     1      40.921 -15.671  -2.042  1.00  0.00     0.154 C 
BRANCH  27  28
HETATM   28  C   UNL     1      40.111 -14.537  -2.683  1.00  0.00     0.139 C 
HETATM   29  O   UNL     1      39.348 -13.856  -1.665  1.00  0.00    -0.384 OA
HETATM   30  C   UNL     1      37.987 -13.773  -2.106  1.00  0.00     0.168 C 
HETATM   31  C   UNL     1      37.793 -14.905  -3.087  1.00  0.00     0.029 C 
HETATM   32  C   UNL     1      39.134 -14.958  -3.774  1.00  0.00     0.035 C 
ENDBRANCH  27  28
ENDBRANCH  24  27
ENDBRANCH  22  23
ENDBRANCH   2  22
TORSDOF 5
ENDMDL
MODEL 7
REMARK VINA RESULT:      -8.2      2.557      6.832
REMARK  5 active torsions:
REMARK  status: ('A' for Active; 'I' for Inactive)
REMARK    1  A    between atoms: C_7  and  C_8 
REMARK    2  A    between atoms: N_9  and  C_10 
REMARK    3  A    between atoms: C_10  and  C_11 
REMARK       I    between atoms: C_11  and  N_12 
REMARK    4  A    between atoms: N_12  and  C_13 
REMARK    5  A    between atoms: C_13  and  C_14 
ROOT
HETATM    1  C   UNL     1      43.167 -16.291   4.525  1.00  0.00     0.158 A 
HETATM    2  N   UNL     1      41.763 -15.951   4.361  1.00  0.00    -0.326 N 
HETATM    3  C   UNL     1      41.419 -14.802   5.044  1.00  0.00     0.255 A 
HETATM    4  O   UNL     1      40.354 -14.217   5.040  1.00  0.00    -0.267 OA
HETATM    5  C   UNL     1      42.607 -14.390   5.808  1.00  0.00     0.040 A 
HETATM    6  C   UNL     1      43.638 -15.291   5.536  1.00  0.00    -0.015 A 
HETATM    7  C   UNL     1      42.760 -13.315   6.663  1.00  0.00     0.017 A 
HETATM    8  C   UNL     1      44.011 -13.141   7.258  1.00  0.00     0.001 A 
HETATM    9  C   UNL     1      45.064 -14.034   6.988  1.00  0.00     0.001 A 
HETATM   10  C   UNL     1      44.885 -15.115   6.118  1.00  0.00     0.011 A 
ENDROOT
BRANCH   1  11
HETATM   11  C   UNL     1      43.410 -17.668   5.055  1.00  0.00     0.004 A 
HETATM   12  C   UNL     1      43.245 -18.051   6.386  1.00  0.00     0.017 A 
HETATM   13  C   UNL     1      42.783 -17.258   7.564  1.00  0.00     0.069 C 
HETATM   14  N   UNL     1      43.615 -19.374   6.498  1.00  0.00    -0.354 N 
HETATM   15  C   UNL     1      43.596 -20.123   7.739  1.00  0.00     0.156 C 
HETATM   16  C   UNL     1      44.026 -19.866   5.278  1.00  0.00     0.045 A 
HETATM   17  C   UNL     1      43.881 -18.832   4.349  1.00  0.00     0.001 A 
HETATM   18  C   UNL     1      44.520 -21.131   4.911  1.00  0.00     0.030 A 
HETATM   19  C   UNL     1      44.228 -19.091   3.003  1.00  0.00     0.014 A 
HETATM   20  C   UNL     1      44.721 -20.345   2.631  1.00  0.00     0.001 A 
HETATM   21  C   UNL     1      44.868 -21.351   3.577  1.00  0.00     0.002 A 
ENDBRANCH   1  11
BRANCH   2  22
HETATM   22  C   UNL     1      40.867 -16.707   3.492  1.00  0.00     0.229 C 
BRANCH  22  23
HETATM   23  C   UNL     1      41.298 -16.675   2.026  1.00  0.00     0.235 C 
HETATM   24  N   UNL     1      41.431 -15.411   1.496  1.00  0.00    -0.357 N 
HETATM   25  H   UNL     1      41.060 -14.627   2.025  1.00  0.00     0.162 HD
HETATM   26  O   UNL     1      41.423 -17.696   1.354  1.00  0.00    -0.272 OA
BRANCH  24  27
HETATM   27  C   UNL     1      41.831 -15.171   0.122  1.00  0.00     0.154 C 
BRANCH  27  28
HETATM   28  C   UNL     1      40.664 -15.066  -0.869  1.00  0.00     0.139 C 
HETATM   29  O   UNL     1      40.934 -15.898  -2.017  1.00  0.00    -0.384 OA
HETATM   30  C   UNL     1      40.739 -15.107  -3.197  1.00  0.00     0.168 C 
HETATM   31  C   UNL     1      40.938 -13.670  -2.779  1.00  0.00     0.029 C 
HETATM   32  C   UNL     1      40.360 -13.666  -1.385  1.00  0.00     0.035 C 
ENDBRANCH  27  28
ENDBRANCH  24  27
ENDBRANCH  22  23
ENDBRANCH   2  22
TORSDOF 5
ENDMDL
MODEL 8
REMARK VINA RESULT:      -8.1      2.238      5.209
REMARK  5 active torsions:
REMARK  status: ('A' for Active; 'I' for Inactive)
REMARK    1  A    between atoms: C_7  and  C_8 
REMARK    2  A    between atoms: N_9  and  C_10 
REMARK    3  A    between atoms: C_10  and  C_11 
REMARK       I    between atoms: C_11  and  N_12 
REMARK    4  A    between atoms: N_12  and  C_13 
REMARK    5  A    between atoms: C_13  and  C_14 
ROOT
HETATM    1  C   UNL     1      42.977 -15.191   2.968  1.00  0.00     0.158 A 
HETATM    2  N   UNL     1      42.884 -15.398   4.404  1.00  0.00    -0.326 N 
HETATM    3  C   UNL     1      43.179 -16.697   4.766  1.00  0.00     0.255 A 
HETATM    4  O   UNL     1      43.269 -17.162   5.885  1.00  0.00    -0.267 OA
HETATM    5  C   UNL     1      43.375 -17.452   3.518  1.00  0.00     0.040 A 
HETATM    6  C   UNL     1      43.219 -16.574   2.444  1.00  0.00    -0.015 A 
HETATM    7  C   UNL     1      43.667 -18.793   3.351  1.00  0.00     0.017 A 
HETATM    8  C   UNL     1      43.816 -19.259   2.043  1.00  0.00     0.001 A 
HETATM    9  C   UNL     1      43.671 -18.386   0.950  1.00  0.00     0.001 A 
HETATM   10  C   UNL     1      43.376 -17.032   1.144  1.00  0.00     0.011 A 
ENDROOT
BRANCH   1  11
HETATM   11  C   UNL     1      41.734 -14.646   2.341  1.00  0.00     0.004 A 
HETATM   12  C   UNL     1      40.497 -15.289   2.331  1.00  0.00     0.017 A 
HETATM   13  C   UNL     1      40.088 -16.595   2.928  1.00  0.00     0.069 C 
HETATM   14  N   UNL     1      39.614 -14.507   1.618  1.00  0.00    -0.354 N 
HETATM   15  C   UNL     1      38.229 -14.856   1.374  1.00  0.00     0.156 C 
HETATM   16  C   UNL     1      40.242 -13.371   1.152  1.00  0.00     0.045 A 
HETATM   17  C   UNL     1      41.562 -13.414   1.613  1.00  0.00     0.001 A 
HETATM   18  C   UNL     1      39.767 -12.312   0.358  1.00  0.00     0.030 A 
HETATM   19  C   UNL     1      42.421 -12.343   1.277  1.00  0.00     0.014 A 
HETATM   20  C   UNL     1      41.955 -11.287   0.488  1.00  0.00     0.001 A 
HETATM   21  C   UNL     1      40.644 -11.276   0.031  1.00  0.00     0.002 A 
ENDBRANCH   1  11
BRANCH   2  22
HETATM   22  C   UNL     1      42.597 -14.315   5.337  1.00  0.00     0.229 C 
BRANCH  22  23
HETATM   23  C   UNL     1      43.845 -13.811   6.062  1.00  0.00     0.235 C 
HETATM   24  N   UNL     1      43.643 -13.478   7.383  1.00  0.00    -0.357 N 
HETATM   25  H   UNL     1      42.687 -13.401   7.719  1.00  0.00     0.162 HD
HETATM   26  O   UNL     1      44.914 -13.632   5.485  1.00  0.00    -0.272 OA
BRANCH  24  27
HETATM   27  C   UNL     1      44.703 -12.982   8.241  1.00  0.00     0.154 C 
BRANCH  27  28
HETATM   28  C   UNL     1      44.418 -11.612   8.872  1.00  0.00     0.139 C 
HETATM   29  O   UNL     1      45.664 -10.921   9.103  1.00  0.00    -0.384 OA
HETATM   30  C   UNL     1      45.677 -10.464  10.461  1.00  0.00     0.168 C 
HETATM   31  C   UNL     1      44.738 -11.372  11.219  1.00  0.00     0.029 C 
HETATM   32  C   UNL     1      43.664 -11.640  10.195  1.00  0.00     0.035 C 
ENDBRANCH  27  28
ENDBRANCH  24  27
ENDBRANCH  22  23
ENDBRANCH   2  22
TORSDOF 5
ENDMDL
MODEL 9
REMARK VINA RESULT:      -8.1      4.032      7.623
REMARK  5 active torsions:
REMARK  status: ('A' for Active; 'I' for Inactive)
REMARK    1  A    between atoms: C_7  and  C_8 
REMARK    2  A    between atoms: N_9  and  C_10 
REMARK    3  A    between atoms: C_10  and  C_11 
REMARK       I    between atoms: C_11  and  N_12 
REMARK    4  A    between atoms: N_12  and  C_13 
REMARK    5  A    between atoms: C_13  and  C_14 
ROOT
HETATM    1  C   UNL     1      41.925 -13.864   0.276  1.00  0.00     0.158 A 
HETATM    2  N   UNL     1      41.248 -15.033  -0.262  1.00  0.00    -0.326 N 
HETATM    3  C   UNL     1      41.138 -14.988  -1.637  1.00  0.00     0.255 A 
HETATM    4  O   UNL     1      40.702 -15.842  -2.384  1.00  0.00    -0.267 OA
HETATM    5  C   UNL     1      41.661 -13.680  -2.063  1.00  0.00     0.040 A 
HETATM    6  C   UNL     1      42.095 -12.990  -0.930  1.00  0.00    -0.015 A 
HETATM    7  C   UNL     1      41.746 -13.153  -3.338  1.00  0.00     0.017 A 
HETATM    8  C   UNL     1      42.302 -11.878  -3.469  1.00  0.00     0.001 A 
HETATM    9  C   UNL     1      42.752 -11.173  -2.338  1.00  0.00     0.001 A 
HETATM   10  C   UNL     1      42.656 -11.728  -1.058  1.00  0.00     0.011 A 
ENDROOT
BRANCH   1  11
HETATM   11  C   UNL     1      41.143 -13.118   1.309  1.00  0.00     0.004 A 
HETATM   12  C   UNL     1      41.546 -12.924   2.629  1.00  0.00     0.017 A 
HETATM   13  C   UNL     1      42.798 -13.348   3.324  1.00  0.00     0.069 C 
HETATM   14  N   UNL     1      40.544 -12.242   3.286  1.00  0.00    -0.354 N 
HETATM   15  C   UNL     1      40.593 -11.872   4.686  1.00  0.00     0.156 C 
HETATM   16  C   UNL     1      39.490 -11.993   2.433  1.00  0.00     0.045 A 
HETATM   17  C   UNL     1      39.847 -12.502   1.181  1.00  0.00     0.001 A 
HETATM   18  C   UNL     1      38.249 -11.370   2.656  1.00  0.00     0.030 A 
HETATM   19  C   UNL     1      38.927 -12.359   0.116  1.00  0.00     0.014 A 
HETATM   20  C   UNL     1      37.692 -11.740   0.331  1.00  0.00     0.001 A 
HETATM   21  C   UNL     1      37.357 -11.256   1.588  1.00  0.00     0.002 A 
ENDBRANCH   1  11
BRANCH   2  22
HETATM   22  C   UNL     1      40.824 -16.150   0.575  1.00  0.00     0.229 C 
BRANCH  22  23
HETATM   23  C   UNL     1      41.994 -16.850   1.265  1.00  0.00     0.235 C 
HETATM   24  N   UNL     1      41.877 -16.945   2.633  1.00  0.00    -0.357 N 
HETATM   25  H   UNL     1      41.156 -16.396   3.093  1.00  0.00     0.162 HD
HETATM   26  O   UNL     1      42.996 -17.214   0.655  1.00  0.00    -0.272 OA
BRANCH  24  27
HETATM   27  C   UNL     1      42.882 -17.576   3.469  1.00  0.00     0.154 C 
BRANCH  27  28
HETATM   28  C   UNL     1      42.376 -18.008   4.852  1.00  0.00     0.139 C 
HETATM   29  O   UNL     1      40.993 -17.623   4.999  1.00  0.00    -0.384 OA
HETATM   30  C   UNL     1      40.855 -16.916   6.239  1.00  0.00     0.168 C 
HETATM   31  C   UNL     1      42.219 -16.350   6.555  1.00  0.00     0.029 C 
HETATM   32  C   UNL     1      43.135 -17.433   6.041  1.00  0.00     0.035 C 
ENDBRANCH  27  28
ENDBRANCH  24  27
ENDBRANCH  22  23
ENDBRANCH   2  22
TORSDOF 5
ENDMDL
MODEL 10
REMARK VINA RESULT:      -8.0      4.414      8.520
REMARK  5 active torsions:
REMARK  status: ('A' for Active; 'I' for Inactive)
REMARK    1  A    between atoms: C_7  and  C_8 
REMARK    2  A    between atoms: N_9  and  C_10 
REMARK    3  A    between atoms: C_10  and  C_11 
REMARK       I    between atoms: C_11  and  N_12 
REMARK    4  A    between atoms: N_12  and  C_13 
REMARK    5  A    between atoms: C_13  and  C_14 
ROOT
HETATM    1  C   UNL     1      40.889 -13.194   1.327  1.00  0.00     0.158 A 
HETATM    2  N   UNL     1      40.416 -14.454   0.776  1.00  0.00    -0.326 N 
HETATM    3  C   UNL     1      40.902 -14.685  -0.494  1.00  0.00     0.255 A 
HETATM    4  O   UNL     1      40.760 -15.676  -1.184  1.00  0.00    -0.267 OA
HETATM    5  C   UNL     1      41.652 -13.482  -0.888  1.00  0.00     0.040 A 
HETATM    6  C   UNL     1      41.617 -12.575   0.172  1.00  0.00    -0.015 A 
HETATM    7  C   UNL     1      42.307 -13.217  -2.077  1.00  0.00     0.017 A 
HETATM    8  C   UNL     1      42.960 -11.988  -2.190  1.00  0.00     0.001 A 
HETATM    9  C   UNL     1      42.942 -11.066  -1.127  1.00  0.00     0.001 A 
HETATM   10  C   UNL     1      42.272 -11.358   0.067  1.00  0.00     0.011 A 
ENDROOT
BRANCH   1  11
HETATM   11  C   UNL     1      39.801 -12.267   1.767  1.00  0.00     0.004 A 
HETATM   12  C   UNL     1      39.777 -11.586   2.983  1.00  0.00     0.017 A 
HETATM   13  C   UNL     1      40.774 -11.568   4.095  1.00  0.00     0.069 C 
HETATM   14  N   UNL     1      38.597 -10.876   3.052  1.00  0.00    -0.354 N 
HETATM   15  C   UNL     1      38.203 -10.056   4.180  1.00  0.00     0.156 C 
HETATM   16  C   UNL     1      37.843 -11.081   1.916  1.00  0.00     0.045 A 
HETATM   17  C   UNL     1      38.582 -11.923   1.080  1.00  0.00     0.001 A 
HETATM   18  C   UNL     1      36.570 -10.605   1.554  1.00  0.00     0.030 A 
HETATM   19  C   UNL     1      38.025 -12.278  -0.171  1.00  0.00     0.014 A 
HETATM   20  C   UNL     1      36.760 -11.808  -0.537  1.00  0.00     0.001 A 
HETATM   21  C   UNL     1      36.040 -10.985   0.318  1.00  0.00     0.002 A 
ENDBRANCH   1  11
BRANCH   2  22
HETATM   22  C   UNL     1      39.596 -15.387   1.541  1.00  0.00     0.229 C 
BRANCH  22  23
HETATM   23  C   UNL     1      40.407 -16.541   2.132  1.00  0.00     0.235 C 
HETATM   24  N   UNL     1      41.024 -16.252   3.327  1.00  0.00    -0.357 N 
HETATM   25  H   UNL     1      41.067 -15.281   3.625  1.00  0.00     0.162 HD
HETATM   26  O   UNL     1      40.565 -17.605   1.539  1.00  0.00    -0.272 OA
BRANCH  24  27
HETATM   27  C   UNL     1      41.837 -17.215   4.047  1.00  0.00     0.154 C 
BRANCH  27  28
HETATM   28  C   UNL     1      43.310 -17.249   3.617  1.00  0.00     0.139 C 
HETATM   29  O   UNL     1      43.497 -16.382   2.478  1.00  0.00    -0.384 OA
HETATM   30  C   UNL     1      44.188 -17.121   1.463  1.00  0.00     0.168 C 
HETATM   31  C   UNL     1      43.896 -18.578   1.730  1.00  0.00     0.029 C 
HETATM   32  C   UNL     1      43.855 -18.620   3.237  1.00  0.00     0.035 C 
ENDBRANCH  27  28
ENDBRANCH  24  27
ENDBRANCH  22  23
ENDBRANCH   2  22
TORSDOF 5
ENDMDL
