MODEL 1
REMARK VINA RESULT:      -9.0      0.000      0.000
REMARK  4 active torsions:
REMARK  status: ('A' for Active; 'I' for Inactive)
REMARK    1  A    between atoms: C_6  and  N_7 
REMARK       I    between atoms: N_7  and  C_8 
REMARK    2  A    between atoms: C_8  and  C_9 
REMARK    3  A    between atoms: C_10  and  C_11 
REMARK    4  A    between atoms: C_14  and  O_15 
ROOT
HETATM    1  C   UNL     1      41.971 -14.829   4.930  1.00  0.00     0.131 C 
HETATM    2  C   UNL     1      41.526 -13.654   4.019  1.00  0.00     0.177 C 
HETATM    3  N   UNL     1      40.491 -12.871   4.687  1.00  0.00    -0.088 N 
HETATM    4  C   UNL     1      39.739 -13.306   5.741  1.00  0.00     0.721 A 
HETATM    5  N   UNL     1      39.938 -14.514   6.297  1.00  0.00    -0.218 N 
HETATM    6  C   UNL     1      40.780 -15.515   5.645  1.00  0.00     0.111 C 
HETATM    7  C   UNL     1      41.255 -16.480   6.741  1.00  0.00     0.034 C 
HETATM    8  N   UNL     1      40.236 -11.578   4.399  1.00  0.00    -0.149 NA
HETATM    9  C   UNL     1      39.236 -11.332   5.254  1.00  0.00     0.275 A 
HETATM   10  N   UNL     1      38.908 -12.362   6.094  1.00  0.00    -0.055 NA
HETATM   11  H   UNL     1      39.206 -14.853   6.918  1.00  0.00     0.178 HD
ENDROOT
BRANCH   1  12
HETATM   12  C   UNL     1      42.840 -15.816   4.163  1.00  0.00     0.230 C 
HETATM   13  N   UNL     1      42.330 -17.105   4.176  1.00  0.00    -0.326 N 
HETATM   14  H   UNL     1      41.423 -17.235   4.603  1.00  0.00     0.169 HD
HETATM   15  O   UNL     1      43.871 -15.447   3.611  1.00  0.00    -0.273 OA
BRANCH  13  16
HETATM   16  C   UNL     1      42.899 -18.270   3.603  1.00  0.00     0.040 A 
HETATM   17  C   UNL     1      42.552 -18.615   2.279  1.00  0.00    -0.035 A 
HETATM   18  C   UNL     1      43.116 -19.764   1.690  1.00  0.00     0.015 A 
HETATM   19  C   UNL     1      41.597 -17.796   1.451  1.00  0.00     0.050 C 
HETATM   20  C   UNL     1      44.002 -20.582   2.397  1.00  0.00    -0.061 A 
HETATM   21  C   UNL     1      44.626 -21.782   1.750  1.00  0.00     0.048 C 
HETATM   22  C   UNL     1      44.340 -20.231   3.703  1.00  0.00     0.009 A 
HETATM   23  C   UNL     1      43.789 -19.093   4.301  1.00  0.00     0.030 A 
ENDBRANCH  13  16
ENDBRANCH   1  12
BRANCH   2  24
HETATM   24  C   UNL     1      41.115 -13.928   2.574  1.00  0.00    -0.032 A 
HETATM   25  C   UNL     1      39.916 -14.549   2.204  1.00  0.00     0.012 A 
HETATM   26  C   UNL     1      39.605 -14.761   0.856  1.00  0.00     0.037 A 
HETATM   27  C   UNL     1      40.469 -14.347  -0.157  1.00  0.00     0.068 A 
HETATM   28  C   UNL     1      41.656 -13.711   0.192  1.00  0.00     0.037 A 
HETATM   29  C   UNL     1      41.972 -13.505   1.540  1.00  0.00     0.012 A 
BRANCH  27  30
HETATM   30  O   UNL     1      40.038 -14.616  -1.426  1.00  0.00    -0.356 OA
HETATM   31  C   UNL     1      40.869 -15.452  -2.222  1.00  0.00     0.210 C 
ENDBRANCH  27  30
ENDBRANCH   2  24
TORSDOF 4
ENDMDL
MODEL 2
REMARK VINA RESULT:      -8.1      2.344      4.695
REMARK  4 active torsions:
REMARK  status: ('A' for Active; 'I' for Inactive)
REMARK    1  A    between atoms: C_6  and  N_7 
REMARK       I    between atoms: N_7  and  C_8 
REMARK    2  A    between atoms: C_8  and  C_9 
REMARK    3  A    between atoms: C_10  and  C_11 
REMARK    4  A    between atoms: C_14  and  O_15 
ROOT
HETATM    1  C   UNL     1      40.224 -15.067   1.202  1.00  0.00     0.131 C 
HETATM    2  C   UNL     1      39.982 -13.934   2.235  1.00  0.00     0.177 C 
HETATM    3  N   UNL     1      39.868 -12.651   1.549  1.00  0.00    -0.088 N 
HETATM    4  C   UNL     1      40.302 -12.403   0.278  1.00  0.00     0.721 A 
HETATM    5  N   UNL     1      40.839 -13.370  -0.484  1.00  0.00    -0.218 N 
HETATM    6  C   UNL     1      41.223 -14.658   0.090  1.00  0.00     0.111 C 
HETATM    7  C   UNL     1      41.238 -15.675  -1.061  1.00  0.00     0.034 C 
HETATM    8  N   UNL     1      39.218 -11.588   2.065  1.00  0.00    -0.149 NA
HETATM    9  C   UNL     1      39.397 -10.695   1.085  1.00  0.00     0.275 A 
HETATM   10  N   UNL     1      40.050 -11.157  -0.026  1.00  0.00    -0.055 NA
HETATM   11  H   UNL     1      41.336 -13.066  -1.320  1.00  0.00     0.178 HD
ENDROOT
BRANCH   1  12
HETATM   12  C   UNL     1      40.619 -16.363   1.895  1.00  0.00     0.230 C 
HETATM   13  N   UNL     1      41.933 -16.358   2.338  1.00  0.00    -0.326 N 
HETATM   14  H   UNL     1      42.448 -15.495   2.236  1.00  0.00     0.169 HD
HETATM   15  O   UNL     1      39.813 -17.279   2.021  1.00  0.00    -0.273 OA
BRANCH  13  16
HETATM   16  C   UNL     1      42.637 -17.407   2.981  1.00  0.00     0.040 A 
HETATM   17  C   UNL     1      43.527 -18.195   2.219  1.00  0.00    -0.035 A 
HETATM   18  C   UNL     1      44.242 -19.236   2.844  1.00  0.00     0.015 A 
HETATM   19  C   UNL     1      43.755 -17.968   0.748  1.00  0.00     0.050 C 
HETATM   20  C   UNL     1      44.077 -19.516   4.204  1.00  0.00    -0.061 A 
HETATM   21  C   UNL     1      44.870 -20.601   4.868  1.00  0.00     0.048 C 
HETATM   22  C   UNL     1      43.198 -18.731   4.947  1.00  0.00     0.009 A 
HETATM   23  C   UNL     1      42.482 -17.694   4.341  1.00  0.00     0.030 A 
ENDBRANCH  13  16
ENDBRANCH   1  12
BRANCH   2  24
HETATM   24  C   UNL     1      40.911 -13.795   3.440  1.00  0.00    -0.032 A 
HETATM   25  C   UNL     1      42.224 -13.316   3.367  1.00  0.00     0.012 A 
HETATM   26  C   UNL     1      43.014 -13.211   4.518  1.00  0.00     0.037 A 
HETATM   27  C   UNL     1      42.513 -13.563   5.770  1.00  0.00     0.068 A 
HETATM   28  C   UNL     1      41.203 -14.022   5.864  1.00  0.00     0.037 A 
HETATM   29  C   UNL     1      40.414 -14.135   4.713  1.00  0.00     0.012 A 
BRANCH  27  30
HETATM   30  O   UNL     1      43.391 -13.409   6.806  1.00  0.00    -0.356 OA
HETATM   31  C   UNL     1      44.630 -14.098   6.705  1.00  0.00     0.210 C 
ENDBRANCH  27  30
ENDBRANCH   2  24
TORSDOF 4
ENDMDL
MODEL 3
REMARK VINA RESULT:      -7.9      2.638      5.018
REMARK  4 active torsions:
REMARK  status: ('A' for Active; 'I' for Inactive)
REMARK    1  A    between atoms: C_6  and  N_7 
REMARK       I    between atoms: N_7  and  C_8 
REMARK    2  A    between atoms: C_8  and  C_9 
REMARK    3  A    between atoms: C_10  and  C_11 
REMARK    4  A    between atoms: C_14  and  O_15 
ROOT
HETATM    1  C   UNL     1      41.771 -14.070   2.763  1.00  0.00     0.131 C 
HETATM    2  C   UNL     1      42.213 -14.807   1.471  1.00  0.00     0.177 C 
HETATM    3  N   UNL     1      41.239 -14.578   0.409  1.00  0.00    -0.088 N 
HETATM    4  C   UNL     1      39.958 -14.145   0.604  1.00  0.00     0.721 A 
HETATM    5  N   UNL     1      39.497 -13.836   1.828  1.00  0.00    -0.218 N 
HETATM    6  C   UNL     1      40.249 -14.192   3.029  1.00  0.00     0.111 C 
HETATM    7  C   UNL     1      39.790 -13.239   4.143  1.00  0.00     0.034 C 
HETATM    8  N   UNL     1      41.535 -14.668  -0.904  1.00  0.00    -0.149 NA
HETATM    9  C   UNL     1      40.344 -14.379  -1.442  1.00  0.00     0.275 A 
HETATM   10  N   UNL     1      39.357 -14.048  -0.553  1.00  0.00    -0.055 NA
HETATM   11  H   UNL     1      38.488 -13.739   1.921  1.00  0.00     0.178 HD
ENDROOT
BRANCH   1  12
HETATM   12  C   UNL     1      42.610 -14.508   3.956  1.00  0.00     0.230 C 
HETATM   13  N   UNL     1      42.325 -15.800   4.368  1.00  0.00    -0.326 N 
HETATM   14  H   UNL     1      41.676 -16.330   3.803  1.00  0.00     0.169 HD
HETATM   15  O   UNL     1      43.438 -13.752   4.453  1.00  0.00    -0.273 OA
BRANCH  13  16
HETATM   16  C   UNL     1      42.883 -16.505   5.465  1.00  0.00     0.040 A 
HETATM   17  C   UNL     1      42.046 -16.850   6.548  1.00  0.00    -0.035 A 
HETATM   18  C   UNL     1      42.581 -17.559   7.641  1.00  0.00     0.015 A 
HETATM   19  C   UNL     1      40.582 -16.495   6.587  1.00  0.00     0.050 C 
HETATM   20  C   UNL     1      43.933 -17.916   7.684  1.00  0.00    -0.061 A 
HETATM   21  C   UNL     1      44.486 -18.702   8.834  1.00  0.00     0.048 C 
HETATM   22  C   UNL     1      44.750 -17.572   6.609  1.00  0.00     0.009 A 
HETATM   23  C   UNL     1      44.232 -16.870   5.516  1.00  0.00     0.030 A 
ENDBRANCH  13  16
ENDBRANCH   1  12
BRANCH   2  24
HETATM   24  C   UNL     1      42.575 -16.290   1.528  1.00  0.00    -0.032 A 
HETATM   25  C   UNL     1      43.887 -16.775   1.573  1.00  0.00     0.012 A 
HETATM   26  C   UNL     1      44.140 -18.151   1.630  1.00  0.00     0.037 A 
HETATM   27  C   UNL     1      43.097 -19.075   1.662  1.00  0.00     0.068 A 
HETATM   28  C   UNL     1      41.787 -18.609   1.639  1.00  0.00     0.037 A 
HETATM   29  C   UNL     1      41.532 -17.234   1.574  1.00  0.00     0.012 A 
BRANCH  27  30
HETATM   30  O   UNL     1      43.489 -20.384   1.720  1.00  0.00    -0.356 OA
HETATM   31  C   UNL     1      44.566 -20.693   2.595  1.00  0.00     0.210 C 
ENDBRANCH  27  30
ENDBRANCH   2  24
TORSDOF 4
ENDMDL
MODEL 4
REMARK VINA RESULT:      -7.9      2.114      3.145
REMARK  4 active torsions:
REMARK  status: ('A' for Active; 'I' for Inactive)
REMARK    1  A    between atoms: C_6  and  N_7 
REMARK       I    between atoms: N_7  and  C_8 
REMARK    2  A    between atoms: C_8  and  C_9 
REMARK    3  A    between atoms: C_10  and  C_11 
REMARK    4  A    between atoms: C_14  and  O_15 
ROOT
HETATM    1  C   UNL     1      41.273 -13.555   2.656  1.00  0.00     0.131 C 
HETATM    2  C   UNL     1      41.463 -12.870   1.276  1.00  0.00     0.177 C 
HETATM    3  N   UNL     1      41.129 -11.453   1.373  1.00  0.00    -0.088 N 
HETATM    4  C   UNL     1      40.389 -10.891   2.374  1.00  0.00     0.721 A 
HETATM    5  N   UNL     1      39.938 -11.619   3.410  1.00  0.00    -0.218 N 
HETATM    6  C   UNL     1      39.993 -13.079   3.388  1.00  0.00     0.111 C 
HETATM    7  C   UNL     1      39.968 -13.550   4.849  1.00  0.00     0.034 C 
HETATM    8  N   UNL     1      41.612 -10.516   0.531  1.00  0.00    -0.149 NA
HETATM    9  C   UNL     1      41.027  -9.420   1.027  1.00  0.00     0.275 A 
HETATM   10  N   UNL     1      40.276  -9.607   2.156  1.00  0.00    -0.055 NA
HETATM   11  H   UNL     1      39.219 -11.188   3.988  1.00  0.00     0.178 HD
ENDROOT
BRANCH   1  12
HETATM   12  C   UNL     1      41.346 -15.070   2.528  1.00  0.00     0.230 C 
HETATM   13  N   UNL     1      42.630 -15.563   2.695  1.00  0.00    -0.326 N 
HETATM   14  H   UNL     1      43.346 -14.901   2.960  1.00  0.00     0.169 HD
HETATM   15  O   UNL     1      40.336 -15.730   2.304  1.00  0.00    -0.273 OA
BRANCH  13  16
HETATM   16  C   UNL     1      43.063 -16.910   2.600  1.00  0.00     0.040 A 
HETATM   17  C   UNL     1      43.359 -17.614   3.787  1.00  0.00    -0.035 A 
HETATM   18  C   UNL     1      43.780 -18.956   3.711  1.00  0.00     0.015 A 
HETATM   19  C   UNL     1      43.238 -16.990   5.152  1.00  0.00     0.050 C 
HETATM   20  C   UNL     1      43.928 -19.603   2.481  1.00  0.00    -0.061 A 
HETATM   21  C   UNL     1      44.341 -21.043   2.412  1.00  0.00     0.048 C 
HETATM   22  C   UNL     1      43.631 -18.900   1.315  1.00  0.00     0.009 A 
HETATM   23  C   UNL     1      43.210 -17.568   1.374  1.00  0.00     0.030 A 
ENDBRANCH  13  16
ENDBRANCH   1  12
BRANCH   2  24
HETATM   24  C   UNL     1      40.807 -13.471   0.034  1.00  0.00    -0.032 A 
HETATM   25  C   UNL     1      39.439 -13.383  -0.251  1.00  0.00     0.012 A 
HETATM   26  C   UNL     1      38.911 -13.955  -1.414  1.00  0.00     0.037 A 
HETATM   27  C   UNL     1      39.730 -14.613  -2.329  1.00  0.00     0.068 A 
HETATM   28  C   UNL     1      41.095 -14.693  -2.072  1.00  0.00     0.037 A 
HETATM   29  C   UNL     1      41.624 -14.128  -0.906  1.00  0.00     0.012 A 
BRANCH  27  30
HETATM   30  O   UNL     1      39.082 -15.121  -3.421  1.00  0.00    -0.356 OA
HETATM   31  C   UNL     1      37.663 -15.041  -3.419  1.00  0.00     0.210 C 
ENDBRANCH  27  30
ENDBRANCH   2  24
TORSDOF 4
ENDMDL
MODEL 5
REMARK VINA RESULT:      -7.9      2.297      4.713
REMARK  4 active torsions:
REMARK  status: ('A' for Active; 'I' for Inactive)
REMARK    1  A    between atoms: C_6  and  N_7 
REMARK       I    between atoms: N_7  and  C_8 
REMARK    2  A    between atoms: C_8  and  C_9 
REMARK    3  A    between atoms: C_10  and  C_11 
REMARK    4  A    between atoms: C_14  and  O_15 
ROOT
HETATM    1  C   UNL     1      40.944 -15.693   2.151  1.00  0.00     0.131 C 
HETATM    2  C   UNL     1      40.954 -14.469   3.104  1.00  0.00     0.177 C 
HETATM    3  N   UNL     1      40.818 -13.237   2.333  1.00  0.00    -0.088 N 
HETATM    4  C   UNL     1      41.054 -13.124   0.992  1.00  0.00     0.721 A 
HETATM    5  N   UNL     1      41.391 -14.188   0.244  1.00  0.00    -0.218 N 
HETATM    6  C   UNL     1      41.773 -15.455   0.864  1.00  0.00     0.111 C 
HETATM    7  C   UNL     1      41.529 -16.555  -0.180  1.00  0.00     0.034 C 
HETATM    8  N   UNL     1      40.336 -12.087   2.848  1.00  0.00    -0.149 NA
HETATM    9  C   UNL     1      40.414 -11.290   1.776  1.00  0.00     0.275 A 
HETATM   10  N   UNL     1      40.842 -11.888   0.622  1.00  0.00    -0.055 NA
HETATM   11  H   UNL     1      41.763 -13.991  -0.683  1.00  0.00     0.178 HD
ENDROOT
BRANCH   1  12
HETATM   12  C   UNL     1      41.356 -16.961   2.886  1.00  0.00     0.230 C 
HETATM   13  N   UNL     1      42.542 -17.498   2.408  1.00  0.00    -0.326 N 
HETATM   14  H   UNL     1      43.037 -16.967   1.706  1.00  0.00     0.169 HD
HETATM   15  O   UNL     1      40.671 -17.408   3.800  1.00  0.00    -0.273 OA
BRANCH  13  16
HETATM   16  C   UNL     1      43.188 -18.687   2.830  1.00  0.00     0.040 A 
HETATM   17  C   UNL     1      43.810 -18.710   4.098  1.00  0.00    -0.035 A 
HETATM   18  C   UNL     1      44.448 -19.886   4.538  1.00  0.00     0.015 A 
HETATM   19  C   UNL     1      43.816 -17.518   5.019  1.00  0.00     0.050 C 
HETATM   20  C   UNL     1      44.494 -21.031   3.736  1.00  0.00    -0.061 A 
HETATM   21  C   UNL     1      45.144 -22.289   4.227  1.00  0.00     0.048 C 
HETATM   22  C   UNL     1      43.876 -20.999   2.487  1.00  0.00     0.009 A 
HETATM   23  C   UNL     1      43.237 -19.839   2.038  1.00  0.00     0.030 A 
ENDBRANCH  13  16
ENDBRANCH   1  12
BRANCH   2  24
HETATM   24  C   UNL     1      42.075 -14.314   4.130  1.00  0.00    -0.032 A 
HETATM   25  C   UNL     1      41.896 -14.445   5.512  1.00  0.00     0.012 A 
HETATM   26  C   UNL     1      42.974 -14.295   6.392  1.00  0.00     0.037 A 
HETATM   27  C   UNL     1      44.258 -14.029   5.919  1.00  0.00     0.068 A 
HETATM   28  C   UNL     1      44.458 -13.916   4.547  1.00  0.00     0.037 A 
HETATM   29  C   UNL     1      43.379 -14.058   3.666  1.00  0.00     0.012 A 
BRANCH  27  30
HETATM   30  O   UNL     1      45.215 -13.910   6.888  1.00  0.00    -0.356 OA
HETATM   31  C   UNL     1      44.830 -13.265   8.095  1.00  0.00     0.210 C 
ENDBRANCH  27  30
ENDBRANCH   2  24
TORSDOF 4
ENDMDL
MODEL 6
REMARK VINA RESULT:      -7.8      2.151      6.478
REMARK  4 active torsions:
REMARK  status: ('A' for Active; 'I' for Inactive)
REMARK    1  A    between atoms: C_6  and  N_7 
REMARK       I    between atoms: N_7  and  C_8 
REMARK    2  A    between atoms: C_8  and  C_9 
REMARK    3  A    between atoms: C_10  and  C_11 
REMARK    4  A    between atoms: C_14  and  O_15 
ROOT
HETATM    1  C   UNL     1      42.440 -18.039   5.132  1.00  0.00     0.131 C 
HETATM    2  C   UNL     1      42.142 -18.416   3.657  1.00  0.00     0.177 C 
HETATM    3  N   UNL     1      43.159 -19.338   3.163  1.00  0.00    -0.088 N 
HETATM    4  C   UNL     1      44.386 -19.527   3.734  1.00  0.00     0.721 A 
HETATM    5  N   UNL     1      44.742 -18.894   4.864  1.00  0.00    -0.218 N 
HETATM    6  C   UNL     1      43.947 -17.786   5.391  1.00  0.00     0.111 C 
HETATM    7  C   UNL     1      44.256 -17.689   6.892  1.00  0.00     0.034 C 
HETATM    8  N   UNL     1      42.955 -20.191   2.138  1.00  0.00    -0.149 NA
HETATM    9  C   UNL     1      44.150 -20.791   2.080  1.00  0.00     0.275 A 
HETATM   10  N   UNL     1      45.049 -20.416   3.041  1.00  0.00    -0.055 NA
HETATM   11  H   UNL     1      45.732 -18.911   5.101  1.00  0.00     0.178 HD
ENDROOT
BRANCH   1  12
HETATM   12  C   UNL     1      41.566 -16.878   5.587  1.00  0.00     0.230 C 
HETATM   13  N   UNL     1      42.015 -15.652   5.122  1.00  0.00    -0.326 N 
HETATM   14  H   UNL     1      42.796 -15.662   4.481  1.00  0.00     0.169 HD
HETATM   15  O   UNL     1      40.579 -17.073   6.289  1.00  0.00    -0.273 OA
BRANCH  13  16
HETATM   16  C   UNL     1      41.470 -14.370   5.386  1.00  0.00     0.040 A 
HETATM   17  C   UNL     1      42.293 -13.394   5.989  1.00  0.00    -0.035 A 
HETATM   18  C   UNL     1      41.770 -12.111   6.250  1.00  0.00     0.015 A 
HETATM   19  C   UNL     1      43.726 -13.661   6.366  1.00  0.00     0.050 C 
HETATM   20  C   UNL     1      40.446 -11.789   5.938  1.00  0.00    -0.061 A 
HETATM   21  C   UNL     1      39.910 -10.411   6.186  1.00  0.00     0.048 C 
HETATM   22  C   UNL     1      39.643 -12.760   5.342  1.00  0.00     0.009 A 
HETATM   23  C   UNL     1      40.148 -14.036   5.075  1.00  0.00     0.030 A 
ENDBRANCH  13  16
ENDBRANCH   1  12
BRANCH   2  24
HETATM   24  C   UNL     1      41.899 -17.314   2.626  1.00  0.00    -0.032 A 
HETATM   25  C   UNL     1      42.919 -16.627   1.958  1.00  0.00     0.012 A 
HETATM   26  C   UNL     1      42.617 -15.633   1.020  1.00  0.00     0.037 A 
HETATM   27  C   UNL     1      41.297 -15.308   0.713  1.00  0.00     0.068 A 
HETATM   28  C   UNL     1      40.271 -15.995   1.353  1.00  0.00     0.037 A 
HETATM   29  C   UNL     1      40.570 -16.985   2.296  1.00  0.00     0.012 A 
BRANCH  27  30
HETATM   30  O   UNL     1      41.149 -14.321  -0.221  1.00  0.00    -0.356 OA
HETATM   31  C   UNL     1      40.753 -14.725  -1.525  1.00  0.00     0.210 C 
ENDBRANCH  27  30
ENDBRANCH   2  24
TORSDOF 4
ENDMDL
MODEL 7
REMARK VINA RESULT:      -7.8      2.531      5.720
REMARK  4 active torsions:
REMARK  status: ('A' for Active; 'I' for Inactive)
REMARK    1  A    between atoms: C_6  and  N_7 
REMARK       I    between atoms: N_7  and  C_8 
REMARK    2  A    between atoms: C_8  and  C_9 
REMARK    3  A    between atoms: C_10  and  C_11 
REMARK    4  A    between atoms: C_14  and  O_15 
ROOT
HETATM    1  C   UNL     1      43.217 -16.452   3.846  1.00  0.00     0.131 C 
HETATM    2  C   UNL     1      43.118 -15.605   5.142  1.00  0.00     0.177 C 
HETATM    3  N   UNL     1      43.187 -16.475   6.312  1.00  0.00    -0.088 N 
HETATM    4  C   UNL     1      42.962 -17.822   6.299  1.00  0.00     0.721 A 
HETATM    5  N   UNL     1      42.702 -18.481   5.157  1.00  0.00    -0.218 N 
HETATM    6  C   UNL     1      42.391 -17.761   3.924  1.00  0.00     0.111 C 
HETATM    7  C   UNL     1      42.717 -18.708   2.759  1.00  0.00     0.034 C 
HETATM    8  N   UNL     1      43.589 -16.054   7.529  1.00  0.00    -0.149 NA
HETATM    9  C   UNL     1      43.476 -17.189   8.228  1.00  0.00     0.275 A 
HETATM   10  N   UNL     1      43.101 -18.292   7.510  1.00  0.00    -0.055 NA
HETATM   11  H   UNL     1      42.330 -19.424   5.252  1.00  0.00     0.178 HD
ENDROOT
BRANCH   1  12
HETATM   12  C   UNL     1      42.875 -15.617   2.620  1.00  0.00     0.230 C 
HETATM   13  N   UNL     1      41.700 -16.020   2.006  1.00  0.00    -0.326 N 
HETATM   14  H   UNL     1      41.165 -16.742   2.466  1.00  0.00     0.169 HD
HETATM   15  O   UNL     1      43.603 -14.695   2.266  1.00  0.00    -0.273 OA
BRANCH  13  16
HETATM   16  C   UNL     1      41.112 -15.495   0.827  1.00  0.00     0.040 A 
HETATM   17  C   UNL     1      40.059 -14.563   0.949  1.00  0.00    -0.035 A 
HETATM   18  C   UNL     1      39.471 -14.024  -0.212  1.00  0.00     0.015 A 
HETATM   19  C   UNL     1      39.531 -14.106   2.284  1.00  0.00     0.050 C 
HETATM   20  C   UNL     1      39.898 -14.406  -1.488  1.00  0.00    -0.061 A 
HETATM   21  C   UNL     1      39.290 -13.799  -2.717  1.00  0.00     0.048 C 
HETATM   22  C   UNL     1      40.939 -15.325  -1.597  1.00  0.00     0.009 A 
HETATM   23  C   UNL     1      41.535 -15.868  -0.454  1.00  0.00     0.030 A 
ENDBRANCH  13  16
ENDBRANCH   1  12
BRANCH   2  24
HETATM   24  C   UNL     1      41.977 -14.604   5.310  1.00  0.00    -0.032 A 
HETATM   25  C   UNL     1      40.663 -14.960   5.634  1.00  0.00     0.012 A 
HETATM   26  C   UNL     1      39.670 -13.983   5.776  1.00  0.00     0.037 A 
HETATM   27  C   UNL     1      39.963 -12.630   5.617  1.00  0.00     0.068 A 
HETATM   28  C   UNL     1      41.268 -12.256   5.314  1.00  0.00     0.037 A 
HETATM   29  C   UNL     1      42.260 -13.232   5.164  1.00  0.00     0.012 A 
BRANCH  27  30
HETATM   30  O   UNL     1      38.899 -11.787   5.786  1.00  0.00    -0.356 OA
HETATM   31  C   UNL     1      38.630 -10.874   4.731  1.00  0.00     0.210 C 
ENDBRANCH  27  30
ENDBRANCH   2  24
TORSDOF 4
ENDMDL
MODEL 8
REMARK VINA RESULT:      -7.4      2.671      5.590
REMARK  4 active torsions:
REMARK  status: ('A' for Active; 'I' for Inactive)
REMARK    1  A    between atoms: C_6  and  N_7 
REMARK       I    between atoms: N_7  and  C_8 
REMARK    2  A    between atoms: C_8  and  C_9 
REMARK    3  A    between atoms: C_10  and  C_11 
REMARK    4  A    between atoms: C_14  and  O_15 
ROOT
HETATM    1  C   UNL     1      42.606 -15.726   3.919  1.00  0.00     0.131 C 
HETATM    2  C   UNL     1      42.813 -14.337   4.579  1.00  0.00     0.177 C 
HETATM    3  N   UNL     1      43.470 -14.493   5.872  1.00  0.00    -0.088 N 
HETATM    4  C   UNL     1      43.530 -15.658   6.583  1.00  0.00     0.721 A 
HETATM    5  N   UNL     1      43.015 -16.803   6.104  1.00  0.00    -0.218 N 
HETATM    6  C   UNL     1      42.144 -16.805   4.930  1.00  0.00     0.111 C 
HETATM    7  C   UNL     1      42.212 -18.216   4.326  1.00  0.00     0.034 C 
HETATM    8  N   UNL     1      44.190 -13.517   6.463  1.00  0.00    -0.149 NA
HETATM    9  C   UNL     1      44.566 -14.139   7.587  1.00  0.00     0.275 A 
HETATM   10  N   UNL     1      44.187 -15.450   7.694  1.00  0.00    -0.055 NA
HETATM   11  H   UNL     1      42.899 -17.563   6.772  1.00  0.00     0.178 HD
ENDROOT
BRANCH   1  12
HETATM   12  C   UNL     1      41.687 -15.625   2.710  1.00  0.00     0.230 C 
HETATM   13  N   UNL     1      42.338 -15.165   1.576  1.00  0.00    -0.326 N 
HETATM   14  H   UNL     1      43.337 -15.032   1.642  1.00  0.00     0.169 HD
HETATM   15  O   UNL     1      40.503 -15.936   2.793  1.00  0.00    -0.273 OA
BRANCH  13  16
HETATM   16  C   UNL     1      41.781 -14.913   0.297  1.00  0.00     0.040 A 
HETATM   17  C   UNL     1      41.632 -13.574  -0.127  1.00  0.00    -0.035 A 
HETATM   18  C   UNL     1      41.090 -13.306  -1.400  1.00  0.00     0.015 A 
HETATM   19  C   UNL     1      42.038 -12.403   0.728  1.00  0.00     0.050 C 
HETATM   20  C   UNL     1      40.680 -14.339  -2.248  1.00  0.00    -0.061 A 
HETATM   21  C   UNL     1      40.139 -14.045  -3.615  1.00  0.00     0.048 C 
HETATM   22  C   UNL     1      40.834 -15.657  -1.821  1.00  0.00     0.009 A 
HETATM   23  C   UNL     1      41.372 -15.939  -0.561  1.00  0.00     0.030 A 
ENDBRANCH  13  16
ENDBRANCH   1  12
BRANCH   2  24
HETATM   24  C   UNL     1      41.632 -13.377   4.712  1.00  0.00    -0.032 A 
HETATM   25  C   UNL     1      41.522 -12.169   4.015  1.00  0.00     0.012 A 
HETATM   26  C   UNL     1      40.405 -11.342   4.185  1.00  0.00     0.037 A 
HETATM   27  C   UNL     1      39.364 -11.705   5.039  1.00  0.00     0.068 A 
HETATM   28  C   UNL     1      39.448 -12.912   5.724  1.00  0.00     0.037 A 
HETATM   29  C   UNL     1      40.567 -13.736   5.561  1.00  0.00     0.012 A 
BRANCH  27  30
HETATM   30  O   UNL     1      38.336 -10.806   5.107  1.00  0.00    -0.356 OA
HETATM   31  C   UNL     1      38.683  -9.428   5.042  1.00  0.00     0.210 C 
ENDBRANCH  27  30
ENDBRANCH   2  24
TORSDOF 4
ENDMDL
MODEL 9
REMARK VINA RESULT:      -7.4      2.357      6.807
REMARK  4 active torsions:
REMARK  status: ('A' for Active; 'I' for Inactive)
REMARK    1  A    between atoms: C_6  and  N_7 
REMARK       I    between atoms: N_7  and  C_8 
REMARK    2  A    between atoms: C_8  and  C_9 
REMARK    3  A    between atoms: C_10  and  C_11 
REMARK    4  A    between atoms: C_14  and  O_15 
ROOT
HETATM    1  C   UNL     1      42.867 -14.994   6.147  1.00  0.00     0.131 C 
HETATM    2  C   UNL     1      42.294 -16.267   5.469  1.00  0.00     0.177 C 
HETATM    3  N   UNL     1      43.031 -17.444   5.916  1.00  0.00    -0.088 N 
HETATM    4  C   UNL     1      44.265 -17.418   6.500  1.00  0.00     0.721 A 
HETATM    5  N   UNL     1      44.895 -16.260   6.764  1.00  0.00    -0.218 N 
HETATM    6  C   UNL     1      44.415 -14.996   6.210  1.00  0.00     0.111 C 
HETATM    7  C   UNL     1      44.947 -13.879   7.119  1.00  0.00     0.034 C 
HETATM    8  N   UNL     1      42.520 -18.693   5.897  1.00  0.00    -0.149 NA
HETATM    9  C   UNL     1      43.555 -19.385   6.389  1.00  0.00     0.275 A 
HETATM   10  N   UNL     1      44.637 -18.641   6.774  1.00  0.00    -0.055 NA
HETATM   11  H   UNL     1      45.886 -16.324   6.989  1.00  0.00     0.178 HD
ENDROOT
BRANCH   1  12
HETATM   12  C   UNL     1      42.310 -13.733   5.501  1.00  0.00     0.230 C 
HETATM   13  N   UNL     1      41.129 -13.305   6.088  1.00  0.00    -0.326 N 
HETATM   14  H   UNL     1      40.816 -13.805   6.908  1.00  0.00     0.169 HD
HETATM   15  O   UNL     1      42.893 -13.197   4.565  1.00  0.00    -0.273 OA
BRANCH  13  16
HETATM   16  C   UNL     1      40.323 -12.200   5.713  1.00  0.00     0.040 A 
HETATM   17  C   UNL     1      40.492 -10.975   6.394  1.00  0.00    -0.035 A 
HETATM   18  C   UNL     1      39.707  -9.864   6.028  1.00  0.00     0.015 A 
HETATM   19  C   UNL     1      41.491 -10.796   7.507  1.00  0.00     0.050 C 
HETATM   20  C   UNL     1      38.750  -9.952   5.012  1.00  0.00    -0.061 A 
HETATM   21  C   UNL     1      37.946  -8.755   4.605  1.00  0.00     0.048 C 
HETATM   22  C   UNL     1      38.593 -11.166   4.345  1.00  0.00     0.009 A 
HETATM   23  C   UNL     1      39.366 -12.277   4.696  1.00  0.00     0.030 A 
ENDBRANCH  13  16
ENDBRANCH   1  12
BRANCH   2  24
HETATM   24  C   UNL     1      42.126 -16.308   3.951  1.00  0.00    -0.032 A 
HETATM   25  C   UNL     1      40.895 -16.203   3.295  1.00  0.00     0.012 A 
HETATM   26  C   UNL     1      40.821 -16.244   1.898  1.00  0.00     0.037 A 
HETATM   27  C   UNL     1      41.970 -16.373   1.119  1.00  0.00     0.068 A 
HETATM   28  C   UNL     1      43.205 -16.458   1.754  1.00  0.00     0.037 A 
HETATM   29  C   UNL     1      43.280 -16.425   3.151  1.00  0.00     0.012 A 
BRANCH  27  30
HETATM   30  O   UNL     1      41.751 -16.396  -0.230  1.00  0.00    -0.356 OA
HETATM   31  C   UNL     1      41.155 -15.240  -0.804  1.00  0.00     0.210 C 
ENDBRANCH  27  30
ENDBRANCH   2  24
TORSDOF 4
ENDMDL
MODEL 10
REMARK VINA RESULT:      -7.4      2.286      5.847
REMARK  4 active torsions:
REMARK  status: ('A' for Active; 'I' for Inactive)
REMARK    1  A    between atoms: C_6  and  N_7 
REMARK       I    between atoms: N_7  and  C_8 
REMARK    2  A    between atoms: C_8  and  C_9 
REMARK    3  A    between atoms: C_10  and  C_11 
REMARK    4  A    between atoms: C_14  and  O_15 
ROOT
HETATM    1  C   UNL     1      41.444 -14.615   3.719  1.00  0.00     0.131 C 
HETATM    2  C   UNL     1      42.058 -15.791   4.524  1.00  0.00     0.177 C 
HETATM    3  N   UNL     1      42.957 -15.275   5.550  1.00  0.00    -0.088 N 
HETATM    4  C   UNL     1      43.499 -14.021   5.557  1.00  0.00     0.721 A 
HETATM    5  N   UNL     1      43.192 -13.117   4.612  1.00  0.00    -0.218 N 
HETATM    6  C   UNL     1      42.478 -13.506   3.398  1.00  0.00     0.111 C 
HETATM    7  C   UNL     1      41.801 -12.240   2.852  1.00  0.00     0.034 C 
HETATM    8  N   UNL     1      43.270 -15.954   6.674  1.00  0.00    -0.149 NA
HETATM    9  C   UNL     1      44.097 -15.082   7.262  1.00  0.00     0.275 A 
HETATM   10  N   UNL     1      44.258 -13.887   6.613  1.00  0.00    -0.055 NA
HETATM   11  H   UNL     1      43.795 -12.298   4.556  1.00  0.00     0.178 HD
ENDROOT
BRANCH   1  12
HETATM   12  C   UNL     1      40.724 -15.121   2.476  1.00  0.00     0.230 C 
HETATM   13  N   UNL     1      41.224 -14.572   1.305  1.00  0.00    -0.326 N 
HETATM   14  H   UNL     1      42.040 -13.983   1.385  1.00  0.00     0.169 HD
HETATM   15  O   UNL     1      39.807 -15.930   2.567  1.00  0.00    -0.273 OA
BRANCH  13  16
HETATM   16  C   UNL     1      40.765 -14.787  -0.019  1.00  0.00     0.040 A 
HETATM   17  C   UNL     1      39.705 -13.993  -0.508  1.00  0.00    -0.035 A 
HETATM   18  C   UNL     1      39.243 -14.186  -1.825  1.00  0.00     0.015 A 
HETATM   19  C   UNL     1      39.039 -12.928   0.324  1.00  0.00     0.050 C 
HETATM   20  C   UNL     1      39.803 -15.161  -2.656  1.00  0.00    -0.061 A 
HETATM   21  C   UNL     1      39.329 -15.334  -4.068  1.00  0.00     0.048 C 
HETATM   22  C   UNL     1      40.850 -15.938  -2.165  1.00  0.00     0.009 A 
HETATM   23  C   UNL     1      41.320 -15.757  -0.860  1.00  0.00     0.030 A 
ENDBRANCH  13  16
ENDBRANCH   1  12
BRANCH   2  24
HETATM   24  C   UNL     1      42.727 -16.949   3.785  1.00  0.00    -0.032 A 
HETATM   25  C   UNL     1      43.587 -16.789   2.693  1.00  0.00     0.012 A 
HETATM   26  C   UNL     1      44.168 -17.900   2.070  1.00  0.00     0.037 A 
HETATM   27  C   UNL     1      43.922 -19.194   2.528  1.00  0.00     0.068 A 
HETATM   28  C   UNL     1      43.085 -19.369   3.625  1.00  0.00     0.037 A 
HETATM   29  C   UNL     1      42.497 -18.260   4.245  1.00  0.00     0.012 A 
BRANCH  27  30
HETATM   30  O   UNL     1      44.556 -20.183   1.829  1.00  0.00    -0.356 OA
HETATM   31  C   UNL     1      43.926 -21.457   1.806  1.00  0.00     0.210 C 
ENDBRANCH  27  30
ENDBRANCH   2  24
TORSDOF 4
ENDMDL
