MODEL 1
REMARK VINA RESULT:      -9.2      0.000      0.000
REMARK  8 active torsions:
REMARK  status: ('A' for Active; 'I' for Inactive)
REMARK    1  A    between atoms: O_2  and  C_3 
REMARK    2  A    between atoms: C_5  and  C_6 
REMARK    3  A    between atoms: C_10  and  C_11 
REMARK       I    between atoms: C_11  and  N_12 
REMARK    4  A    between atoms: N_12  and  C_13 
REMARK    5  A    between atoms: C_13  and  C_14 
REMARK    6  A    between atoms: C_15  and  C_16 
REMARK    7  A    between atoms: C_16  and  O_17 
REMARK    8  A    between atoms: O_17  and  C_18 
ROOT
HETATM    1  C   UNL     1      44.938 -11.725   9.346  1.00  0.00     0.270 C 
HETATM    2  N   UNL     1      44.598 -12.874   8.682  1.00  0.00    -0.345 N 
HETATM    3  O   UNL     1      45.831 -10.979   8.960  1.00  0.00    -0.266 OA
HETATM    4  H   UNL     1      43.883 -13.481   9.054  1.00  0.00     0.163 HD
ENDROOT
BRANCH   1   5
HETATM    5  C   UNL     1      44.164 -11.452  10.526  1.00  0.00     0.120 A 
HETATM    6  N   UNL     1      43.869 -12.428  11.437  1.00  0.00    -0.272 N 
HETATM    7  N   UNL     1      43.171 -11.998  12.499  1.00  0.00    -0.174 NA
HETATM    8  H   UNL     1      44.135 -13.407  11.386  1.00  0.00     0.189 HD
HETATM    9  C   UNL     1      42.975 -10.691  12.270  1.00  0.00     0.089 A 
HETATM   10  C   UNL     1      43.580 -10.311  11.040  1.00  0.00     0.071 A 
BRANCH   9  11
HETATM   11  C   UNL     1      42.249  -9.838  13.213  1.00  0.00    -0.003 A 
HETATM   12  C   UNL     1      40.978  -9.342  12.888  1.00  0.00     0.050 A 
HETATM   13  C   UNL     1      40.255  -8.556  13.792  1.00  0.00     0.069 A 
HETATM   14  C   UNL     1      40.817  -8.245  15.031  1.00  0.00     0.037 A 
HETATM   15  C   UNL     1      42.087  -8.721  15.362  1.00  0.00     0.004 A 
HETATM   16  C   UNL     1      42.799  -9.514  14.460  1.00  0.00     0.014 A 
BRANCH  13  17
HETATM   17  O   UNL     1      39.022  -8.162  13.349  1.00  0.00    -0.356 OA
HETATM   18  C   UNL     1      38.417  -8.955  12.336  1.00  0.00     0.210 C 
ENDBRANCH  13  17
ENDBRANCH   9  11
ENDBRANCH   1   5
BRANCH   2  19
HETATM   19  C   UNL     1      45.286 -13.282   7.484  1.00  0.00     0.217 C 
BRANCH  19  20
HETATM   20  C   UNL     1      44.720 -14.548   7.010  1.00  0.00    -0.085 C 
HETATM   21  C   UNL     1      44.286 -15.595   6.611  1.00  0.00    -0.078 C 
BRANCH  21  22
HETATM   22  C   UNL     1      43.779 -16.883   6.118  1.00  0.00     0.269 C 
BRANCH  22  23
HETATM   23  O   UNL     1      43.632 -16.815   4.702  1.00  0.00    -0.339 OA
BRANCH  23  24
HETATM   24  C   UNL     1      43.760 -17.990   4.007  1.00  0.00     0.072 A 
HETATM   25  C   UNL     1      44.188 -19.211   4.536  1.00  0.00     0.076 A 
HETATM   26  C   UNL     1      44.259 -20.292   3.679  1.00  0.00     0.107 A 
HETATM   27  C   UNL     1      43.924 -20.195   2.350  1.00  0.00     0.105 A 
HETATM   28  O   UNL     1      44.655 -21.547   4.023  1.00  0.00    -0.323 OA
HETATM   29  O   UNL     1      44.066 -21.374   1.690  1.00  0.00    -0.323 OA
HETATM   30  C   UNL     1      43.498 -19.007   1.798  1.00  0.00     0.042 A 
HETATM   31  C   UNL     1      44.530 -22.228   2.756  1.00  0.00     0.352 A 
HETATM   32  C   UNL     1      43.418 -17.895   2.643  1.00  0.00     0.040 A 
ENDBRANCH  23  24
ENDBRANCH  22  23
ENDBRANCH  21  22
ENDBRANCH  19  20
ENDBRANCH   2  19
TORSDOF 8
ENDMDL
MODEL 2
REMARK VINA RESULT:      -8.7      3.121     11.012
REMARK  8 active torsions:
REMARK  status: ('A' for Active; 'I' for Inactive)
REMARK    1  A    between atoms: O_2  and  C_3 
REMARK    2  A    between atoms: C_5  and  C_6 
REMARK    3  A    between atoms: C_10  and  C_11 
REMARK       I    between atoms: C_11  and  N_12 
REMARK    4  A    between atoms: N_12  and  C_13 
REMARK    5  A    between atoms: C_13  and  C_14 
REMARK    6  A    between atoms: C_15  and  C_16 
REMARK    7  A    between atoms: C_16  and  O_17 
REMARK    8  A    between atoms: O_17  and  C_18 
ROOT
HETATM    1  C   UNL     1      40.240 -13.538   5.712  1.00  0.00     0.270 C 
HETATM    2  N   UNL     1      39.842 -13.067   6.936  1.00  0.00    -0.345 N 
HETATM    3  O   UNL     1      40.176 -12.861   4.691  1.00  0.00    -0.266 OA
HETATM    4  H   UNL     1      39.875 -13.669   7.744  1.00  0.00     0.163 HD
ENDROOT
BRANCH   1   5
HETATM    5  C   UNL     1      40.748 -14.883   5.713  1.00  0.00     0.120 A 
HETATM    6  N   UNL     1      40.023 -15.927   6.215  1.00  0.00    -0.272 N 
HETATM    7  N   UNL     1      40.626 -17.120   6.105  1.00  0.00    -0.174 NA
HETATM    8  H   UNL     1      39.099 -15.880   6.633  1.00  0.00     0.189 HD
HETATM    9  C   UNL     1      41.808 -16.852   5.530  1.00  0.00     0.089 A 
HETATM   10  C   UNL     1      41.924 -15.458   5.272  1.00  0.00     0.071 A 
BRANCH   9  11
HETATM   11  C   UNL     1      42.779 -17.903   5.223  1.00  0.00    -0.003 A 
HETATM   12  C   UNL     1      42.954 -18.347   3.904  1.00  0.00     0.050 A 
HETATM   13  C   UNL     1      43.904 -19.323   3.587  1.00  0.00     0.069 A 
HETATM   14  C   UNL     1      44.678 -19.881   4.605  1.00  0.00     0.037 A 
HETATM   15  C   UNL     1      44.505 -19.460   5.925  1.00  0.00     0.004 A 
HETATM   16  C   UNL     1      43.564 -18.475   6.234  1.00  0.00     0.014 A 
BRANCH  13  17
HETATM   17  O   UNL     1      43.978 -19.641   2.259  1.00  0.00    -0.356 OA
HETATM   18  C   UNL     1      43.686 -20.986   1.900  1.00  0.00     0.210 C 
ENDBRANCH  13  17
ENDBRANCH   9  11
ENDBRANCH   1   5
BRANCH   2  19
HETATM   19  C   UNL     1      39.309 -11.739   7.093  1.00  0.00     0.217 C 
BRANCH  19  20
HETATM   20  C   UNL     1      39.499 -11.302   8.478  1.00  0.00    -0.085 C 
HETATM   21  C   UNL     1      39.629 -10.927   9.613  1.00  0.00    -0.078 C 
BRANCH  21  22
HETATM   22  C   UNL     1      39.765 -10.453  10.997  1.00  0.00     0.269 C 
BRANCH  22  23
HETATM   23  O   UNL     1      40.994  -9.745  11.130  1.00  0.00    -0.339 OA
BRANCH  23  24
HETATM   24  C   UNL     1      42.146 -10.458  10.923  1.00  0.00     0.072 A 
HETATM   25  C   UNL     1      42.961 -10.386   9.790  1.00  0.00     0.076 A 
HETATM   26  C   UNL     1      44.086 -11.187   9.756  1.00  0.00     0.107 A 
HETATM   27  C   UNL     1      44.415 -12.031  10.790  1.00  0.00     0.105 A 
HETATM   28  O   UNL     1      44.983 -11.246   8.735  1.00  0.00    -0.323 OA
HETATM   29  O   UNL     1      45.558 -12.725  10.552  1.00  0.00    -0.323 OA
HETATM   30  C   UNL     1      43.634 -12.124  11.921  1.00  0.00     0.042 A 
HETATM   31  C   UNL     1      45.914 -12.223   9.247  1.00  0.00     0.352 A 
HETATM   32  C   UNL     1      42.488 -11.326  11.981  1.00  0.00     0.040 A 
ENDBRANCH  23  24
ENDBRANCH  22  23
ENDBRANCH  21  22
ENDBRANCH  19  20
ENDBRANCH   2  19
TORSDOF 8
ENDMDL
MODEL 3
REMARK VINA RESULT:      -8.6      2.921     12.404
REMARK  8 active torsions:
REMARK  status: ('A' for Active; 'I' for Inactive)
REMARK    1  A    between atoms: O_2  and  C_3 
REMARK    2  A    between atoms: C_5  and  C_6 
REMARK    3  A    between atoms: C_10  and  C_11 
REMARK       I    between atoms: C_11  and  N_12 
REMARK    4  A    between atoms: N_12  and  C_13 
REMARK    5  A    between atoms: C_13  and  C_14 
REMARK    6  A    between atoms: C_15  and  C_16 
REMARK    7  A    between atoms: C_16  and  O_17 
REMARK    8  A    between atoms: O_17  and  C_18 
ROOT
HETATM    1  C   UNL     1      43.212 -14.726   3.593  1.00  0.00     0.270 C 
HETATM    2  N   UNL     1      42.524 -14.629   4.774  1.00  0.00    -0.345 N 
HETATM    3  O   UNL     1      43.658 -13.745   3.006  1.00  0.00    -0.266 OA
HETATM    4  H   UNL     1      42.140 -15.456   5.205  1.00  0.00     0.163 HD
ENDROOT
BRANCH   1   5
HETATM    5  C   UNL     1      43.382 -16.064   3.095  1.00  0.00     0.120 A 
HETATM    6  N   UNL     1      43.313 -16.350   1.760  1.00  0.00    -0.272 N 
HETATM    7  N   UNL     1      43.531 -17.639   1.461  1.00  0.00    -0.174 NA
HETATM    8  H   UNL     1      43.133 -15.693   1.006  1.00  0.00     0.189 HD
HETATM    9  C   UNL     1      43.728 -18.234   2.647  1.00  0.00     0.089 A 
HETATM   10  C   UNL     1      43.638 -17.279   3.697  1.00  0.00     0.071 A 
BRANCH   9  11
HETATM   11  C   UNL     1      44.011 -19.666   2.760  1.00  0.00    -0.003 A 
HETATM   12  C   UNL     1      44.419 -20.216   3.984  1.00  0.00     0.050 A 
HETATM   13  C   UNL     1      44.657 -21.587   4.119  1.00  0.00     0.069 A 
HETATM   14  C   UNL     1      44.506 -22.421   3.011  1.00  0.00     0.037 A 
HETATM   15  C   UNL     1      44.115 -21.886   1.782  1.00  0.00     0.004 A 
HETATM   16  C   UNL     1      43.867 -20.517   1.656  1.00  0.00     0.014 A 
BRANCH  13  17
HETATM   17  O   UNL     1      45.027 -21.984   5.375  1.00  0.00    -0.356 OA
HETATM   18  C   UNL     1      44.219 -21.534   6.456  1.00  0.00     0.210 C 
ENDBRANCH  13  17
ENDBRANCH   9  11
ENDBRANCH   1   5
BRANCH   2  19
HETATM   19  C   UNL     1      42.272 -13.354   5.395  1.00  0.00     0.217 C 
BRANCH  19  20
HETATM   20  C   UNL     1      43.190 -13.177   6.524  1.00  0.00    -0.085 C 
HETATM   21  C   UNL     1      43.956 -13.009   7.434  1.00  0.00    -0.078 C 
BRANCH  21  22
HETATM   22  C   UNL     1      44.904 -12.781   8.534  1.00  0.00     0.269 C 
BRANCH  22  23
HETATM   23  O   UNL     1      44.981 -11.383   8.802  1.00  0.00    -0.339 OA
BRANCH  23  24
HETATM   24  C   UNL     1      44.096 -10.877   9.718  1.00  0.00     0.072 A 
HETATM   25  C   UNL     1      42.790 -10.457   9.449  1.00  0.00     0.076 A 
HETATM   26  C   UNL     1      42.044  -9.968  10.503  1.00  0.00     0.107 A 
HETATM   27  C   UNL     1      42.545  -9.890  11.781  1.00  0.00     0.105 A 
HETATM   28  O   UNL     1      40.764  -9.516  10.421  1.00  0.00    -0.323 OA
HETATM   29  O   UNL     1      41.646  -9.380  12.663  1.00  0.00    -0.323 OA
HETATM   30  C   UNL     1      43.827 -10.296  12.079  1.00  0.00     0.042 A 
HETATM   31  C   UNL     1      40.518  -9.145  11.795  1.00  0.00     0.352 A 
HETATM   32  C   UNL     1      44.606 -10.794  11.030  1.00  0.00     0.040 A 
ENDBRANCH  23  24
ENDBRANCH  22  23
ENDBRANCH  21  22
ENDBRANCH  19  20
ENDBRANCH   2  19
TORSDOF 8
ENDMDL
MODEL 4
REMARK VINA RESULT:      -8.4      6.587     11.009
REMARK  8 active torsions:
REMARK  status: ('A' for Active; 'I' for Inactive)
REMARK    1  A    between atoms: O_2  and  C_3 
REMARK    2  A    between atoms: C_5  and  C_6 
REMARK    3  A    between atoms: C_10  and  C_11 
REMARK       I    between atoms: C_11  and  N_12 
REMARK    4  A    between atoms: N_12  and  C_13 
REMARK    5  A    between atoms: C_13  and  C_14 
REMARK    6  A    between atoms: C_15  and  C_16 
REMARK    7  A    between atoms: C_16  and  O_17 
REMARK    8  A    between atoms: O_17  and  C_18 
ROOT
HETATM    1  C   UNL     1      40.798 -15.524   0.596  1.00  0.00     0.270 C 
HETATM    2  N   UNL     1      39.652 -15.485   1.346  1.00  0.00    -0.345 N 
HETATM    3  O   UNL     1      40.992 -14.771  -0.352  1.00  0.00    -0.266 OA
HETATM    4  H   UNL     1      39.514 -16.148   2.094  1.00  0.00     0.163 HD
ENDROOT
BRANCH   1   5
HETATM    5  C   UNL     1      41.762 -16.508   1.007  1.00  0.00     0.120 A 
HETATM    6  N   UNL     1      42.862 -16.799   0.250  1.00  0.00    -0.272 N 
HETATM    7  N   UNL     1      43.680 -17.712   0.795  1.00  0.00    -0.174 NA
HETATM    8  H   UNL     1      43.110 -16.389  -0.646  1.00  0.00     0.189 HD
HETATM    9  C   UNL     1      43.085 -18.057   1.947  1.00  0.00     0.089 A 
HETATM   10  C   UNL     1      41.877 -17.326   2.114  1.00  0.00     0.071 A 
BRANCH   9  11
HETATM   11  C   UNL     1      43.671 -19.040   2.860  1.00  0.00    -0.003 A 
HETATM   12  C   UNL     1      43.865 -18.725   4.213  1.00  0.00     0.050 A 
HETATM   13  C   UNL     1      44.388 -19.665   5.107  1.00  0.00     0.069 A 
HETATM   14  C   UNL     1      44.743 -20.931   4.641  1.00  0.00     0.037 A 
HETATM   15  C   UNL     1      44.569 -21.254   3.293  1.00  0.00     0.004 A 
HETATM   16  C   UNL     1      44.034 -20.316   2.407  1.00  0.00     0.014 A 
BRANCH  13  17
HETATM   17  O   UNL     1      44.501 -19.226   6.398  1.00  0.00    -0.356 OA
HETATM   18  C   UNL     1      45.277 -18.055   6.615  1.00  0.00     0.210 C 
ENDBRANCH  13  17
ENDBRANCH   9  11
ENDBRANCH   1   5
BRANCH   2  19
HETATM   19  C   UNL     1      38.593 -14.554   1.054  1.00  0.00     0.217 C 
BRANCH  19  20
HETATM   20  C   UNL     1      38.731 -13.379   1.917  1.00  0.00    -0.085 C 
HETATM   21  C   UNL     1      38.859 -12.432   2.647  1.00  0.00    -0.078 C 
BRANCH  21  22
HETATM   22  C   UNL     1      39.029 -11.291   3.556  1.00  0.00     0.269 C 
BRANCH  22  23
HETATM   23  O   UNL     1      39.099 -11.769   4.897  1.00  0.00    -0.339 OA
BRANCH  23  24
HETATM   24  C   UNL     1      40.108 -12.648   5.191  1.00  0.00     0.072 A 
HETATM   25  C   UNL     1      41.476 -12.359   5.176  1.00  0.00     0.076 A 
HETATM   26  C   UNL     1      42.351 -13.378   5.498  1.00  0.00     0.107 A 
HETATM   27  C   UNL     1      41.915 -14.640   5.827  1.00  0.00     0.105 A 
HETATM   28  O   UNL     1      43.706 -13.274   5.530  1.00  0.00    -0.323 OA
HETATM   29  O   UNL     1      42.940 -15.487   6.108  1.00  0.00    -0.323 OA
HETATM   30  C   UNL     1      40.576 -14.957   5.852  1.00  0.00     0.042 A 
HETATM   31  C   UNL     1      44.073 -14.615   5.918  1.00  0.00     0.352 A 
HETATM   32  C   UNL     1      39.667 -13.944   5.528  1.00  0.00     0.040 A 
ENDBRANCH  23  24
ENDBRANCH  22  23
ENDBRANCH  21  22
ENDBRANCH  19  20
ENDBRANCH   2  19
TORSDOF 8
ENDMDL
MODEL 5
REMARK VINA RESULT:      -8.4      7.585     11.409
REMARK  8 active torsions:
REMARK  status: ('A' for Active; 'I' for Inactive)
REMARK    1  A    between atoms: O_2  and  C_3 
REMARK    2  A    between atoms: C_5  and  C_6 
REMARK    3  A    between atoms: C_10  and  C_11 
REMARK       I    between atoms: C_11  and  N_12 
REMARK    4  A    between atoms: N_12  and  C_13 
REMARK    5  A    between atoms: C_13  and  C_14 
REMARK    6  A    between atoms: C_15  and  C_16 
REMARK    7  A    between atoms: C_16  and  O_17 
REMARK    8  A    between atoms: O_17  and  C_18 
ROOT
HETATM    1  C   UNL     1      41.280 -16.085   0.473  1.00  0.00     0.270 C 
HETATM    2  N   UNL     1      41.606 -15.499  -0.722  1.00  0.00    -0.345 N 
HETATM    3  O   UNL     1      40.236 -15.835   1.067  1.00  0.00    -0.266 OA
HETATM    4  H   UNL     1      42.492 -15.702  -1.159  1.00  0.00     0.163 HD
ENDROOT
BRANCH   1   5
HETATM    5  C   UNL     1      42.247 -17.022   0.977  1.00  0.00     0.120 A 
HETATM    6  N   UNL     1      43.585 -16.742   0.986  1.00  0.00    -0.272 N 
HETATM    7  N   UNL     1      44.346 -17.707   1.523  1.00  0.00    -0.174 NA
HETATM    8  H   UNL     1      44.031 -15.894   0.648  1.00  0.00     0.189 HD
HETATM    9  C   UNL     1      43.480 -18.674   1.860  1.00  0.00     0.089 A 
HETATM   10  C   UNL     1      42.153 -18.284   1.530  1.00  0.00     0.071 A 
BRANCH   9  11
HETATM   11  C   UNL     1      43.915 -19.920   2.496  1.00  0.00    -0.003 A 
HETATM   12  C   UNL     1      44.133 -19.972   3.880  1.00  0.00     0.050 A 
HETATM   13  C   UNL     1      44.513 -21.163   4.509  1.00  0.00     0.069 A 
HETATM   14  C   UNL     1      44.696 -22.314   3.742  1.00  0.00     0.037 A 
HETATM   15  C   UNL     1      44.496 -22.273   2.361  1.00  0.00     0.004 A 
HETATM   16  C   UNL     1      44.106 -21.085   1.740  1.00  0.00     0.014 A 
BRANCH  13  17
HETATM   17  O   UNL     1      44.668 -21.070   5.865  1.00  0.00    -0.356 OA
HETATM   18  C   UNL     1      43.971 -20.020   6.523  1.00  0.00     0.210 C 
ENDBRANCH  13  17
ENDBRANCH   9  11
ENDBRANCH   1   5
BRANCH   2  19
HETATM   19  C   UNL     1      40.738 -14.537  -1.350  1.00  0.00     0.217 C 
BRANCH  19  20
HETATM   20  C   UNL     1      40.564 -13.388  -0.457  1.00  0.00    -0.085 C 
HETATM   21  C   UNL     1      40.449 -12.435   0.266  1.00  0.00    -0.078 C 
BRANCH  21  22
HETATM   22  C   UNL     1      40.333 -11.261   1.141  1.00  0.00     0.269 C 
BRANCH  22  23
HETATM   23  O   UNL     1      41.305 -11.354   2.179  1.00  0.00    -0.339 OA
BRANCH  23  24
HETATM   24  C   UNL     1      41.354 -12.531   2.880  1.00  0.00     0.072 A 
HETATM   25  C   UNL     1      42.453 -13.392   2.960  1.00  0.00     0.076 A 
HETATM   26  C   UNL     1      42.315 -14.541   3.713  1.00  0.00     0.107 A 
HETATM   27  C   UNL     1      41.148 -14.848   4.372  1.00  0.00     0.105 A 
HETATM   28  O   UNL     1      43.276 -15.485   3.895  1.00  0.00    -0.323 OA
HETATM   29  O   UNL     1      41.228 -16.022   5.052  1.00  0.00    -0.323 OA
HETATM   30  C   UNL     1      40.048 -14.022   4.314  1.00  0.00     0.042 A 
HETATM   31  C   UNL     1      42.580 -16.421   4.746  1.00  0.00     0.352 A 
HETATM   32  C   UNL     1      40.159 -12.852   3.557  1.00  0.00     0.040 A 
ENDBRANCH  23  24
ENDBRANCH  22  23
ENDBRANCH  21  22
ENDBRANCH  19  20
ENDBRANCH   2  19
TORSDOF 8
ENDMDL
MODEL 6
REMARK VINA RESULT:      -8.4      5.764      9.562
REMARK  8 active torsions:
REMARK  status: ('A' for Active; 'I' for Inactive)
REMARK    1  A    between atoms: O_2  and  C_3 
REMARK    2  A    between atoms: C_5  and  C_6 
REMARK    3  A    between atoms: C_10  and  C_11 
REMARK       I    between atoms: C_11  and  N_12 
REMARK    4  A    between atoms: N_12  and  C_13 
REMARK    5  A    between atoms: C_13  and  C_14 
REMARK    6  A    between atoms: C_15  and  C_16 
REMARK    7  A    between atoms: C_16  and  O_17 
REMARK    8  A    between atoms: O_17  and  C_18 
ROOT
HETATM    1  C   UNL     1      42.271 -14.258   5.844  1.00  0.00     0.270 C 
HETATM    2  N   UNL     1      40.932 -14.077   6.070  1.00  0.00    -0.345 N 
HETATM    3  O   UNL     1      43.006 -13.349   5.473  1.00  0.00    -0.266 OA
HETATM    4  H   UNL     1      40.354 -14.859   6.338  1.00  0.00     0.163 HD
ENDROOT
BRANCH   1   5
HETATM    5  C   UNL     1      42.755 -15.590   6.084  1.00  0.00     0.120 A 
HETATM    6  N   UNL     1      43.035 -16.039   7.344  1.00  0.00    -0.272 N 
HETATM    7  N   UNL     1      43.442 -17.316   7.396  1.00  0.00    -0.174 NA
HETATM    8  H   UNL     1      42.952 -15.514   8.209  1.00  0.00     0.189 HD
HETATM    9  C   UNL     1      43.454 -17.721   6.117  1.00  0.00     0.089 A 
HETATM   10  C   UNL     1      43.033 -16.665   5.263  1.00  0.00     0.071 A 
BRANCH   9  11
HETATM   11  C   UNL     1      43.838 -19.082   5.737  1.00  0.00    -0.003 A 
HETATM   12  C   UNL     1      44.244 -19.365   4.424  1.00  0.00     0.050 A 
HETATM   13  C   UNL     1      44.650 -20.651   4.053  1.00  0.00     0.069 A 
HETATM   14  C   UNL     1      44.632 -21.675   5.001  1.00  0.00     0.037 A 
HETATM   15  C   UNL     1      44.217 -21.411   6.308  1.00  0.00     0.004 A 
HETATM   16  C   UNL     1      43.824 -20.122   6.676  1.00  0.00     0.014 A 
BRANCH  13  17
HETATM   17  O   UNL     1      45.040 -20.774   2.748  1.00  0.00    -0.356 OA
HETATM   18  C   UNL     1      44.382 -21.768   1.970  1.00  0.00     0.210 C 
ENDBRANCH  13  17
ENDBRANCH   9  11
ENDBRANCH   1   5
BRANCH   2  19
HETATM   19  C   UNL     1      40.301 -12.798   5.871  1.00  0.00     0.217 C 
BRANCH  19  20
HETATM   20  C   UNL     1      39.747 -12.738   4.516  1.00  0.00    -0.085 C 
HETATM   21  C   UNL     1      39.291 -12.658   3.407  1.00  0.00    -0.078 C 
BRANCH  21  22
HETATM   22  C   UNL     1      38.733 -12.532   2.053  1.00  0.00     0.269 C 
BRANCH  22  23
HETATM   23  O   UNL     1      38.416 -13.830   1.557  1.00  0.00    -0.339 OA
BRANCH  23  24
HETATM   24  C   UNL     1      39.466 -14.683   1.337  1.00  0.00     0.072 A 
HETATM   25  C   UNL     1      39.789 -15.800   2.114  1.00  0.00     0.076 A 
HETATM   26  C   UNL     1      40.892 -16.544   1.741  1.00  0.00     0.107 A 
HETATM   27  C   UNL     1      41.658 -16.218   0.647  1.00  0.00     0.105 A 
HETATM   28  O   UNL     1      41.349 -17.653   2.381  1.00  0.00    -0.323 OA
HETATM   29  O   UNL     1      42.691 -17.080   0.460  1.00  0.00    -0.323 OA
HETATM   30  C   UNL     1      41.366 -15.126  -0.139  1.00  0.00     0.042 A 
HETATM   31  C   UNL     1      42.490 -17.988   1.563  1.00  0.00     0.352 A 
HETATM   32  C   UNL     1      40.256 -14.353   0.217  1.00  0.00     0.040 A 
ENDBRANCH  23  24
ENDBRANCH  22  23
ENDBRANCH  21  22
ENDBRANCH  19  20
ENDBRANCH   2  19
TORSDOF 8
ENDMDL
MODEL 7
REMARK VINA RESULT:      -8.3      3.401     12.068
REMARK  8 active torsions:
REMARK  status: ('A' for Active; 'I' for Inactive)
REMARK    1  A    between atoms: O_2  and  C_3 
REMARK    2  A    between atoms: C_5  and  C_6 
REMARK    3  A    between atoms: C_10  and  C_11 
REMARK       I    between atoms: C_11  and  N_12 
REMARK    4  A    between atoms: N_12  and  C_13 
REMARK    5  A    between atoms: C_13  and  C_14 
REMARK    6  A    between atoms: C_15  and  C_16 
REMARK    7  A    between atoms: C_16  and  O_17 
REMARK    8  A    between atoms: O_17  and  C_18 
ROOT
HETATM    1  C   UNL     1      40.621 -14.036   4.413  1.00  0.00     0.270 C 
HETATM    2  N   UNL     1      41.476 -13.100   3.894  1.00  0.00    -0.345 N 
HETATM    3  O   UNL     1      39.510 -13.748   4.846  1.00  0.00    -0.266 OA
HETATM    4  H   UNL     1      42.396 -13.372   3.584  1.00  0.00     0.163 HD
ENDROOT
BRANCH   1   5
HETATM    5  C   UNL     1      41.117 -15.386   4.404  1.00  0.00     0.120 A 
HETATM    6  N   UNL     1      40.639 -16.335   5.263  1.00  0.00    -0.272 N 
HETATM    7  N   UNL     1      41.181 -17.551   5.098  1.00  0.00    -0.174 NA
HETATM    8  H   UNL     1      39.927 -16.206   5.977  1.00  0.00     0.189 HD
HETATM    9  C   UNL     1      42.070 -17.394   4.107  1.00  0.00     0.089 A 
HETATM   10  C   UNL     1      42.063 -16.048   3.647  1.00  0.00     0.071 A 
BRANCH   9  11
HETATM   11  C   UNL     1      42.882 -18.506   3.609  1.00  0.00    -0.003 A 
HETATM   12  C   UNL     1      43.733 -19.208   4.475  1.00  0.00     0.050 A 
HETATM   13  C   UNL     1      44.487 -20.297   4.025  1.00  0.00     0.069 A 
HETATM   14  C   UNL     1      44.406 -20.679   2.686  1.00  0.00     0.037 A 
HETATM   15  C   UNL     1      43.574 -19.981   1.808  1.00  0.00     0.004 A 
HETATM   16  C   UNL     1      42.814 -18.902   2.266  1.00  0.00     0.014 A 
BRANCH  13  17
HETATM   17  O   UNL     1      45.254 -20.899   4.985  1.00  0.00    -0.356 OA
HETATM   18  C   UNL     1      45.110 -22.305   5.138  1.00  0.00     0.210 C 
ENDBRANCH  13  17
ENDBRANCH   9  11
ENDBRANCH   1   5
BRANCH   2  19
HETATM   19  C   UNL     1      41.121 -11.706   3.838  1.00  0.00     0.217 C 
BRANCH  19  20
HETATM   20  C   UNL     1      41.312 -11.105   5.161  1.00  0.00    -0.085 C 
HETATM   21  C   UNL     1      41.439 -10.602   6.245  1.00  0.00    -0.078 C 
BRANCH  21  22
HETATM   22  C   UNL     1      41.567  -9.980   7.570  1.00  0.00     0.269 C 
BRANCH  22  23
HETATM   23  O   UNL     1      42.696 -10.536   8.239  1.00  0.00    -0.339 OA
BRANCH  23  24
HETATM   24  C   UNL     1      42.668 -10.537   9.609  1.00  0.00     0.072 A 
HETATM   25  C   UNL     1      41.518 -10.513  10.404  1.00  0.00     0.076 A 
HETATM   26  C   UNL     1      41.685 -10.513  11.775  1.00  0.00     0.107 A 
HETATM   27  C   UNL     1      42.929 -10.539  12.360  1.00  0.00     0.105 A 
HETATM   28  O   UNL     1      40.682 -10.489  12.692  1.00  0.00    -0.323 OA
HETATM   29  O   UNL     1      42.865 -10.535  13.717  1.00  0.00    -0.323 OA
HETATM   30  C   UNL     1      44.081 -10.564  11.606  1.00  0.00     0.042 A 
HETATM   31  C   UNL     1      41.438 -10.503  13.922  1.00  0.00     0.352 A 
HETATM   32  C   UNL     1      43.941 -10.562  10.214  1.00  0.00     0.040 A 
ENDBRANCH  23  24
ENDBRANCH  22  23
ENDBRANCH  21  22
ENDBRANCH  19  20
ENDBRANCH   2  19
TORSDOF 8
ENDMDL
MODEL 8
REMARK VINA RESULT:      -8.3      3.017     10.156
REMARK  8 active torsions:
REMARK  status: ('A' for Active; 'I' for Inactive)
REMARK    1  A    between atoms: O_2  and  C_3 
REMARK    2  A    between atoms: C_5  and  C_6 
REMARK    3  A    between atoms: C_10  and  C_11 
REMARK       I    between atoms: C_11  and  N_12 
REMARK    4  A    between atoms: N_12  and  C_13 
REMARK    5  A    between atoms: C_13  and  C_14 
REMARK    6  A    between atoms: C_15  and  C_16 
REMARK    7  A    between atoms: C_16  and  O_17 
REMARK    8  A    between atoms: O_17  and  C_18 
ROOT
HETATM    1  C   UNL     1      45.105 -12.928   8.337  1.00  0.00     0.270 C 
HETATM    2  N   UNL     1      44.436 -12.678   9.506  1.00  0.00    -0.345 N 
HETATM    3  O   UNL     1      46.228 -12.489   8.112  1.00  0.00    -0.266 OA
HETATM    4  H   UNL     1      43.499 -13.025   9.637  1.00  0.00     0.163 HD
ENDROOT
BRANCH   1   5
HETATM    5  C   UNL     1      44.399 -13.753   7.395  1.00  0.00     0.120 A 
HETATM    6  N   UNL     1      43.253 -13.327   6.782  1.00  0.00    -0.272 N 
HETATM    7  N   UNL     1      42.741 -14.202   5.904  1.00  0.00    -0.174 NA
HETATM    8  H   UNL     1      42.785 -12.436   6.919  1.00  0.00     0.189 HD
HETATM    9  C   UNL     1      43.566 -15.258   5.956  1.00  0.00     0.089 A 
HETATM   10  C   UNL     1      44.617 -15.016   6.883  1.00  0.00     0.071 A 
BRANCH   9  11
HETATM   11  C   UNL     1      43.359 -16.447   5.126  1.00  0.00    -0.003 A 
HETATM   12  C   UNL     1      42.509 -16.396   4.011  1.00  0.00     0.050 A 
HETATM   13  C   UNL     1      42.329 -17.512   3.187  1.00  0.00     0.069 A 
HETATM   14  C   UNL     1      42.991 -18.701   3.490  1.00  0.00     0.037 A 
HETATM   15  C   UNL     1      43.829 -18.771   4.605  1.00  0.00     0.004 A 
HETATM   16  C   UNL     1      44.015 -17.651   5.418  1.00  0.00     0.014 A 
BRANCH  13  17
HETATM   17  O   UNL     1      41.490 -17.310   2.125  1.00  0.00    -0.356 OA
HETATM   18  C   UNL     1      40.452 -16.352   2.297  1.00  0.00     0.210 C 
ENDBRANCH  13  17
ENDBRANCH   9  11
ENDBRANCH   1   5
BRANCH   2  19
HETATM   19  C   UNL     1      45.015 -11.866  10.545  1.00  0.00     0.217 C 
BRANCH  19  20
HETATM   20  C   UNL     1      44.036 -10.865  10.977  1.00  0.00    -0.085 C 
HETATM   21  C   UNL     1      43.226 -10.039  11.302  1.00  0.00    -0.078 C 
BRANCH  21  22
HETATM   22  C   UNL     1      42.227  -9.026  11.672  1.00  0.00     0.269 C 
BRANCH  22  23
HETATM   23  O   UNL     1      41.691  -8.445  10.487  1.00  0.00    -0.339 OA
BRANCH  23  24
HETATM   24  C   UNL     1      41.087  -9.294   9.597  1.00  0.00     0.072 A 
HETATM   25  C   UNL     1      41.595  -9.668   8.349  1.00  0.00     0.076 A 
HETATM   26  C   UNL     1      40.840 -10.535   7.582  1.00  0.00     0.107 A 
HETATM   27  C   UNL     1      39.631 -11.027   8.012  1.00  0.00     0.105 A 
HETATM   28  O   UNL     1      41.179 -10.998   6.349  1.00  0.00    -0.323 OA
HETATM   29  O   UNL     1      39.058 -11.862   7.105  1.00  0.00    -0.323 OA
HETATM   30  C   UNL     1      39.103 -10.680   9.235  1.00  0.00     0.042 A 
HETATM   31  C   UNL     1      40.044 -11.839   6.053  1.00  0.00     0.352 A 
HETATM   32  C   UNL     1      39.845  -9.801  10.032  1.00  0.00     0.040 A 
ENDBRANCH  23  24
ENDBRANCH  22  23
ENDBRANCH  21  22
ENDBRANCH  19  20
ENDBRANCH   2  19
TORSDOF 8
ENDMDL
MODEL 9
REMARK VINA RESULT:      -8.2      6.201     10.364
REMARK  8 active torsions:
REMARK  status: ('A' for Active; 'I' for Inactive)
REMARK    1  A    between atoms: O_2  and  C_3 
REMARK    2  A    between atoms: C_5  and  C_6 
REMARK    3  A    between atoms: C_10  and  C_11 
REMARK       I    between atoms: C_11  and  N_12 
REMARK    4  A    between atoms: N_12  and  C_13 
REMARK    5  A    between atoms: C_13  and  C_14 
REMARK    6  A    between atoms: C_15  and  C_16 
REMARK    7  A    between atoms: C_16  and  O_17 
REMARK    8  A    between atoms: O_17  and  C_18 
ROOT
HETATM    1  C   UNL     1      42.689 -13.371   3.883  1.00  0.00     0.270 C 
HETATM    2  N   UNL     1      43.668 -14.103   4.503  1.00  0.00    -0.345 N 
HETATM    3  O   UNL     1      42.109 -12.442   4.437  1.00  0.00    -0.266 OA
HETATM    4  H   UNL     1      44.094 -14.883   4.027  1.00  0.00     0.163 HD
ENDROOT
BRANCH   1   5
HETATM    5  C   UNL     1      42.396 -13.765   2.532  1.00  0.00     0.120 A 
HETATM    6  N   UNL     1      42.356 -15.079   2.158  1.00  0.00    -0.272 N 
HETATM    7  N   UNL     1      42.032 -15.276   0.871  1.00  0.00    -0.174 NA
HETATM    8  H   UNL     1      42.529 -15.886   2.750  1.00  0.00     0.189 HD
HETATM    9  C   UNL     1      41.876 -14.042   0.368  1.00  0.00     0.089 A 
HETATM   10  C   UNL     1      42.100 -13.067   1.379  1.00  0.00     0.071 A 
BRANCH   9  11
HETATM   11  C   UNL     1      41.505 -13.814  -1.030  1.00  0.00    -0.003 A 
HETATM   12  C   UNL     1      41.072 -14.880  -1.833  1.00  0.00     0.050 A 
HETATM   13  C   UNL     1      40.677 -14.674  -3.159  1.00  0.00     0.069 A 
HETATM   14  C   UNL     1      40.735 -13.389  -3.699  1.00  0.00     0.037 A 
HETATM   15  C   UNL     1      41.177 -12.321  -2.916  1.00  0.00     0.004 A 
HETATM   16  C   UNL     1      41.558 -12.530  -1.589  1.00  0.00     0.014 A 
BRANCH  13  17
HETATM   17  O   UNL     1      40.259 -15.801  -3.813  1.00  0.00    -0.356 OA
HETATM   18  C   UNL     1      38.858 -15.948  -4.011  1.00  0.00     0.210 C 
ENDBRANCH  13  17
ENDBRANCH   9  11
ENDBRANCH   1   5
BRANCH   2  19
HETATM   19  C   UNL     1      44.069 -13.827   5.858  1.00  0.00     0.217 C 
BRANCH  19  20
HETATM   20  C   UNL     1      43.908 -15.040   6.665  1.00  0.00    -0.085 C 
HETATM   21  C   UNL     1      43.751 -16.021   7.341  1.00  0.00    -0.078 C 
BRANCH  21  22
HETATM   22  C   UNL     1      43.535 -17.210   8.177  1.00  0.00     0.269 C 
BRANCH  22  23
HETATM   23  O   UNL     1      42.709 -18.133   7.473  1.00  0.00    -0.339 OA
BRANCH  23  24
HETATM   24  C   UNL     1      43.089 -18.456   6.196  1.00  0.00     0.072 A 
HETATM   25  C   UNL     1      42.425 -18.079   5.025  1.00  0.00     0.076 A 
HETATM   26  C   UNL     1      42.954 -18.504   3.822  1.00  0.00     0.107 A 
HETATM   27  C   UNL     1      44.094 -19.269   3.754  1.00  0.00     0.105 A 
HETATM   28  O   UNL     1      42.438 -18.233   2.593  1.00  0.00    -0.323 OA
HETATM   29  O   UNL     1      44.439 -19.575   2.476  1.00  0.00    -0.323 OA
HETATM   30  C   UNL     1      44.771 -19.657   4.888  1.00  0.00     0.042 A 
HETATM   31  C   UNL     1      43.386 -18.915   1.744  1.00  0.00     0.352 A 
HETATM   32  C   UNL     1      44.257 -19.242   6.120  1.00  0.00     0.040 A 
ENDBRANCH  23  24
ENDBRANCH  22  23
ENDBRANCH  21  22
ENDBRANCH  19  20
ENDBRANCH   2  19
TORSDOF 8
ENDMDL
MODEL 10
REMARK VINA RESULT:      -8.0      3.221     10.546
REMARK  8 active torsions:
REMARK  status: ('A' for Active; 'I' for Inactive)
REMARK    1  A    between atoms: O_2  and  C_3 
REMARK    2  A    between atoms: C_5  and  C_6 
REMARK    3  A    between atoms: C_10  and  C_11 
REMARK       I    between atoms: C_11  and  N_12 
REMARK    4  A    between atoms: N_12  and  C_13 
REMARK    5  A    between atoms: C_13  and  C_14 
REMARK    6  A    between atoms: C_15  and  C_16 
REMARK    7  A    between atoms: C_16  and  O_17 
REMARK    8  A    between atoms: O_17  and  C_18 
ROOT
HETATM    1  C   UNL     1      39.766 -13.201   5.886  1.00  0.00     0.270 C 
HETATM    2  N   UNL     1      39.919 -12.811   7.191  1.00  0.00    -0.345 N 
HETATM    3  O   UNL     1      39.168 -12.520   5.059  1.00  0.00    -0.266 OA
HETATM    4  H   UNL     1      40.384 -13.417   7.849  1.00  0.00     0.163 HD
ENDROOT
BRANCH   1   5
HETATM    5  C   UNL     1      40.368 -14.464   5.553  1.00  0.00     0.120 A 
HETATM    6  N   UNL     1      39.991 -15.625   6.167  1.00  0.00    -0.272 N 
HETATM    7  N   UNL     1      40.624 -16.718   5.714  1.00  0.00    -0.174 NA
HETATM    8  H   UNL     1      39.292 -15.728   6.896  1.00  0.00     0.189 HD
HETATM    9  C   UNL     1      41.470 -16.258   4.781  1.00  0.00     0.089 A 
HETATM   10  C   UNL     1      41.342 -14.847   4.653  1.00  0.00     0.071 A 
BRANCH   9  11
HETATM   11  C   UNL     1      42.354 -17.149   4.026  1.00  0.00    -0.003 A 
HETATM   12  C   UNL     1      43.167 -18.076   4.695  1.00  0.00     0.050 A 
HETATM   13  C   UNL     1      43.989 -18.961   3.989  1.00  0.00     0.069 A 
HETATM   14  C   UNL     1      44.015 -18.906   2.595  1.00  0.00     0.037 A 
HETATM   15  C   UNL     1      43.222 -17.979   1.917  1.00  0.00     0.004 A 
HETATM   16  C   UNL     1      42.394 -17.107   2.626  1.00  0.00     0.014 A 
BRANCH  13  17
HETATM   17  O   UNL     1      44.709 -19.822   4.771  1.00  0.00    -0.356 OA
HETATM   18  C   UNL     1      44.157 -20.154   6.040  1.00  0.00     0.210 C 
ENDBRANCH  13  17
ENDBRANCH   9  11
ENDBRANCH   1   5
BRANCH   2  19
HETATM   19  C   UNL     1      39.369 -11.571   7.674  1.00  0.00     0.217 C 
BRANCH  19  20
HETATM   20  C   UNL     1      40.179 -11.088   8.795  1.00  0.00    -0.085 C 
HETATM   21  C   UNL     1      40.868 -10.705   9.702  1.00  0.00    -0.078 C 
BRANCH  21  22
HETATM   22  C   UNL     1      41.733 -10.249  10.799  1.00  0.00     0.269 C 
BRANCH  22  23
HETATM   23  O   UNL     1      42.628 -11.299  11.156  1.00  0.00    -0.339 OA
BRANCH  23  24
HETATM   24  C   UNL     1      43.688 -11.522  10.317  1.00  0.00     0.072 A 
HETATM   25  C   UNL     1      43.716 -12.433   9.257  1.00  0.00     0.076 A 
HETATM   26  C   UNL     1      44.880 -12.526   8.520  1.00  0.00     0.107 A 
HETATM   27  C   UNL     1      45.986 -11.758   8.799  1.00  0.00     0.105 A 
HETATM   28  O   UNL     1      45.081 -13.357   7.462  1.00  0.00    -0.323 OA
HETATM   29  O   UNL     1      47.019 -12.007   7.953  1.00  0.00    -0.323 OA
HETATM   30  C   UNL     1      45.991 -10.851   9.835  1.00  0.00     0.042 A 
HETATM   31  C   UNL     1      46.440 -13.022   7.107  1.00  0.00     0.352 A 
HETATM   32  C   UNL     1      44.825 -10.738  10.599  1.00  0.00     0.040 A 
ENDBRANCH  23  24
ENDBRANCH  22  23
ENDBRANCH  21  22
ENDBRANCH  19  20
ENDBRANCH   2  19
TORSDOF 8
ENDMDL
