MODEL 1
REMARK VINA RESULT:      -8.7      0.000      0.000
REMARK  4 active torsions:
REMARK  status: ('A' for Active; 'I' for Inactive)
REMARK    1  A    between atoms: C_9  and  C_10 
REMARK    2  A    between atoms: C_20  and  C_21 
REMARK       I    between atoms: C_21  and  N_22 
REMARK    3  A    between atoms: N_22  and  C_23 
REMARK    4  A    between atoms: C_24  and  O_25 
ROOT
HETATM    1  C   UNL     1      40.643 -11.549   4.350  1.00  0.00     0.070 C 
HETATM    2  C   UNL     1      41.678 -12.547   4.803  1.00  0.00     0.037 C 
HETATM    3  N   UNL     1      42.060 -12.459   6.140  1.00  0.00    -0.192 N 
HETATM    4  C   UNL     1      43.192 -13.030   6.605  1.00  0.00     0.725 A 
HETATM    5  N   UNL     1      43.865 -13.926   5.817  1.00  0.00    -0.084 N 
HETATM    6  N   UNL     1      45.022 -14.314   6.394  1.00  0.00    -0.149 NA
HETATM    7  C   UNL     1      44.951 -13.651   7.554  1.00  0.00     0.275 A 
HETATM    8  N   UNL     1      43.845 -12.857   7.725  1.00  0.00    -0.054 NA
HETATM    9  C   UNL     1      43.404 -14.358   4.489  1.00  0.00     0.203 C 
HETATM   10  C   UNL     1      42.296 -13.440   3.988  1.00  0.00     0.062 C 
HETATM   11  H   UNL     1      41.662 -11.699   6.686  1.00  0.00     0.184 HD
ENDROOT
BRANCH  10  12
HETATM   12  C   UNL     1      42.084 -13.458   2.522  1.00  0.00     0.256 C 
HETATM   13  N   UNL     1      41.058 -14.277   2.124  1.00  0.00    -0.321 N 
HETATM   14  H   UNL     1      40.662 -14.928   2.796  1.00  0.00     0.169 HD
HETATM   15  O   UNL     1      42.817 -12.779   1.813  1.00  0.00    -0.267 OA
BRANCH  13  16
HETATM   16  C   UNL     1      40.425 -14.306   0.860  1.00  0.00     0.068 A 
HETATM   17  C   UNL     1      39.156 -13.698   0.758  1.00  0.00     0.095 A 
HETATM   18  C   UNL     1      38.518 -13.623  -0.485  1.00  0.00     0.039 A 
HETATM   19  C   UNL     1      39.126 -14.162  -1.619  1.00  0.00     0.003 A 
HETATM   20  C   UNL     1      40.370 -14.779  -1.517  1.00  0.00     0.002 A 
HETATM   21  C   UNL     1      41.018 -14.852  -0.282  1.00  0.00     0.032 A 
BRANCH  17  22
HETATM   22  O   UNL     1      38.645 -13.180   1.926  1.00  0.00    -0.354 OA
HETATM   23  C   UNL     1      37.967 -11.933   1.809  1.00  0.00     0.210 C 
ENDBRANCH  17  22
ENDBRANCH  13  16
ENDBRANCH  10  12
BRANCH   9  24
HETATM   24  C   UNL     1      42.955 -15.826   4.557  1.00  0.00    -0.017 A 
HETATM   25  C   UNL     1      43.237 -16.769   3.521  1.00  0.00    -0.017 A 
HETATM   26  C   UNL     1      42.842 -18.122   3.709  1.00  0.00    -0.025 A 
HETATM   27  C   UNL     1      43.894 -16.461   2.304  1.00  0.00     0.013 A 
HETATM   28  C   UNL     1      43.124 -19.091   2.732  1.00  0.00     0.012 A 
HETATM   29  C   UNL     1      42.171 -18.509   4.877  1.00  0.00     0.012 A 
HETATM   30  C   UNL     1      43.783 -18.752   1.555  1.00  0.00     0.001 A 
HETATM   31  C   UNL     1      44.164 -17.437   1.339  1.00  0.00     0.001 A 
HETATM   32  C   UNL     1      41.875 -17.586   5.870  1.00  0.00     0.002 A 
HETATM   33  C   UNL     1      42.262 -16.261   5.713  1.00  0.00     0.010 A 
ENDBRANCH   9  24
TORSDOF 4
ENDMDL
MODEL 2
REMARK VINA RESULT:      -8.3      2.080      5.711
REMARK  4 active torsions:
REMARK  status: ('A' for Active; 'I' for Inactive)
REMARK    1  A    between atoms: C_9  and  C_10 
REMARK    2  A    between atoms: C_20  and  C_21 
REMARK       I    between atoms: C_21  and  N_22 
REMARK    3  A    between atoms: N_22  and  C_23 
REMARK    4  A    between atoms: C_24  and  O_25 
ROOT
HETATM    1  C   UNL     1      43.681 -15.044   6.574  1.00  0.00     0.070 C 
HETATM    2  C   UNL     1      42.593 -14.258   5.886  1.00  0.00     0.037 C 
HETATM    3  N   UNL     1      42.404 -12.956   6.346  1.00  0.00    -0.192 N 
HETATM    4  C   UNL     1      41.279 -12.257   6.086  1.00  0.00     0.725 A 
HETATM    5  N   UNL     1      40.398 -12.725   5.146  1.00  0.00    -0.084 N 
HETATM    6  N   UNL     1      39.287 -11.963   5.092  1.00  0.00    -0.149 NA
HETATM    7  C   UNL     1      39.593 -11.019   5.990  1.00  0.00     0.275 A 
HETATM    8  N   UNL     1      40.805 -11.160   6.619  1.00  0.00    -0.054 NA
HETATM    9  C   UNL     1      40.622 -13.939   4.347  1.00  0.00     0.203 C 
HETATM   10  C   UNL     1      41.764 -14.758   4.934  1.00  0.00     0.062 C 
HETATM   11  H   UNL     1      42.965 -12.660   7.141  1.00  0.00     0.184 HD
ENDROOT
BRANCH  10  12
HETATM   12  C   UNL     1      41.779 -16.186   4.539  1.00  0.00     0.256 C 
HETATM   13  N   UNL     1      42.829 -16.520   3.720  1.00  0.00    -0.321 N 
HETATM   14  H   UNL     1      43.382 -15.775   3.306  1.00  0.00     0.169 HD
HETATM   15  O   UNL     1      40.886 -16.919   4.945  1.00  0.00    -0.267 OA
BRANCH  13  16
HETATM   16  C   UNL     1      43.287 -17.818   3.399  1.00  0.00     0.068 A 
HETATM   17  C   UNL     1      43.098 -18.262   2.074  1.00  0.00     0.095 A 
HETATM   18  C   UNL     1      43.604 -19.505   1.677  1.00  0.00     0.039 A 
HETATM   19  C   UNL     1      44.279 -20.312   2.593  1.00  0.00     0.003 A 
HETATM   20  C   UNL     1      44.450 -19.883   3.907  1.00  0.00     0.002 A 
HETATM   21  C   UNL     1      43.955 -18.642   4.310  1.00  0.00     0.032 A 
BRANCH  17  22
HETATM   22  O   UNL     1      42.436 -17.390   1.239  1.00  0.00    -0.354 OA
HETATM   23  C   UNL     1      41.032 -17.592   1.118  1.00  0.00     0.210 C 
ENDBRANCH  17  22
ENDBRANCH  13  16
ENDBRANCH  10  12
BRANCH   9  24
HETATM   24  C   UNL     1      40.883 -13.546   2.884  1.00  0.00    -0.017 A 
HETATM   25  C   UNL     1      39.902 -13.697   1.856  1.00  0.00    -0.017 A 
HETATM   26  C   UNL     1      40.214 -13.237   0.548  1.00  0.00    -0.025 A 
HETATM   27  C   UNL     1      38.620 -14.271   2.041  1.00  0.00     0.013 A 
HETATM   28  C   UNL     1      39.270 -13.335  -0.488  1.00  0.00     0.012 A 
HETATM   29  C   UNL     1      41.466 -12.671   0.275  1.00  0.00     0.012 A 
HETATM   30  C   UNL     1      38.016 -13.894  -0.265  1.00  0.00     0.001 A 
HETATM   31  C   UNL     1      37.693 -14.366   0.998  1.00  0.00     0.001 A 
HETATM   32  C   UNL     1      42.428 -12.550   1.269  1.00  0.00     0.002 A 
HETATM   33  C   UNL     1      42.141 -12.982   2.557  1.00  0.00     0.010 A 
ENDBRANCH   9  24
TORSDOF 4
ENDMDL
MODEL 3
REMARK VINA RESULT:      -8.1      2.312      6.241
REMARK  4 active torsions:
REMARK  status: ('A' for Active; 'I' for Inactive)
REMARK    1  A    between atoms: C_9  and  C_10 
REMARK    2  A    between atoms: C_20  and  C_21 
REMARK       I    between atoms: C_21  and  N_22 
REMARK    3  A    between atoms: N_22  and  C_23 
REMARK    4  A    between atoms: C_24  and  O_25 
ROOT
HETATM    1  C   UNL     1      42.140 -12.274   5.251  1.00  0.00     0.070 C 
HETATM    2  C   UNL     1      41.369 -12.357   3.957  1.00  0.00     0.037 C 
HETATM    3  N   UNL     1      40.280 -11.494   3.844  1.00  0.00    -0.192 N 
HETATM    4  C   UNL     1      39.307 -11.678   2.926  1.00  0.00     0.725 A 
HETATM    5  N   UNL     1      39.500 -12.582   1.915  1.00  0.00    -0.084 N 
HETATM    6  N   UNL     1      38.391 -12.714   1.157  1.00  0.00    -0.149 NA
HETATM    7  C   UNL     1      37.589 -11.815   1.739  1.00  0.00     0.275 A 
HETATM    8  N   UNL     1      38.112 -11.156   2.823  1.00  0.00    -0.054 NA
HETATM    9  C   UNL     1      40.740 -13.349   1.726  1.00  0.00     0.203 C 
HETATM   10  C   UNL     1      41.618 -13.253   2.967  1.00  0.00     0.062 C 
HETATM   11  H   UNL     1      40.055 -10.924   4.656  1.00  0.00     0.184 HD
ENDROOT
BRANCH  10  12
HETATM   12  C   UNL     1      42.630 -14.326   3.104  1.00  0.00     0.256 C 
HETATM   13  N   UNL     1      42.091 -15.584   3.193  1.00  0.00    -0.321 N 
HETATM   14  H   UNL     1      41.091 -15.678   3.348  1.00  0.00     0.169 HD
HETATM   15  O   UNL     1      43.815 -14.017   3.137  1.00  0.00    -0.267 OA
BRANCH  13  16
HETATM   16  C   UNL     1      42.765 -16.819   3.051  1.00  0.00     0.068 A 
HETATM   17  C   UNL     1      43.107 -17.510   4.231  1.00  0.00     0.095 A 
HETATM   18  C   UNL     1      43.702 -18.774   4.151  1.00  0.00     0.039 A 
HETATM   19  C   UNL     1      43.971 -19.344   2.907  1.00  0.00     0.003 A 
HETATM   20  C   UNL     1      43.650 -18.655   1.739  1.00  0.00     0.002 A 
HETATM   21  C   UNL     1      43.050 -17.397   1.810  1.00  0.00     0.032 A 
BRANCH  17  22
HETATM   22  O   UNL     1      42.788 -16.875   5.411  1.00  0.00    -0.354 OA
HETATM   23  C   UNL     1      43.887 -16.526   6.246  1.00  0.00     0.210 C 
ENDBRANCH  17  22
ENDBRANCH  13  16
ENDBRANCH  10  12
BRANCH   9  24
HETATM   24  C   UNL     1      41.463 -12.847   0.465  1.00  0.00    -0.017 A 
HETATM   25  C   UNL     1      41.462 -13.573  -0.766  1.00  0.00    -0.017 A 
HETATM   26  C   UNL     1      42.098 -12.990  -1.897  1.00  0.00    -0.025 A 
HETATM   27  C   UNL     1      40.863 -14.843  -0.956  1.00  0.00     0.013 A 
HETATM   28  C   UNL     1      42.096 -13.651  -3.136  1.00  0.00     0.012 A 
HETATM   29  C   UNL     1      42.730 -11.745  -1.792  1.00  0.00     0.012 A 
HETATM   30  C   UNL     1      41.486 -14.892  -3.287  1.00  0.00     0.001 A 
HETATM   31  C   UNL     1      40.873 -15.490  -2.196  1.00  0.00     0.001 A 
HETATM   32  C   UNL     1      42.753 -11.054  -0.587  1.00  0.00     0.002 A 
HETATM   33  C   UNL     1      42.128 -11.599   0.527  1.00  0.00     0.010 A 
ENDBRANCH   9  24
TORSDOF 4
ENDMDL
MODEL 4
REMARK VINA RESULT:      -8.1      2.646      7.205
REMARK  4 active torsions:
REMARK  status: ('A' for Active; 'I' for Inactive)
REMARK    1  A    between atoms: C_9  and  C_10 
REMARK    2  A    between atoms: C_20  and  C_21 
REMARK       I    between atoms: C_21  and  N_22 
REMARK    3  A    between atoms: N_22  and  C_23 
REMARK    4  A    between atoms: C_24  and  O_25 
ROOT
HETATM    1  C   UNL     1      40.940 -17.312   0.755  1.00  0.00     0.070 C 
HETATM    2  C   UNL     1      41.155 -15.825   0.889  1.00  0.00     0.037 C 
HETATM    3  N   UNL     1      41.134 -15.100  -0.301  1.00  0.00    -0.192 N 
HETATM    4  C   UNL     1      41.639 -13.852  -0.393  1.00  0.00     0.725 A 
HETATM    5  N   UNL     1      41.959 -13.171   0.752  1.00  0.00    -0.084 N 
HETATM    6  N   UNL     1      42.546 -11.988   0.471  1.00  0.00    -0.149 NA
HETATM    7  C   UNL     1      42.495 -12.001  -0.867  1.00  0.00     0.275 A 
HETATM    8  N   UNL     1      41.944 -13.122  -1.435  1.00  0.00    -0.054 NA
HETATM    9  C   UNL     1      41.740 -13.696   2.107  1.00  0.00     0.203 C 
HETATM   10  C   UNL     1      41.439 -15.189   2.055  1.00  0.00     0.062 C 
HETATM   11  H   UNL     1      41.038 -15.630  -1.164  1.00  0.00     0.184 HD
ENDROOT
BRANCH  10  12
HETATM   12  C   UNL     1      41.670 -15.920   3.323  1.00  0.00     0.256 C 
HETATM   13  N   UNL     1      42.938 -16.430   3.441  1.00  0.00    -0.321 N 
HETATM   14  H   UNL     1      43.539 -16.442   2.622  1.00  0.00     0.169 HD
HETATM   15  O   UNL     1      40.747 -16.017   4.122  1.00  0.00    -0.267 OA
BRANCH  13  16
HETATM   16  C   UNL     1      43.559 -16.921   4.613  1.00  0.00     0.068 A 
HETATM   17  C   UNL     1      44.060 -18.239   4.576  1.00  0.00     0.095 A 
HETATM   18  C   UNL     1      44.756 -18.751   5.676  1.00  0.00     0.039 A 
HETATM   19  C   UNL     1      44.941 -17.966   6.815  1.00  0.00     0.003 A 
HETATM   20  C   UNL     1      44.432 -16.671   6.860  1.00  0.00     0.002 A 
HETATM   21  C   UNL     1      43.742 -16.149   5.764  1.00  0.00     0.032 A 
BRANCH  17  22
HETATM   22  O   UNL     1      43.843 -18.929   3.404  1.00  0.00    -0.354 OA
HETATM   23  C   UNL     1      44.544 -20.162   3.271  1.00  0.00     0.210 C 
ENDBRANCH  17  22
ENDBRANCH  13  16
ENDBRANCH  10  12
BRANCH   9  24
HETATM   24  C   UNL     1      40.615 -12.901   2.788  1.00  0.00    -0.017 A 
HETATM   25  C   UNL     1      40.725 -12.390   4.118  1.00  0.00    -0.017 A 
HETATM   26  C   UNL     1      39.657 -11.605   4.633  1.00  0.00    -0.025 A 
HETATM   27  C   UNL     1      41.832 -12.602   4.976  1.00  0.00     0.013 A 
HETATM   28  C   UNL     1      39.733 -11.055   5.923  1.00  0.00     0.012 A 
HETATM   29  C   UNL     1      38.517 -11.362   3.857  1.00  0.00     0.012 A 
HETATM   30  C   UNL     1      40.844 -11.274   6.732  1.00  0.00     0.001 A 
HETATM   31  C   UNL     1      41.891 -12.051   6.261  1.00  0.00     0.001 A 
HETATM   32  C   UNL     1      38.401 -11.882   2.574  1.00  0.00     0.002 A 
HETATM   33  C   UNL     1      39.436 -12.642   2.046  1.00  0.00     0.010 A 
ENDBRANCH   9  24
TORSDOF 4
ENDMDL
MODEL 5
REMARK VINA RESULT:      -8.0      2.285      5.849
REMARK  4 active torsions:
REMARK  status: ('A' for Active; 'I' for Inactive)
REMARK    1  A    between atoms: C_9  and  C_10 
REMARK    2  A    between atoms: C_20  and  C_21 
REMARK       I    between atoms: C_21  and  N_22 
REMARK    3  A    between atoms: N_22  and  C_23 
REMARK    4  A    between atoms: C_24  and  O_25 
ROOT
HETATM    1  C   UNL     1      44.609 -14.117   6.166  1.00  0.00     0.070 C 
HETATM    2  C   UNL     1      43.259 -13.909   5.526  1.00  0.00     0.037 C 
HETATM    3  N   UNL     1      42.407 -13.025   6.184  1.00  0.00    -0.192 N 
HETATM    4  C   UNL     1      41.078 -12.992   5.946  1.00  0.00     0.725 A 
HETATM    5  N   UNL     1      40.574 -13.661   4.862  1.00  0.00    -0.084 N 
HETATM    6  N   UNL     1      39.226 -13.609   4.837  1.00  0.00    -0.149 NA
HETATM    7  C   UNL     1      38.991 -12.843   5.909  1.00  0.00     0.275 A 
HETATM    8  N   UNL     1      40.097 -12.442   6.614  1.00  0.00    -0.054 NA
HETATM    9  C   UNL     1      41.403 -14.387   3.888  1.00  0.00     0.203 C 
HETATM   10  C   UNL     1      42.815 -14.574   4.429  1.00  0.00     0.062 C 
HETATM   11  H   UNL     1      42.732 -12.639   7.068  1.00  0.00     0.184 HD
ENDROOT
BRANCH  10  12
HETATM   12  C   UNL     1      43.589 -15.667   3.795  1.00  0.00     0.256 C 
HETATM   13  N   UNL     1      43.368 -16.898   4.359  1.00  0.00    -0.321 N 
HETATM   14  H   UNL     1      42.870 -16.949   5.244  1.00  0.00     0.169 HD
HETATM   15  O   UNL     1      44.341 -15.394   2.867  1.00  0.00    -0.267 OA
BRANCH  13  16
HETATM   16  C   UNL     1      43.719 -18.160   3.828  1.00  0.00     0.068 A 
HETATM   17  C   UNL     1      44.419 -19.046   4.674  1.00  0.00     0.095 A 
HETATM   18  C   UNL     1      44.721 -20.339   4.231  1.00  0.00     0.039 A 
HETATM   19  C   UNL     1      44.345 -20.747   2.951  1.00  0.00     0.003 A 
HETATM   20  C   UNL     1      43.670 -19.867   2.108  1.00  0.00     0.002 A 
HETATM   21  C   UNL     1      43.358 -18.578   2.544  1.00  0.00     0.032 A 
BRANCH  17  22
HETATM   22  O   UNL     1      44.732 -18.560   5.923  1.00  0.00    -0.354 OA
HETATM   23  C   UNL     1      44.050 -19.168   7.015  1.00  0.00     0.210 C 
ENDBRANCH  17  22
ENDBRANCH  13  16
ENDBRANCH  10  12
BRANCH   9  24
HETATM   24  C   UNL     1      41.390 -13.637   2.546  1.00  0.00    -0.017 A 
HETATM   25  C   UNL     1      41.323 -14.309   1.287  1.00  0.00    -0.017 A 
HETATM   26  C   UNL     1      41.243 -13.525   0.103  1.00  0.00    -0.025 A 
HETATM   27  C   UNL     1      41.323 -15.716   1.120  1.00  0.00     0.013 A 
HETATM   28  C   UNL     1      41.145 -14.139  -1.155  1.00  0.00     0.012 A 
HETATM   29  C   UNL     1      41.255 -12.126   0.178  1.00  0.00     0.012 A 
HETATM   30  C   UNL     1      41.135 -15.525  -1.279  1.00  0.00     0.001 A 
HETATM   31  C   UNL     1      41.229 -16.313  -0.142  1.00  0.00     0.001 A 
HETATM   32  C   UNL     1      41.347 -11.476   1.401  1.00  0.00     0.002 A 
HETATM   33  C   UNL     1      41.414 -12.222   2.571  1.00  0.00     0.010 A 
ENDBRANCH   9  24
TORSDOF 4
ENDMDL
MODEL 6
REMARK VINA RESULT:      -8.0      2.389      4.858
REMARK  4 active torsions:
REMARK  status: ('A' for Active; 'I' for Inactive)
REMARK    1  A    between atoms: C_9  and  C_10 
REMARK    2  A    between atoms: C_20  and  C_21 
REMARK       I    between atoms: C_21  and  N_22 
REMARK    3  A    between atoms: N_22  and  C_23 
REMARK    4  A    between atoms: C_24  and  O_25 
ROOT
HETATM    1  C   UNL     1      43.991 -18.507   1.794  1.00  0.00     0.070 C 
HETATM    2  C   UNL     1      43.671 -18.139   3.221  1.00  0.00     0.037 C 
HETATM    3  N   UNL     1      44.393 -18.819   4.199  1.00  0.00    -0.192 N 
HETATM    4  C   UNL     1      43.998 -18.860   5.489  1.00  0.00     0.725 A 
HETATM    5  N   UNL     1      43.005 -18.018   5.914  1.00  0.00    -0.084 N 
HETATM    6  N   UNL     1      42.666 -18.267   7.196  1.00  0.00    -0.149 NA
HETATM    7  C   UNL     1      43.537 -19.237   7.496  1.00  0.00     0.275 A 
HETATM    8  N   UNL     1      44.373 -19.627   6.480  1.00  0.00    -0.054 NA
HETATM    9  C   UNL     1      42.358 -17.014   5.056  1.00  0.00     0.203 C 
HETATM   10  C   UNL     1      42.695 -17.270   3.593  1.00  0.00     0.062 C 
HETATM   11  H   UNL     1      45.029 -19.548   3.882  1.00  0.00     0.184 HD
ENDROOT
BRANCH  10  12
HETATM   12  C   UNL     1      41.760 -16.661   2.618  1.00  0.00     0.256 C 
HETATM   13  N   UNL     1      42.330 -15.680   1.848  1.00  0.00    -0.321 N 
HETATM   14  H   UNL     1      43.244 -15.320   2.110  1.00  0.00     0.169 HD
HETATM   15  O   UNL     1      40.601 -17.056   2.589  1.00  0.00    -0.267 OA
BRANCH  13  16
HETATM   16  C   UNL     1      41.811 -15.110   0.663  1.00  0.00     0.068 A 
HETATM   17  C   UNL     1      41.843 -13.704   0.552  1.00  0.00     0.095 A 
HETATM   18  C   UNL     1      41.419 -13.088  -0.630  1.00  0.00     0.039 A 
HETATM   19  C   UNL     1      40.949 -13.860  -1.693  1.00  0.00     0.003 A 
HETATM   20  C   UNL     1      40.899 -15.247  -1.579  1.00  0.00     0.002 A 
HETATM   21  C   UNL     1      41.327 -15.871  -0.406  1.00  0.00     0.032 A 
BRANCH  17  22
HETATM   22  O   UNL     1      42.338 -13.029   1.646  1.00  0.00    -0.354 OA
HETATM   23  C   UNL     1      41.441 -12.115   2.270  1.00  0.00     0.210 C 
ENDBRANCH  17  22
ENDBRANCH  13  16
ENDBRANCH  10  12
BRANCH   9  24
HETATM   24  C   UNL     1      42.779 -15.607   5.510  1.00  0.00    -0.017 A 
HETATM   25  C   UNL     1      41.863 -14.513   5.586  1.00  0.00    -0.017 A 
HETATM   26  C   UNL     1      42.333 -13.268   6.087  1.00  0.00    -0.025 A 
HETATM   27  C   UNL     1      40.500 -14.572   5.203  1.00  0.00     0.013 A 
HETATM   28  C   UNL     1      41.463 -12.173   6.209  1.00  0.00     0.012 A 
HETATM   29  C   UNL     1      43.672 -13.118   6.472  1.00  0.00     0.012 A 
HETATM   30  C   UNL     1      40.127 -12.273   5.834  1.00  0.00     0.001 A 
HETATM   31  C   UNL     1      39.647 -13.470   5.327  1.00  0.00     0.001 A 
HETATM   32  C   UNL     1      44.567 -14.175   6.372  1.00  0.00     0.002 A 
HETATM   33  C   UNL     1      44.126 -15.404   5.897  1.00  0.00     0.010 A 
ENDBRANCH   9  24
TORSDOF 4
ENDMDL
MODEL 7
REMARK VINA RESULT:      -7.9      2.315      6.284
REMARK  4 active torsions:
REMARK  status: ('A' for Active; 'I' for Inactive)
REMARK    1  A    between atoms: C_9  and  C_10 
REMARK    2  A    between atoms: C_20  and  C_21 
REMARK       I    between atoms: C_21  and  N_22 
REMARK    3  A    between atoms: N_22  and  C_23 
REMARK    4  A    between atoms: C_24  and  O_25 
ROOT
HETATM    1  C   UNL     1      41.726 -11.872   5.187  1.00  0.00     0.070 C 
HETATM    2  C   UNL     1      41.048 -12.064   3.854  1.00  0.00     0.037 C 
HETATM    3  N   UNL     1      39.933 -11.261   3.620  1.00  0.00    -0.192 N 
HETATM    4  C   UNL     1      39.032 -11.541   2.655  1.00  0.00     0.725 A 
HETATM    5  N   UNL     1      39.331 -12.490   1.713  1.00  0.00    -0.084 N 
HETATM    6  N   UNL     1      38.282 -12.716   0.894  1.00  0.00    -0.149 NA
HETATM    7  C   UNL     1      37.404 -11.825   1.369  1.00  0.00     0.275 A 
HETATM    8  N   UNL     1      37.825 -11.083   2.445  1.00  0.00    -0.054 NA
HETATM    9  C   UNL     1      40.614 -13.206   1.648  1.00  0.00     0.203 C 
HETATM   10  C   UNL     1      41.401 -13.000   2.936  1.00  0.00     0.062 C 
HETATM   11  H   UNL     1      39.630 -10.658   4.381  1.00  0.00     0.184 HD
ENDROOT
BRANCH  10  12
HETATM   12  C   UNL     1      42.448 -14.015   3.199  1.00  0.00     0.256 C 
HETATM   13  N   UNL     1      41.965 -15.174   3.753  1.00  0.00    -0.321 N 
HETATM   14  H   UNL     1      41.013 -15.188   4.105  1.00  0.00     0.169 HD
HETATM   15  O   UNL     1      43.612 -13.745   2.926  1.00  0.00    -0.267 OA
BRANCH  13  16
HETATM   16  C   UNL     1      42.634 -16.415   3.863  1.00  0.00     0.068 A 
HETATM   17  C   UNL     1      42.586 -17.277   2.748  1.00  0.00     0.095 A 
HETATM   18  C   UNL     1      43.297 -18.482   2.768  1.00  0.00     0.039 A 
HETATM   19  C   UNL     1      44.038 -18.839   3.894  1.00  0.00     0.003 A 
HETATM   20  C   UNL     1      44.072 -17.998   5.003  1.00  0.00     0.002 A 
HETATM   21  C   UNL     1      43.372 -16.790   4.989  1.00  0.00     0.032 A 
BRANCH  17  22
HETATM   22  O   UNL     1      41.842 -16.831   1.678  1.00  0.00    -0.354 OA
HETATM   23  C   UNL     1      40.932 -17.773   1.119  1.00  0.00     0.210 C 
ENDBRANCH  17  22
ENDBRANCH  13  16
ENDBRANCH  10  12
BRANCH   9  24
HETATM   24  C   UNL     1      41.396 -12.742   0.409  1.00  0.00    -0.017 A 
HETATM   25  C   UNL     1      41.410 -13.477  -0.816  1.00  0.00    -0.017 A 
HETATM   26  C   UNL     1      42.105 -12.928  -1.928  1.00  0.00    -0.025 A 
HETATM   27  C   UNL     1      40.772 -14.726  -1.016  1.00  0.00     0.013 A 
HETATM   28  C   UNL     1      42.121 -13.599  -3.162  1.00  0.00     0.012 A 
HETATM   29  C   UNL     1      42.778 -11.705  -1.811  1.00  0.00     0.012 A 
HETATM   30  C   UNL     1      41.471 -14.819  -3.325  1.00  0.00     0.001 A 
HETATM   31  C   UNL     1      40.801 -15.384  -2.251  1.00  0.00     0.001 A 
HETATM   32  C   UNL     1      42.785 -11.006  -0.612  1.00  0.00     0.002 A 
HETATM   33  C   UNL     1      42.103 -11.518   0.485  1.00  0.00     0.010 A 
ENDBRANCH   9  24
TORSDOF 4
ENDMDL
MODEL 8
REMARK VINA RESULT:      -7.2      1.905      2.264
REMARK  4 active torsions:
REMARK  status: ('A' for Active; 'I' for Inactive)
REMARK    1  A    between atoms: C_9  and  C_10 
REMARK    2  A    between atoms: C_20  and  C_21 
REMARK       I    between atoms: C_21  and  N_22 
REMARK    3  A    between atoms: N_22  and  C_23 
REMARK    4  A    between atoms: C_24  and  O_25 
ROOT
HETATM    1  C   UNL     1      40.735 -11.306   6.870  1.00  0.00     0.070 C 
HETATM    2  C   UNL     1      41.957 -12.186   6.802  1.00  0.00     0.037 C 
HETATM    3  N   UNL     1      42.848 -12.068   7.867  1.00  0.00    -0.192 N 
HETATM    4  C   UNL     1      44.121 -12.513   7.794  1.00  0.00     0.725 A 
HETATM    5  N   UNL     1      44.492 -13.320   6.752  1.00  0.00    -0.084 N 
HETATM    6  N   UNL     1      45.816 -13.581   6.780  1.00  0.00    -0.149 NA
HETATM    7  C   UNL     1      46.167 -12.942   7.902  1.00  0.00     0.275 A 
HETATM    8  N   UNL     1      45.159 -12.278   8.555  1.00  0.00    -0.054 NA
HETATM    9  C   UNL     1      43.568 -13.788   5.708  1.00  0.00     0.203 C 
HETATM   10  C   UNL     1      42.268 -12.997   5.757  1.00  0.00     0.062 C 
HETATM   11  H   UNL     1      42.639 -11.363   8.569  1.00  0.00     0.184 HD
ENDROOT
BRANCH  10  12
HETATM   12  C   UNL     1      41.470 -13.024   4.509  1.00  0.00     0.256 C 
HETATM   13  N   UNL     1      41.958 -12.202   3.525  1.00  0.00    -0.321 N 
HETATM   14  H   UNL     1      42.675 -11.523   3.765  1.00  0.00     0.169 HD
HETATM   15  O   UNL     1      40.474 -13.736   4.462  1.00  0.00    -0.267 OA
BRANCH  13  16
HETATM   16  C   UNL     1      41.611 -12.204   2.155  1.00  0.00     0.068 A 
HETATM   17  C   UNL     1      40.865 -11.108   1.674  1.00  0.00     0.095 A 
HETATM   18  C   UNL     1      40.563 -11.015   0.310  1.00  0.00     0.039 A 
HETATM   19  C   UNL     1      40.983 -12.013  -0.570  1.00  0.00     0.003 A 
HETATM   20  C   UNL     1      41.704 -13.106  -0.094  1.00  0.00     0.002 A 
HETATM   21  C   UNL     1      42.016 -13.202   1.263  1.00  0.00     0.032 A 
BRANCH  17  22
HETATM   22  O   UNL     1      40.510 -10.167   2.614  1.00  0.00    -0.354 OA
HETATM   23  C   UNL     1      40.433  -8.823   2.149  1.00  0.00     0.210 C 
ENDBRANCH  17  22
ENDBRANCH  13  16
ENDBRANCH  10  12
BRANCH   9  24
HETATM   24  C   UNL     1      43.334 -15.299   5.873  1.00  0.00    -0.017 A 
HETATM   25  C   UNL     1      43.340 -16.206   4.770  1.00  0.00    -0.017 A 
HETATM   26  C   UNL     1      43.185 -17.595   5.034  1.00  0.00    -0.025 A 
HETATM   27  C   UNL     1      43.495 -15.829   3.413  1.00  0.00     0.013 A 
HETATM   28  C   UNL     1      43.215 -18.528   3.985  1.00  0.00     0.012 A 
HETATM   29  C   UNL     1      43.009 -18.053   6.346  1.00  0.00     0.012 A 
HETATM   30  C   UNL     1      43.383 -18.121   2.665  1.00  0.00     0.001 A 
HETATM   31  C   UNL     1      43.518 -16.771   2.379  1.00  0.00     0.001 A 
HETATM   32  C   UNL     1      42.977 -17.166   7.414  1.00  0.00     0.002 A 
HETATM   33  C   UNL     1      43.137 -15.805   7.181  1.00  0.00     0.010 A 
ENDBRANCH   9  24
TORSDOF 4
ENDMDL
MODEL 9
REMARK VINA RESULT:      -7.2      2.488      7.089
REMARK  4 active torsions:
REMARK  status: ('A' for Active; 'I' for Inactive)
REMARK    1  A    between atoms: C_9  and  C_10 
REMARK    2  A    between atoms: C_20  and  C_21 
REMARK       I    between atoms: C_21  and  N_22 
REMARK    3  A    between atoms: N_22  and  C_23 
REMARK    4  A    between atoms: C_24  and  O_25 
ROOT
HETATM    1  C   UNL     1      41.338 -16.503  -0.724  1.00  0.00     0.070 C 
HETATM    2  C   UNL     1      41.436 -15.053  -0.321  1.00  0.00     0.037 C 
HETATM    3  N   UNL     1      41.737 -14.158  -1.345  1.00  0.00    -0.192 N 
HETATM    4  C   UNL     1      42.189 -12.910  -1.103  1.00  0.00     0.725 A 
HETATM    5  N   UNL     1      42.124 -12.407   0.170  1.00  0.00    -0.084 N 
HETATM    6  N   UNL     1      42.714 -11.196   0.250  1.00  0.00    -0.149 NA
HETATM    7  C   UNL     1      43.062 -11.008  -1.028  1.00  0.00     0.275 A 
HETATM    8  N   UNL     1      42.756 -12.032  -1.890  1.00  0.00    -0.054 NA
HETATM    9  C   UNL     1      41.537 -13.131   1.308  1.00  0.00     0.203 C 
HETATM   10  C   UNL     1      41.333 -14.598   0.955  1.00  0.00     0.062 C 
HETATM   11  H   UNL     1      41.925 -14.553  -2.264  1.00  0.00     0.184 HD
ENDROOT
BRANCH  10  12
HETATM   12  C   UNL     1      41.210 -15.511   2.116  1.00  0.00     0.256 C 
HETATM   13  N   UNL     1      42.414 -15.966   2.589  1.00  0.00    -0.321 N 
HETATM   14  H   UNL     1      43.249 -15.815   2.029  1.00  0.00     0.169 HD
HETATM   15  O   UNL     1      40.091 -15.785   2.533  1.00  0.00    -0.267 OA
BRANCH  13  16
HETATM   16  C   UNL     1      42.664 -16.606   3.824  1.00  0.00     0.068 A 
HETATM   17  C   UNL     1      43.042 -15.791   4.911  1.00  0.00     0.095 A 
HETATM   18  C   UNL     1      43.222 -16.358   6.178  1.00  0.00     0.039 A 
HETATM   19  C   UNL     1      43.044 -17.730   6.363  1.00  0.00     0.003 A 
HETATM   20  C   UNL     1      42.688 -18.539   5.287  1.00  0.00     0.002 A 
HETATM   21  C   UNL     1      42.499 -17.981   4.022  1.00  0.00     0.032 A 
BRANCH  17  22
HETATM   22  O   UNL     1      43.178 -14.449   4.634  1.00  0.00    -0.354 OA
HETATM   23  C   UNL     1      43.514 -13.618   5.741  1.00  0.00     0.210 C 
ENDBRANCH  17  22
ENDBRANCH  13  16
ENDBRANCH  10  12
BRANCH   9  24
HETATM   24  C   UNL     1      40.225 -12.446   1.725  1.00  0.00    -0.017 A 
HETATM   25  C   UNL     1      40.102 -11.676   2.923  1.00  0.00    -0.017 A 
HETATM   26  C   UNL     1      38.867 -11.023   3.185  1.00  0.00    -0.025 A 
HETATM   27  C   UNL     1      41.131 -11.504   3.882  1.00  0.00     0.013 A 
HETATM   28  C   UNL     1      38.709 -10.230   4.333  1.00  0.00     0.012 A 
HETATM   29  C   UNL     1      37.792 -11.155   2.296  1.00  0.00     0.012 A 
HETATM   30  C   UNL     1      39.746 -10.074   5.246  1.00  0.00     0.001 A 
HETATM   31  C   UNL     1      40.955 -10.714   5.023  1.00  0.00     0.001 A 
HETATM   32  C   UNL     1      37.905 -11.926   1.147  1.00  0.00     0.002 A 
HETATM   33  C   UNL     1      39.107 -12.564   0.865  1.00  0.00     0.010 A 
ENDBRANCH   9  24
TORSDOF 4
ENDMDL
MODEL 10
REMARK VINA RESULT:      -7.1      2.398      7.678
REMARK  4 active torsions:
REMARK  status: ('A' for Active; 'I' for Inactive)
REMARK    1  A    between atoms: C_9  and  C_10 
REMARK    2  A    between atoms: C_20  and  C_21 
REMARK       I    between atoms: C_21  and  N_22 
REMARK    3  A    between atoms: N_22  and  C_23 
REMARK    4  A    between atoms: C_24  and  O_25 
ROOT
HETATM    1  C   UNL     1      42.362 -17.028   1.249  1.00  0.00     0.070 C 
HETATM    2  C   UNL     1      41.748 -15.926   0.422  1.00  0.00     0.037 C 
HETATM    3  N   UNL     1      41.325 -16.291  -0.854  1.00  0.00    -0.192 N 
HETATM    4  C   UNL     1      41.080 -15.380  -1.820  1.00  0.00     0.725 A 
HETATM    5  N   UNL     1      41.002 -14.053  -1.488  1.00  0.00    -0.084 N 
HETATM    6  N   UNL     1      40.859 -13.280  -2.584  1.00  0.00    -0.149 NA
HETATM    7  C   UNL     1      40.803 -14.217  -3.538  1.00  0.00     0.275 A 
HETATM    8  N   UNL     1      40.931 -15.515  -3.113  1.00  0.00    -0.054 NA
HETATM    9  C   UNL     1      41.119 -13.544  -0.113  1.00  0.00     0.203 C 
HETATM   10  C   UNL     1      41.664 -14.627   0.809  1.00  0.00     0.062 C 
HETATM   11  H   UNL     1      41.515 -17.246  -1.150  1.00  0.00     0.184 HD
ENDROOT
BRANCH  10  12
HETATM   12  C   UNL     1      42.270 -14.132   2.067  1.00  0.00     0.256 C 
HETATM   13  N   UNL     1      42.004 -14.925   3.155  1.00  0.00    -0.321 N 
HETATM   14  H   UNL     1      41.294 -15.646   3.074  1.00  0.00     0.169 HD
HETATM   15  O   UNL     1      42.920 -13.094   2.039  1.00  0.00    -0.267 OA
BRANCH  13  16
HETATM   16  C   UNL     1      42.646 -14.895   4.415  1.00  0.00     0.068 A 
HETATM   17  C   UNL     1      42.375 -15.955   5.305  1.00  0.00     0.095 A 
HETATM   18  C   UNL     1      43.043 -16.024   6.532  1.00  0.00     0.039 A 
HETATM   19  C   UNL     1      43.966 -15.037   6.883  1.00  0.00     0.003 A 
HETATM   20  C   UNL     1      44.222 -13.980   6.013  1.00  0.00     0.002 A 
HETATM   21  C   UNL     1      43.565 -13.908   4.784  1.00  0.00     0.032 A 
BRANCH  17  22
HETATM   22  O   UNL     1      41.463 -16.888   4.864  1.00  0.00    -0.354 OA
HETATM   23  C   UNL     1      41.912 -18.240   4.856  1.00  0.00     0.210 C 
ENDBRANCH  17  22
ENDBRANCH  13  16
ENDBRANCH  10  12
BRANCH   9  24
HETATM   24  C   UNL     1      39.753 -13.018   0.355  1.00  0.00    -0.017 A 
HETATM   25  C   UNL     1      39.544 -11.664   0.762  1.00  0.00    -0.017 A 
HETATM   26  C   UNL     1      38.227 -11.256   1.110  1.00  0.00    -0.025 A 
HETATM   27  C   UNL     1      40.560 -10.679   0.844  1.00  0.00     0.013 A 
HETATM   28  C   UNL     1      37.968  -9.928   1.487  1.00  0.00     0.012 A 
HETATM   29  C   UNL     1      37.168 -12.171   1.073  1.00  0.00     0.012 A 
HETATM   30  C   UNL     1      38.989  -8.985   1.542  1.00  0.00     0.001 A 
HETATM   31  C   UNL     1      40.285  -9.361   1.226  1.00  0.00     0.001 A 
HETATM   32  C   UNL     1      37.378 -13.493   0.702  1.00  0.00     0.002 A 
HETATM   33  C   UNL     1      38.654 -13.911   0.348  1.00  0.00     0.010 A 
ENDBRANCH   9  24
TORSDOF 4
ENDMDL
