MODEL 1
REMARK VINA RESULT:      -8.8      0.000      0.000
REMARK  7 active torsions:
REMARK  status: ('A' for Active; 'I' for Inactive)
REMARK    1  A    between atoms: C_2  and  O_3 
REMARK    2  A    between atoms: O_3  and  C_4 
REMARK    3  A    between atoms: C_4  and  C_5 
REMARK    4  A    between atoms: C_6  and  N_7 
REMARK    5  A    between atoms: N_7  and  C_8 
REMARK    6  A    between atoms: C_9  and  C_10 
REMARK    7  A    between atoms: C_13  and  C_14 
ROOT
HETATM    1  C   UNL     1      43.458 -14.151   4.979  1.00  0.00     0.114 C 
HETATM    2  C   UNL     1      43.849 -14.908   6.025  1.00  0.00     0.095 C 
HETATM    3  C   UNL     1      44.332 -14.254   7.198  1.00  0.00     0.103 C 
HETATM    4  N   UNL     1      44.736 -13.679   8.123  1.00  0.00    -0.191 NA
ENDROOT
BRANCH   2   5
HETATM    5  C   UNL     1      43.845 -16.339   6.001  1.00  0.00     0.120 A 
HETATM    6  S   UNL     1      43.456 -17.259   7.427  1.00  0.00    -0.078 SA
HETATM    7  C   UNL     1      43.547 -18.711   6.534  1.00  0.00     0.084 A 
HETATM    8  C   UNL     1      43.825 -18.439   5.211  1.00  0.00     0.075 A 
HETATM    9  N   UNL     1      44.000 -17.092   4.924  1.00  0.00    -0.239 NA
BRANCH   8  10
HETATM   10  C   UNL     1      43.939 -19.455   4.169  1.00  0.00    -0.007 A 
HETATM   11  C   UNL     1      44.574 -20.687   4.401  1.00  0.00     0.017 A 
HETATM   12  C   UNL     1      44.666 -21.641   3.384  1.00  0.00     0.043 A 
HETATM   13  C   UNL     1      44.120 -21.369   2.136  1.00  0.00     0.116 A 
HETATM   14  F   UNL     1      44.210 -22.284   1.163  1.00  0.00    -0.206 F 
HETATM   15  C   UNL     1      43.480 -20.162   1.885  1.00  0.00     0.043 A 
HETATM   16  C   UNL     1      43.386 -19.208   2.902  1.00  0.00     0.017 A 
ENDBRANCH   8  10
ENDBRANCH   2   5
BRANCH   1  17
HETATM   17  N   UNL     1      42.901 -14.498   3.764  1.00  0.00    -0.358 N 
HETATM   18  H   UNL     1      43.584 -14.854   3.085  1.00  0.00     0.166 HD
BRANCH  17  19
HETATM   19  C   UNL     1      41.722 -14.051   3.223  1.00  0.00     0.091 A 
HETATM   20  C   UNL     1      40.705 -14.858   2.711  1.00  0.00     0.080 A 
HETATM   21  C   UNL     1      39.635 -14.065   2.135  1.00  0.00    -0.026 A 
HETATM   22  C   UNL     1      39.873 -12.713   2.277  1.00  0.00    -0.008 A 
HETATM   23  C   UNL     1      38.386 -14.566   1.460  1.00  0.00     0.041 C 
HETATM   24  S   UNL     1      41.325 -12.383   3.079  1.00  0.00    -0.075 SA
HETATM   25  C   UNL     1      38.995 -11.613   1.761  1.00  0.00     0.047 C 
HETATM   26  C   UNL     1      37.601 -12.150   1.417  1.00  0.00     0.005 C 
HETATM   27  C   UNL     1      37.685 -13.471   0.642  1.00  0.00     0.005 C 
BRANCH  20  28
HETATM   28  C   UNL     1      40.786 -16.323   2.781  1.00  0.00     0.296 C 
HETATM   29  O   UNL     1      40.892 -16.938   3.837  1.00  0.00    -0.259 OA
BRANCH  28  30
HETATM   30  O   UNL     1      40.698 -16.920   1.557  1.00  0.00    -0.318 OA
BRANCH  30  31
HETATM   31  C   UNL     1      41.809 -16.726   0.671  1.00  0.00     0.174 C 
HETATM   32  C   UNL     1      41.340 -16.018  -0.585  1.00  0.00     0.034 C 
ENDBRANCH  30  31
ENDBRANCH  28  30
ENDBRANCH  20  28
ENDBRANCH  17  19
ENDBRANCH   1  17
TORSDOF 7
ENDMDL
MODEL 2
REMARK VINA RESULT:      -8.5      2.455      6.990
REMARK  7 active torsions:
REMARK  status: ('A' for Active; 'I' for Inactive)
REMARK    1  A    between atoms: C_2  and  O_3 
REMARK    2  A    between atoms: O_3  and  C_4 
REMARK    3  A    between atoms: C_4  and  C_5 
REMARK    4  A    between atoms: C_6  and  N_7 
REMARK    5  A    between atoms: N_7  and  C_8 
REMARK    6  A    between atoms: C_9  and  C_10 
REMARK    7  A    between atoms: C_13  and  C_14 
ROOT
HETATM    1  C   UNL     1      43.908 -15.748   6.085  1.00  0.00     0.114 C 
HETATM    2  C   UNL     1      43.620 -14.462   6.376  1.00  0.00     0.095 C 
HETATM    3  C   UNL     1      44.441 -13.776   7.321  1.00  0.00     0.103 C 
HETATM    4  N   UNL     1      45.123 -13.266   8.110  1.00  0.00    -0.191 NA
ENDROOT
BRANCH   2   5
HETATM    5  C   UNL     1      42.504 -13.764   5.816  1.00  0.00     0.120 A 
HETATM    6  S   UNL     1      42.111 -12.145   6.325  1.00  0.00    -0.078 SA
HETATM    7  C   UNL     1      40.868 -12.063   5.159  1.00  0.00     0.084 A 
HETATM    8  C   UNL     1      40.829 -13.228   4.421  1.00  0.00     0.075 A 
HETATM    9  N   UNL     1      41.756 -14.186   4.810  1.00  0.00    -0.239 NA
BRANCH   8  10
HETATM   10  C   UNL     1      39.903 -13.474   3.320  1.00  0.00    -0.007 A 
HETATM   11  C   UNL     1      39.678 -14.766   2.816  1.00  0.00     0.017 A 
HETATM   12  C   UNL     1      38.783 -14.971   1.762  1.00  0.00     0.043 A 
HETATM   13  C   UNL     1      38.108 -13.888   1.215  1.00  0.00     0.116 A 
HETATM   14  F   UNL     1      37.251 -14.087   0.205  1.00  0.00    -0.206 F 
HETATM   15  C   UNL     1      38.307 -12.602   1.702  1.00  0.00     0.043 A 
HETATM   16  C   UNL     1      39.200 -12.397   2.756  1.00  0.00     0.017 A 
ENDBRANCH   8  10
ENDBRANCH   2   5
BRANCH   1  17
HETATM   17  N   UNL     1      43.339 -16.625   5.182  1.00  0.00    -0.358 N 
HETATM   18  H   UNL     1      42.362 -16.406   4.956  1.00  0.00     0.166 HD
BRANCH  17  19
HETATM   19  C   UNL     1      43.727 -17.911   4.904  1.00  0.00     0.091 A 
HETATM   20  C   UNL     1      43.869 -18.459   3.628  1.00  0.00     0.080 A 
HETATM   21  C   UNL     1      44.207 -19.869   3.689  1.00  0.00    -0.026 A 
HETATM   22  C   UNL     1      44.343 -20.302   4.993  1.00  0.00    -0.008 A 
HETATM   23  C   UNL     1      44.410 -20.812   2.533  1.00  0.00     0.041 C 
HETATM   24  S   UNL     1      44.085 -19.070   6.123  1.00  0.00    -0.075 SA
HETATM   25  C   UNL     1      44.645 -21.706   5.419  1.00  0.00     0.047 C 
HETATM   26  C   UNL     1      45.189 -22.524   4.241  1.00  0.00     0.005 C 
HETATM   27  C   UNL     1      44.370 -22.285   2.967  1.00  0.00     0.005 C 
BRANCH  20  28
HETATM   28  C   UNL     1      43.679 -17.643   2.422  1.00  0.00     0.296 C 
HETATM   29  O   UNL     1      44.544 -17.505   1.563  1.00  0.00    -0.259 OA
BRANCH  28  30
HETATM   30  O   UNL     1      42.435 -17.087   2.346  1.00  0.00    -0.318 OA
BRANCH  30  31
HETATM   31  C   UNL     1      41.580 -17.577   1.304  1.00  0.00     0.174 C 
HETATM   32  C   UNL     1      41.579 -16.600   0.144  1.00  0.00     0.034 C 
ENDBRANCH  30  31
ENDBRANCH  28  30
ENDBRANCH  20  28
ENDBRANCH  17  19
ENDBRANCH   1  17
TORSDOF 7
ENDMDL
MODEL 3
REMARK VINA RESULT:      -8.4      2.019      3.275
REMARK  7 active torsions:
REMARK  status: ('A' for Active; 'I' for Inactive)
REMARK    1  A    between atoms: C_2  and  O_3 
REMARK    2  A    between atoms: O_3  and  C_4 
REMARK    3  A    between atoms: C_4  and  C_5 
REMARK    4  A    between atoms: C_6  and  N_7 
REMARK    5  A    between atoms: N_7  and  C_8 
REMARK    6  A    between atoms: C_9  and  C_10 
REMARK    7  A    between atoms: C_13  and  C_14 
ROOT
HETATM    1  C   UNL     1      42.572 -14.442   5.779  1.00  0.00     0.114 C 
HETATM    2  C   UNL     1      43.524 -15.056   6.512  1.00  0.00     0.095 C 
HETATM    3  C   UNL     1      44.439 -14.251   7.255  1.00  0.00     0.103 C 
HETATM    4  N   UNL     1      45.173 -13.555   7.826  1.00  0.00    -0.191 NA
ENDROOT
BRANCH   2   5
HETATM    5  C   UNL     1      43.688 -16.477   6.549  1.00  0.00     0.120 A 
HETATM    6  S   UNL     1      43.412 -17.375   8.016  1.00  0.00    -0.078 SA
HETATM    7  C   UNL     1      43.673 -18.843   7.184  1.00  0.00     0.084 A 
HETATM    8  C   UNL     1      43.915 -18.598   5.849  1.00  0.00     0.075 A 
HETATM    9  N   UNL     1      43.929 -17.253   5.504  1.00  0.00    -0.239 NA
BRANCH   8  10
HETATM   10  C   UNL     1      44.147 -19.636   4.851  1.00  0.00    -0.007 A 
HETATM   11  C   UNL     1      43.965 -19.399   3.478  1.00  0.00     0.017 A 
HETATM   12  C   UNL     1      44.198 -20.414   2.545  1.00  0.00     0.043 A 
HETATM   13  C   UNL     1      44.618 -21.664   2.981  1.00  0.00     0.116 A 
HETATM   14  F   UNL     1      44.840 -22.634   2.085  1.00  0.00    -0.206 F 
HETATM   15  C   UNL     1      44.814 -21.920   4.332  1.00  0.00     0.043 A 
HETATM   16  C   UNL     1      44.583 -20.906   5.265  1.00  0.00     0.017 A 
ENDBRANCH   8  10
ENDBRANCH   2   5
BRANCH   1  17
HETATM   17  N   UNL     1      41.534 -14.953   5.025  1.00  0.00    -0.358 N 
HETATM   18  H   UNL     1      40.989 -15.675   5.512  1.00  0.00     0.166 HD
BRANCH  17  19
HETATM   19  C   UNL     1      41.408 -14.951   3.659  1.00  0.00     0.091 A 
HETATM   20  C   UNL     1      40.897 -13.902   2.892  1.00  0.00     0.080 A 
HETATM   21  C   UNL     1      40.820 -14.259   1.488  1.00  0.00    -0.026 A 
HETATM   22  C   UNL     1      41.311 -15.529   1.259  1.00  0.00    -0.008 A 
HETATM   23  C   UNL     1      40.297 -13.415   0.356  1.00  0.00     0.041 C 
HETATM   24  S   UNL     1      41.858 -16.284   2.670  1.00  0.00    -0.075 SA
HETATM   25  C   UNL     1      41.343 -16.228  -0.066  1.00  0.00     0.047 C 
HETATM   26  C   UNL     1      41.147 -15.225  -1.210  1.00  0.00     0.005 C 
HETATM   27  C   UNL     1      40.010 -14.242  -0.906  1.00  0.00     0.005 C 
BRANCH  20  28
HETATM   28  C   UNL     1      40.503 -12.629   3.508  1.00  0.00     0.296 C 
HETATM   29  O   UNL     1      41.116 -11.581   3.329  1.00  0.00    -0.259 OA
BRANCH  28  30
HETATM   30  O   UNL     1      39.374 -12.730   4.266  1.00  0.00    -0.318 OA
BRANCH  30  31
HETATM   31  C   UNL     1      39.235 -11.782   5.334  1.00  0.00     0.174 C 
HETATM   32  C   UNL     1      39.437 -12.482   6.664  1.00  0.00     0.034 C 
ENDBRANCH  30  31
ENDBRANCH  28  30
ENDBRANCH  20  28
ENDBRANCH  17  19
ENDBRANCH   1  17
TORSDOF 7
ENDMDL
MODEL 4
REMARK VINA RESULT:      -8.4      5.055      7.925
REMARK  7 active torsions:
REMARK  status: ('A' for Active; 'I' for Inactive)
REMARK    1  A    between atoms: C_2  and  O_3 
REMARK    2  A    between atoms: O_3  and  C_4 
REMARK    3  A    between atoms: C_4  and  C_5 
REMARK    4  A    between atoms: C_6  and  N_7 
REMARK    5  A    between atoms: N_7  and  C_8 
REMARK    6  A    between atoms: C_9  and  C_10 
REMARK    7  A    between atoms: C_13  and  C_14 
ROOT
HETATM    1  C   UNL     1      41.811 -10.834   6.910  1.00  0.00     0.114 C 
HETATM    2  C   UNL     1      41.415 -11.503   5.807  1.00  0.00     0.095 C 
HETATM    3  C   UNL     1      41.053 -10.754   4.647  1.00  0.00     0.103 C 
HETATM    4  N   UNL     1      40.748 -10.102   3.736  1.00  0.00    -0.191 NA
ENDROOT
BRANCH   2   5
HETATM    5  C   UNL     1      41.298 -12.928   5.756  1.00  0.00     0.120 A 
HETATM    6  S   UNL     1      39.751 -13.694   5.525  1.00  0.00    -0.078 SA
HETATM    7  C   UNL     1      40.503 -15.225   5.457  1.00  0.00     0.084 A 
HETATM    8  C   UNL     1      41.870 -15.090   5.571  1.00  0.00     0.075 A 
HETATM    9  N   UNL     1      42.307 -13.785   5.749  1.00  0.00    -0.239 NA
BRANCH   8  10
HETATM   10  C   UNL     1      42.814 -16.203   5.520  1.00  0.00    -0.007 A 
HETATM   11  C   UNL     1      43.725 -16.450   6.560  1.00  0.00     0.017 A 
HETATM   12  C   UNL     1      44.615 -17.525   6.484  1.00  0.00     0.043 A 
HETATM   13  C   UNL     1      44.593 -18.357   5.372  1.00  0.00     0.116 A 
HETATM   14  F   UNL     1      45.447 -19.386   5.301  1.00  0.00    -0.206 F 
HETATM   15  C   UNL     1      43.696 -18.138   4.335  1.00  0.00     0.043 A 
HETATM   16  C   UNL     1      42.804 -17.065   4.411  1.00  0.00     0.017 A 
ENDBRANCH   8  10
ENDBRANCH   2   5
BRANCH   1  17
HETATM   17  N   UNL     1      42.270 -11.285   8.131  1.00  0.00    -0.358 N 
HETATM   18  H   UNL     1      42.254 -12.307   8.224  1.00  0.00     0.166 HD
BRANCH  17  19
HETATM   19  C   UNL     1      42.325 -10.593   9.314  1.00  0.00     0.091 A 
HETATM   20  C   UNL     1      43.297 -10.751  10.304  1.00  0.00     0.080 A 
HETATM   21  C   UNL     1      43.011  -9.931  11.466  1.00  0.00    -0.026 A 
HETATM   22  C   UNL     1      41.873  -9.171  11.283  1.00  0.00    -0.008 A 
HETATM   23  C   UNL     1      43.802  -9.849  12.745  1.00  0.00     0.041 C 
HETATM   24  S   UNL     1      41.159  -9.413   9.769  1.00  0.00    -0.075 SA
HETATM   25  C   UNL     1      41.268  -8.246  12.296  1.00  0.00     0.047 C 
HETATM   26  C   UNL     1      42.277  -7.927  13.406  1.00  0.00     0.005 C 
HETATM   27  C   UNL     1      43.006  -9.189  13.882  1.00  0.00     0.005 C 
BRANCH  20  28
HETATM   28  C   UNL     1      44.436 -11.659  10.116  1.00  0.00     0.296 C 
HETATM   29  O   UNL     1      44.646 -12.629  10.838  1.00  0.00    -0.259 OA
BRANCH  28  30
HETATM   30  O   UNL     1      45.209 -11.328   9.042  1.00  0.00    -0.318 OA
BRANCH  30  31
HETATM   31  C   UNL     1      46.059 -12.362   8.525  1.00  0.00     0.174 C 
HETATM   32  C   UNL     1      45.251 -13.289   7.638  1.00  0.00     0.034 C 
ENDBRANCH  30  31
ENDBRANCH  28  30
ENDBRANCH  20  28
ENDBRANCH  17  19
ENDBRANCH   1  17
TORSDOF 7
ENDMDL
MODEL 5
REMARK VINA RESULT:      -8.2      5.547      9.612
REMARK  7 active torsions:
REMARK  status: ('A' for Active; 'I' for Inactive)
REMARK    1  A    between atoms: C_2  and  O_3 
REMARK    2  A    between atoms: O_3  and  C_4 
REMARK    3  A    between atoms: C_4  and  C_5 
REMARK    4  A    between atoms: C_6  and  N_7 
REMARK    5  A    between atoms: N_7  and  C_8 
REMARK    6  A    between atoms: C_9  and  C_10 
REMARK    7  A    between atoms: C_13  and  C_14 
ROOT
HETATM    1  C   UNL     1      41.153 -12.398   5.674  1.00  0.00     0.114 C 
HETATM    2  C   UNL     1      40.445 -11.321   6.073  1.00  0.00     0.095 C 
HETATM    3  C   UNL     1      39.272 -10.966   5.341  1.00  0.00     0.103 C 
HETATM    4  N   UNL     1      38.338 -10.704   4.702  1.00  0.00    -0.191 NA
ENDROOT
BRANCH   2   5
HETATM    5  C   UNL     1      40.835 -10.490   7.170  1.00  0.00     0.120 A 
HETATM    6  S   UNL     1      40.755  -8.754   7.053  1.00  0.00    -0.078 SA
HETATM    7  C   UNL     1      41.219  -8.608   8.689  1.00  0.00     0.084 A 
HETATM    8  C   UNL     1      41.373  -9.856   9.254  1.00  0.00     0.075 A 
HETATM    9  N   UNL     1      41.162 -10.914   8.380  1.00  0.00    -0.239 NA
BRANCH   8  10
HETATM   10  C   UNL     1      41.735 -10.089  10.649  1.00  0.00    -0.007 A 
HETATM   11  C   UNL     1      42.928  -9.590  11.199  1.00  0.00     0.017 A 
HETATM   12  C   UNL     1      43.246  -9.828  12.540  1.00  0.00     0.043 A 
HETATM   13  C   UNL     1      42.371 -10.558  13.333  1.00  0.00     0.116 A 
HETATM   14  F   UNL     1      42.678 -10.784  14.616  1.00  0.00    -0.206 F 
HETATM   15  C   UNL     1      41.181 -11.054  12.815  1.00  0.00     0.043 A 
HETATM   16  C   UNL     1      40.862 -10.815  11.476  1.00  0.00     0.017 A 
ENDBRANCH   8  10
ENDBRANCH   2   5
BRANCH   1  17
HETATM   17  N   UNL     1      42.271 -13.002   6.215  1.00  0.00    -0.358 N 
HETATM   18  H   UNL     1      43.052 -12.356   6.372  1.00  0.00     0.166 HD
BRANCH  17  19
HETATM   19  C   UNL     1      42.613 -14.330   6.165  1.00  0.00     0.091 A 
HETATM   20  C   UNL     1      43.835 -14.870   6.572  1.00  0.00     0.080 A 
HETATM   21  C   UNL     1      43.904 -16.294   6.302  1.00  0.00    -0.026 A 
HETATM   22  C   UNL     1      42.729 -16.762   5.748  1.00  0.00    -0.008 A 
HETATM   23  C   UNL     1      45.060 -17.220   6.565  1.00  0.00     0.041 C 
HETATM   24  S   UNL     1      41.564 -15.550   5.557  1.00  0.00    -0.075 SA
HETATM   25  C   UNL     1      42.472 -18.172   5.308  1.00  0.00     0.047 C 
HETATM   26  C   UNL     1      43.510 -19.124   5.914  1.00  0.00     0.005 C 
HETATM   27  C   UNL     1      44.928 -18.550   5.808  1.00  0.00     0.005 C 
BRANCH  20  28
HETATM   28  C   UNL     1      44.872 -14.031   7.187  1.00  0.00     0.296 C 
HETATM   29  O   UNL     1      45.877 -13.662   6.588  1.00  0.00    -0.259 OA
BRANCH  28  30
HETATM   30  O   UNL     1      44.582 -13.684   8.474  1.00  0.00    -0.318 OA
BRANCH  30  31
HETATM   31  C   UNL     1      44.642 -12.285   8.786  1.00  0.00     0.174 C 
HETATM   32  C   UNL     1      45.314 -12.092  10.131  1.00  0.00     0.034 C 
ENDBRANCH  30  31
ENDBRANCH  28  30
ENDBRANCH  20  28
ENDBRANCH  17  19
ENDBRANCH   1  17
TORSDOF 7
ENDMDL
MODEL 6
REMARK VINA RESULT:      -8.1      4.875      7.739
REMARK  7 active torsions:
REMARK  status: ('A' for Active; 'I' for Inactive)
REMARK    1  A    between atoms: C_2  and  O_3 
REMARK    2  A    between atoms: O_3  and  C_4 
REMARK    3  A    between atoms: C_4  and  C_5 
REMARK    4  A    between atoms: C_6  and  N_7 
REMARK    5  A    between atoms: N_7  and  C_8 
REMARK    6  A    between atoms: C_9  and  C_10 
REMARK    7  A    between atoms: C_13  and  C_14 
ROOT
HETATM    1  C   UNL     1      41.778 -10.784   6.614  1.00  0.00     0.114 C 
HETATM    2  C   UNL     1      41.378 -11.350   5.456  1.00  0.00     0.095 C 
HETATM    3  C   UNL     1      41.044 -10.500   4.359  1.00  0.00     0.103 C 
HETATM    4  N   UNL     1      40.764  -9.768   3.503  1.00  0.00    -0.191 NA
ENDROOT
BRANCH   2   5
HETATM    5  C   UNL     1      41.230 -12.764   5.286  1.00  0.00     0.120 A 
HETATM    6  S   UNL     1      39.758 -13.573   5.746  1.00  0.00    -0.078 SA
HETATM    7  C   UNL     1      40.355 -15.045   5.123  1.00  0.00     0.084 A 
HETATM    8  C   UNL     1      41.604 -14.857   4.569  1.00  0.00     0.075 A 
HETATM    9  N   UNL     1      42.092 -13.561   4.676  1.00  0.00    -0.239 NA
BRANCH   8  10
HETATM   10  C   UNL     1      42.384 -15.907   3.921  1.00  0.00    -0.007 A 
HETATM   11  C   UNL     1      43.099 -15.673   2.735  1.00  0.00     0.017 A 
HETATM   12  C   UNL     1      43.840 -16.698   2.138  1.00  0.00     0.043 A 
HETATM   13  C   UNL     1      43.871 -17.955   2.729  1.00  0.00     0.116 A 
HETATM   14  F   UNL     1      44.580 -18.935   2.155  1.00  0.00    -0.206 F 
HETATM   15  C   UNL     1      43.179 -18.208   3.906  1.00  0.00     0.043 A 
HETATM   16  C   UNL     1      42.440 -17.183   4.504  1.00  0.00     0.017 A 
ENDBRANCH   8  10
ENDBRANCH   2   5
BRANCH   1  17
HETATM   17  N   UNL     1      42.215 -11.346   7.797  1.00  0.00    -0.358 N 
HETATM   18  H   UNL     1      42.202 -12.372   7.795  1.00  0.00     0.166 HD
BRANCH  17  19
HETATM   19  C   UNL     1      42.242 -10.767   9.041  1.00  0.00     0.091 A 
HETATM   20  C   UNL     1      43.350 -10.713   9.889  1.00  0.00     0.080 A 
HETATM   21  C   UNL     1      43.015 -10.110  11.165  1.00  0.00    -0.026 A 
HETATM   22  C   UNL     1      41.696  -9.703  11.202  1.00  0.00    -0.008 A 
HETATM   23  C   UNL     1      43.924  -9.904  12.347  1.00  0.00     0.041 C 
HETATM   24  S   UNL     1      40.870 -10.019   9.760  1.00  0.00    -0.075 SA
HETATM   25  C   UNL     1      41.007  -9.080  12.379  1.00  0.00     0.047 C 
HETATM   26  C   UNL     1      42.034  -8.572  13.399  1.00  0.00     0.005 C 
HETATM   27  C   UNL     1      43.146  -9.601  13.636  1.00  0.00     0.005 C 
BRANCH  20  28
HETATM   28  C   UNL     1      44.658 -11.231   9.467  1.00  0.00     0.296 C 
HETATM   29  O   UNL     1      45.660 -10.528   9.381  1.00  0.00    -0.259 OA
BRANCH  28  30
HETATM   30  O   UNL     1      44.644 -12.572   9.216  1.00  0.00    -0.318 OA
BRANCH  30  31
HETATM   31  C   UNL     1      45.393 -13.015   8.076  1.00  0.00     0.174 C 
HETATM   32  C   UNL     1      44.577 -14.024   7.291  1.00  0.00     0.034 C 
ENDBRANCH  30  31
ENDBRANCH  28  30
ENDBRANCH  20  28
ENDBRANCH  17  19
ENDBRANCH   1  17
TORSDOF 7
ENDMDL
MODEL 7
REMARK VINA RESULT:      -8.0      2.972      7.181
REMARK  7 active torsions:
REMARK  status: ('A' for Active; 'I' for Inactive)
REMARK    1  A    between atoms: C_2  and  O_3 
REMARK    2  A    between atoms: O_3  and  C_4 
REMARK    3  A    between atoms: C_4  and  C_5 
REMARK    4  A    between atoms: C_6  and  N_7 
REMARK    5  A    between atoms: N_7  and  C_8 
REMARK    6  A    between atoms: C_9  and  C_10 
REMARK    7  A    between atoms: C_13  and  C_14 
ROOT
HETATM    1  C   UNL     1      43.539 -15.763   6.986  1.00  0.00     0.114 C 
HETATM    2  C   UNL     1      43.843 -14.507   6.599  1.00  0.00     0.095 C 
HETATM    3  C   UNL     1      44.734 -13.740   7.409  1.00  0.00     0.103 C 
HETATM    4  N   UNL     1      45.446 -13.148   8.109  1.00  0.00    -0.191 NA
ENDROOT
BRANCH   2   5
HETATM    5  C   UNL     1      43.281 -13.888   5.437  1.00  0.00     0.120 A 
HETATM    6  S   UNL     1      44.030 -14.066   3.875  1.00  0.00    -0.078 SA
HETATM    7  C   UNL     1      42.745 -13.213   3.145  1.00  0.00     0.084 A 
HETATM    8  C   UNL     1      41.802 -12.870   4.091  1.00  0.00     0.075 A 
HETATM    9  N   UNL     1      42.122 -13.251   5.387  1.00  0.00    -0.239 NA
BRANCH   8  10
HETATM   10  C   UNL     1      40.561 -12.161   3.797  1.00  0.00    -0.007 A 
HETATM   11  C   UNL     1      39.680 -12.594   2.791  1.00  0.00     0.017 A 
HETATM   12  C   UNL     1      38.497 -11.895   2.534  1.00  0.00     0.043 A 
HETATM   13  C   UNL     1      38.189 -10.767   3.284  1.00  0.00     0.116 A 
HETATM   14  F   UNL     1      37.056 -10.100   3.036  1.00  0.00    -0.206 F 
HETATM   15  C   UNL     1      39.040 -10.325   4.290  1.00  0.00     0.043 A 
HETATM   16  C   UNL     1      40.221 -11.024   4.548  1.00  0.00     0.017 A 
ENDBRANCH   8  10
ENDBRANCH   2   5
BRANCH   1  17
HETATM   17  N   UNL     1      42.772 -16.740   6.382  1.00  0.00    -0.358 N 
HETATM   18  H   UNL     1      41.923 -16.979   6.906  1.00  0.00     0.166 HD
BRANCH  17  19
HETATM   19  C   UNL     1      43.179 -17.683   5.472  1.00  0.00     0.091 A 
HETATM   20  C   UNL     1      42.707 -17.807   4.164  1.00  0.00     0.080 A 
HETATM   21  C   UNL     1      43.279 -18.963   3.499  1.00  0.00    -0.026 A 
HETATM   22  C   UNL     1      44.178 -19.623   4.314  1.00  0.00    -0.008 A 
HETATM   23  C   UNL     1      42.996 -19.449   2.103  1.00  0.00     0.041 C 
HETATM   24  S   UNL     1      44.349 -18.892   5.829  1.00  0.00    -0.075 SA
HETATM   25  C   UNL     1      44.919 -20.877   3.960  1.00  0.00     0.047 C 
HETATM   26  C   UNL     1      44.879 -21.120   2.447  1.00  0.00     0.005 C 
HETATM   27  C   UNL     1      43.473 -20.893   1.879  1.00  0.00     0.005 C 
BRANCH  20  28
HETATM   28  C   UNL     1      41.745 -16.848   3.606  1.00  0.00     0.296 C 
HETATM   29  O   UNL     1      40.827 -16.363   4.259  1.00  0.00    -0.259 OA
BRANCH  28  30
HETATM   30  O   UNL     1      42.003 -16.532   2.304  1.00  0.00    -0.318 OA
BRANCH  30  31
HETATM   31  C   UNL     1      40.861 -16.326   1.460  1.00  0.00     0.174 C 
HETATM   32  C   UNL     1      41.317 -15.836   0.099  1.00  0.00     0.034 C 
ENDBRANCH  30  31
ENDBRANCH  28  30
ENDBRANCH  20  28
ENDBRANCH  17  19
ENDBRANCH   1  17
TORSDOF 7
ENDMDL
MODEL 8
REMARK VINA RESULT:      -7.8      2.994      6.166
REMARK  7 active torsions:
REMARK  status: ('A' for Active; 'I' for Inactive)
REMARK    1  A    between atoms: C_2  and  O_3 
REMARK    2  A    between atoms: O_3  and  C_4 
REMARK    3  A    between atoms: C_4  and  C_5 
REMARK    4  A    between atoms: C_6  and  N_7 
REMARK    5  A    between atoms: N_7  and  C_8 
REMARK    6  A    between atoms: C_9  and  C_10 
REMARK    7  A    between atoms: C_13  and  C_14 
ROOT
HETATM    1  C   UNL     1      42.213 -12.653   4.240  1.00  0.00     0.114 C 
HETATM    2  C   UNL     1      42.070 -13.280   3.054  1.00  0.00     0.095 C 
HETATM    3  C   UNL     1      42.168 -12.509   1.857  1.00  0.00     0.103 C 
HETATM    4  N   UNL     1      42.235 -11.837   0.912  1.00  0.00    -0.191 NA
ENDROOT
BRANCH   2   5
HETATM    5  C   UNL     1      41.781 -14.677   2.937  1.00  0.00     0.120 A 
HETATM    6  S   UNL     1      40.256 -15.227   2.302  1.00  0.00    -0.078 SA
HETATM    7  C   UNL     1      40.789 -16.847   2.385  1.00  0.00     0.084 A 
HETATM    8  C   UNL     1      42.088 -16.898   2.845  1.00  0.00     0.075 A 
HETATM    9  N   UNL     1      42.635 -15.662   3.163  1.00  0.00    -0.239 NA
BRANCH   8  10
HETATM   10  C   UNL     1      42.856 -18.129   3.005  1.00  0.00    -0.007 A 
HETATM   11  C   UNL     1      43.530 -18.431   4.200  1.00  0.00     0.017 A 
HETATM   12  C   UNL     1      44.256 -19.620   4.324  1.00  0.00     0.043 A 
HETATM   13  C   UNL     1      44.305 -20.509   3.258  1.00  0.00     0.116 A 
HETATM   14  F   UNL     1      45.001 -21.646   3.380  1.00  0.00    -0.206 F 
HETATM   15  C   UNL     1      43.640 -20.236   2.070  1.00  0.00     0.043 A 
HETATM   16  C   UNL     1      42.912 -19.049   1.946  1.00  0.00     0.017 A 
ENDBRANCH   8  10
ENDBRANCH   2   5
BRANCH   1  17
HETATM   17  N   UNL     1      42.229 -13.142   5.531  1.00  0.00    -0.358 N 
HETATM   18  H   UNL     1      41.582 -13.924   5.683  1.00  0.00     0.166 HD
BRANCH  17  19
HETATM   19  C   UNL     1      42.634 -12.492   6.669  1.00  0.00     0.091 A 
HETATM   20  C   UNL     1      43.756 -12.816   7.435  1.00  0.00     0.080 A 
HETATM   21  C   UNL     1      43.848 -11.987   8.622  1.00  0.00    -0.026 A 
HETATM   22  C   UNL     1      42.826 -11.060   8.673  1.00  0.00    -0.008 A 
HETATM   23  C   UNL     1      44.891 -12.052   9.706  1.00  0.00     0.041 C 
HETATM   24  S   UNL     1      41.783 -11.159   7.345  1.00  0.00    -0.075 SA
HETATM   25  C   UNL     1      42.594 -10.076   9.780  1.00  0.00     0.047 C 
HETATM   26  C   UNL     1      43.849  -9.937  10.651  1.00  0.00     0.005 C 
HETATM   27  C   UNL     1      44.460 -11.305  10.977  1.00  0.00     0.005 C 
BRANCH  20  28
HETATM   28  C   UNL     1      44.679 -13.881   7.022  1.00  0.00     0.296 C 
HETATM   29  O   UNL     1      45.538 -13.727   6.160  1.00  0.00    -0.259 OA
BRANCH  28  30
HETATM   30  O   UNL     1      44.499 -15.040   7.719  1.00  0.00    -0.318 OA
BRANCH  30  31
HETATM   31  C   UNL     1      43.713 -16.055   7.079  1.00  0.00     0.174 C 
HETATM   32  C   UNL     1      43.350 -17.129   8.086  1.00  0.00     0.034 C 
ENDBRANCH  30  31
ENDBRANCH  28  30
ENDBRANCH  20  28
ENDBRANCH  17  19
ENDBRANCH   1  17
TORSDOF 7
ENDMDL
MODEL 9
REMARK VINA RESULT:      -7.7      2.308      3.590
REMARK  7 active torsions:
REMARK  status: ('A' for Active; 'I' for Inactive)
REMARK    1  A    between atoms: C_2  and  O_3 
REMARK    2  A    between atoms: O_3  and  C_4 
REMARK    3  A    between atoms: C_4  and  C_5 
REMARK    4  A    between atoms: C_6  and  N_7 
REMARK    5  A    between atoms: N_7  and  C_8 
REMARK    6  A    between atoms: C_9  and  C_10 
REMARK    7  A    between atoms: C_13  and  C_14 
ROOT
HETATM    1  C   UNL     1      41.035 -14.218   3.641  1.00  0.00     0.114 C 
HETATM    2  C   UNL     1      41.896 -14.375   4.668  1.00  0.00     0.095 C 
HETATM    3  C   UNL     1      42.063 -13.299   5.591  1.00  0.00     0.103 C 
HETATM    4  N   UNL     1      42.180 -12.390   6.303  1.00  0.00    -0.191 NA
ENDROOT
BRANCH   2   5
HETATM    5  C   UNL     1      42.686 -15.555   4.853  1.00  0.00     0.120 A 
HETATM    6  S   UNL     1      43.505 -15.857   6.360  1.00  0.00    -0.078 SA
HETATM    7  C   UNL     1      44.019 -17.382   5.791  1.00  0.00     0.084 A 
HETATM    8  C   UNL     1      43.525 -17.609   4.524  1.00  0.00     0.075 A 
HETATM    9  N   UNL     1      42.779 -16.562   4.001  1.00  0.00    -0.239 NA
BRANCH   8  10
HETATM   10  C   UNL     1      43.751 -18.832   3.760  1.00  0.00    -0.007 A 
HETATM   11  C   UNL     1      43.243 -18.998   2.461  1.00  0.00     0.017 A 
HETATM   12  C   UNL     1      43.478 -20.181   1.752  1.00  0.00     0.043 A 
HETATM   13  C   UNL     1      44.225 -21.195   2.338  1.00  0.00     0.116 A 
HETATM   14  F   UNL     1      44.448 -22.326   1.657  1.00  0.00    -0.206 F 
HETATM   15  C   UNL     1      44.745 -21.050   3.617  1.00  0.00     0.043 A 
HETATM   16  C   UNL     1      44.512 -19.868   4.325  1.00  0.00     0.017 A 
ENDBRANCH   8  10
ENDBRANCH   2   5
BRANCH   1  17
HETATM   17  N   UNL     1      40.632 -15.091   2.651  1.00  0.00    -0.358 N 
HETATM   18  H   UNL     1      40.609 -16.072   2.952  1.00  0.00     0.166 HD
BRANCH  17  19
HETATM   19  C   UNL     1      40.680 -14.900   1.293  1.00  0.00     0.091 A 
HETATM   20  C   UNL     1      40.141 -13.810   0.606  1.00  0.00     0.080 A 
HETATM   21  C   UNL     1      40.288 -13.960  -0.829  1.00  0.00    -0.026 A 
HETATM   22  C   UNL     1      40.960 -15.122  -1.152  1.00  0.00    -0.008 A 
HETATM   23  C   UNL     1      39.809 -13.018  -1.902  1.00  0.00     0.041 C 
HETATM   24  S   UNL     1      41.416 -16.015   0.210  1.00  0.00    -0.075 SA
HETATM   25  C   UNL     1      41.247 -15.608  -2.540  1.00  0.00     0.047 C 
HETATM   26  C   UNL     1      41.071 -14.474  -3.557  1.00  0.00     0.005 C 
HETATM   27  C   UNL     1      39.790 -13.675  -3.290  1.00  0.00     0.005 C 
BRANCH  20  28
HETATM   28  C   UNL     1      39.516 -12.691   1.323  1.00  0.00     0.296 C 
HETATM   29  O   UNL     1      40.049 -11.594   1.449  1.00  0.00    -0.259 OA
BRANCH  28  30
HETATM   30  O   UNL     1      38.273 -12.992   1.800  1.00  0.00    -0.318 OA
BRANCH  30  31
HETATM   31  C   UNL     1      37.268 -13.288   0.821  1.00  0.00     0.174 C 
HETATM   32  C   UNL     1      36.776 -11.998   0.192  1.00  0.00     0.034 C 
ENDBRANCH  30  31
ENDBRANCH  28  30
ENDBRANCH  20  28
ENDBRANCH  17  19
ENDBRANCH   1  17
TORSDOF 7
ENDMDL
MODEL 10
REMARK VINA RESULT:      -7.7      3.897      8.249
REMARK  7 active torsions:
REMARK  status: ('A' for Active; 'I' for Inactive)
REMARK    1  A    between atoms: C_2  and  O_3 
REMARK    2  A    between atoms: O_3  and  C_4 
REMARK    3  A    between atoms: C_4  and  C_5 
REMARK    4  A    between atoms: C_6  and  N_7 
REMARK    5  A    between atoms: N_7  and  C_8 
REMARK    6  A    between atoms: C_9  and  C_10 
REMARK    7  A    between atoms: C_13  and  C_14 
ROOT
HETATM    1  C   UNL     1      39.989 -15.528   1.333  1.00  0.00     0.114 C 
HETATM    2  C   UNL     1      39.550 -14.316   0.934  1.00  0.00     0.095 C 
HETATM    3  C   UNL     1      39.360 -14.084  -0.461  1.00  0.00     0.103 C 
HETATM    4  N   UNL     1      39.241 -13.935  -1.607  1.00  0.00    -0.191 NA
ENDROOT
BRANCH   2   5
HETATM    5  C   UNL     1      39.305 -13.236   1.840  1.00  0.00     0.120 A 
HETATM    6  S   UNL     1      38.036 -12.081   1.537  1.00  0.00    -0.078 SA
HETATM    7  C   UNL     1      38.345 -11.326   3.036  1.00  0.00     0.084 A 
HETATM    8  C   UNL     1      39.349 -11.991   3.707  1.00  0.00     0.075 A 
HETATM    9  N   UNL     1      39.890 -13.066   3.014  1.00  0.00    -0.239 NA
BRANCH   8  10
HETATM   10  C   UNL     1      39.836 -11.624   5.033  1.00  0.00    -0.007 A 
HETATM   11  C   UNL     1      40.875 -10.695   5.209  1.00  0.00     0.017 A 
HETATM   12  C   UNL     1      41.319 -10.361   6.493  1.00  0.00     0.043 A 
HETATM   13  C   UNL     1      40.722 -10.951   7.600  1.00  0.00     0.116 A 
HETATM   14  F   UNL     1      41.149 -10.630   8.828  1.00  0.00    -0.206 F 
HETATM   15  C   UNL     1      39.687 -11.865   7.451  1.00  0.00     0.043 A 
HETATM   16  C   UNL     1      39.242 -12.197   6.169  1.00  0.00     0.017 A 
ENDBRANCH   8  10
ENDBRANCH   2   5
BRANCH   1  17
HETATM   17  N   UNL     1      40.198 -16.049   2.595  1.00  0.00    -0.358 N 
HETATM   18  H   UNL     1      39.813 -15.469   3.348  1.00  0.00     0.166 HD
BRANCH  17  19
HETATM   19  C   UNL     1      41.165 -16.942   2.983  1.00  0.00     0.091 A 
HETATM   20  C   UNL     1      41.620 -17.130   4.290  1.00  0.00     0.080 A 
HETATM   21  C   UNL     1      42.710 -18.086   4.342  1.00  0.00    -0.026 A 
HETATM   22  C   UNL     1      42.994 -18.599   3.092  1.00  0.00    -0.008 A 
HETATM   23  C   UNL     1      43.483 -18.528   5.556  1.00  0.00     0.041 C 
HETATM   24  S   UNL     1      41.992 -17.973   1.882  1.00  0.00    -0.075 SA
HETATM   25  C   UNL     1      44.086 -19.577   2.777  1.00  0.00     0.047 C 
HETATM   26  C   UNL     1      44.590 -20.254   4.057  1.00  0.00     0.005 C 
HETATM   27  C   UNL     1      44.794 -19.238   5.187  1.00  0.00     0.005 C 
BRANCH  20  28
HETATM   28  C   UNL     1      41.019 -16.406   5.418  1.00  0.00     0.296 C 
HETATM   29  O   UNL     1      40.483 -16.970   6.366  1.00  0.00    -0.259 OA
BRANCH  28  30
HETATM   30  O   UNL     1      41.150 -15.052   5.312  1.00  0.00    -0.318 OA
BRANCH  30  31
HETATM   31  C   UNL     1      42.391 -14.494   5.765  1.00  0.00     0.174 C 
HETATM   32  C   UNL     1      43.033 -13.703   4.641  1.00  0.00     0.034 C 
ENDBRANCH  30  31
ENDBRANCH  28  30
ENDBRANCH  20  28
ENDBRANCH  17  19
ENDBRANCH   1  17
TORSDOF 7
ENDMDL
