MODEL 1
REMARK VINA RESULT:      -9.7      0.000      0.000
REMARK  8 active torsions:
REMARK  status: ('A' for Active; 'I' for Inactive)
REMARK    1  A    between atoms: C_4  and  C_5 
REMARK    2  A    between atoms: C_5  and  C_6 
REMARK    3  A    between atoms: C_5  and  C_31 
REMARK       I    between atoms: C_6  and  N_7 
REMARK    4  A    between atoms: N_7  and  C_8 
REMARK    5  A    between atoms: C_8  and  N_9 
REMARK    6  A    between atoms: N_9  and  C_10 
REMARK    7  A    between atoms: C_13  and  N_14 
REMARK       I    between atoms: N_17  and  C_18 
REMARK    8  A    between atoms: C_18  and  C_19 
ROOT
HETATM    1  N   UNL     1      42.363 -15.260   6.338  1.00  0.00    -0.333 N 
HETATM    2  H   UNL     1      42.095 -14.632   7.098  1.00  0.00     0.168 HD
ENDROOT
BRANCH   1   3
HETATM    3  C   UNL     1      43.125 -16.318   6.774  1.00  0.00     0.178 C 
HETATM    4  S   UNL     1      43.467 -16.832   8.324  1.00  0.00    -0.040 SA
BRANCH   3   5
HETATM    5  N   UNL     1      43.749 -17.028   5.756  1.00  0.00    -0.303 N 
HETATM    6  C   UNL     1      43.465 -18.303   5.272  1.00  0.00     0.236 C 
HETATM    7  O   UNL     1      42.762 -19.103   5.895  1.00  0.00    -0.272 OA
HETATM    8  H   UNL     1      44.413 -16.471   5.233  1.00  0.00     0.171 HD
BRANCH   6   9
HETATM    9  C   UNL     1      44.074 -18.645   3.905  1.00  0.00     0.144 C 
BRANCH   9  10
HETATM   10  C   UNL     1      43.357 -18.065   2.686  1.00  0.00    -0.041 A 
HETATM   11  C   UNL     1      41.948 -18.063   2.682  1.00  0.00     0.008 A 
HETATM   12  C   UNL     1      41.227 -17.540   1.607  1.00  0.00     0.001 A 
HETATM   13  C   UNL     1      41.902 -17.012   0.513  1.00  0.00     0.000 A 
HETATM   14  C   UNL     1      43.294 -17.016   0.489  1.00  0.00     0.001 A 
HETATM   15  C   UNL     1      44.018 -17.542   1.564  1.00  0.00     0.008 A 
ENDBRANCH   9  10
BRANCH   9  16
HETATM   16  C   UNL     1      44.378 -20.144   3.830  1.00  0.00    -0.041 A 
HETATM   17  C   UNL     1      44.768 -20.815   5.003  1.00  0.00     0.008 A 
HETATM   18  C   UNL     1      44.996 -22.191   4.995  1.00  0.00     0.001 A 
HETATM   19  C   UNL     1      44.833 -22.918   3.819  1.00  0.00     0.000 A 
HETATM   20  C   UNL     1      44.443 -22.270   2.650  1.00  0.00     0.001 A 
HETATM   21  C   UNL     1      44.214 -20.893   2.652  1.00  0.00     0.008 A 
ENDBRANCH   9  16
ENDBRANCH   6   9
ENDBRANCH   3   5
ENDBRANCH   1   3
BRANCH   1  22
HETATM   22  C   UNL     1      41.816 -14.895   5.091  1.00  0.00     0.034 A 
HETATM   23  C   UNL     1      40.467 -14.879   4.754  1.00  0.00     0.031 A 
HETATM   24  C   UNL     1      40.050 -14.465   3.474  1.00  0.00     0.026 A 
HETATM   25  C   UNL     1      40.967 -14.041   2.506  1.00  0.00     0.010 A 
HETATM   26  C   UNL     1      42.321 -14.076   2.854  1.00  0.00     0.026 A 
HETATM   27  C   UNL     1      42.742 -14.504   4.116  1.00  0.00     0.031 A 
BRANCH  25  28
HETATM   28  N   UNL     1      40.614 -13.604   1.226  1.00  0.00    -0.280 NA
HETATM   29  C   UNL     1      39.520 -14.397   0.623  1.00  0.00     0.115 C 
HETATM   30  C   UNL     1      38.921 -13.643  -0.579  1.00  0.00     0.141 C 
HETATM   31  N   UNL     1      39.931 -13.162  -1.534  1.00  0.00    -0.345 N 
HETATM   32  C   UNL     1      39.693 -12.935  -2.896  1.00  0.00     0.260 C 
HETATM   33  C   UNL     1      41.124 -12.541  -0.937  1.00  0.00     0.141 C 
HETATM   34  O   UNL     1      40.586 -12.501  -3.625  1.00  0.00    -0.267 OA
HETATM   35  C   UNL     1      41.692 -13.331   0.255  1.00  0.00     0.115 C 
BRANCH  32  36
HETATM   36  C   UNL     1      38.363 -13.218  -3.411  1.00  0.00     0.072 A 
HETATM   37  S   UNL     1      37.948 -14.835  -3.792  1.00  0.00    -0.097 SA
HETATM   38  C   UNL     1      36.383 -14.379  -4.311  1.00  0.00     0.050 A 
HETATM   39  C   UNL     1      36.184 -13.019  -4.223  1.00  0.00     0.009 A 
HETATM   40  C   UNL     1      37.334 -12.345  -3.717  1.00  0.00     0.025 A 
ENDBRANCH  32  36
ENDBRANCH  25  28
ENDBRANCH   1  22
TORSDOF 8
ENDMDL
MODEL 2
REMARK VINA RESULT:      -9.5      4.736      8.884
REMARK  8 active torsions:
REMARK  status: ('A' for Active; 'I' for Inactive)
REMARK    1  A    between atoms: C_4  and  C_5 
REMARK    2  A    between atoms: C_5  and  C_6 
REMARK    3  A    between atoms: C_5  and  C_31 
REMARK       I    between atoms: C_6  and  N_7 
REMARK    4  A    between atoms: N_7  and  C_8 
REMARK    5  A    between atoms: C_8  and  N_9 
REMARK    6  A    between atoms: N_9  and  C_10 
REMARK    7  A    between atoms: C_13  and  N_14 
REMARK       I    between atoms: N_17  and  C_18 
REMARK    8  A    between atoms: C_18  and  C_19 
ROOT
HETATM    1  N   UNL     1      42.561 -14.051   1.910  1.00  0.00    -0.333 N 
HETATM    2  H   UNL     1      43.342 -13.643   1.393  1.00  0.00     0.168 HD
ENDROOT
BRANCH   1   3
HETATM    3  C   UNL     1      42.173 -15.268   1.403  1.00  0.00     0.178 C 
HETATM    4  S   UNL     1      41.268 -15.631   0.049  1.00  0.00    -0.040 SA
BRANCH   3   5
HETATM    5  N   UNL     1      42.552 -16.356   2.179  1.00  0.00    -0.303 N 
HETATM    6  C   UNL     1      43.744 -17.076   2.159  1.00  0.00     0.236 C 
HETATM    7  O   UNL     1      44.544 -17.002   1.222  1.00  0.00    -0.272 OA
HETATM    8  H   UNL     1      41.907 -16.548   2.934  1.00  0.00     0.171 HD
BRANCH   6   9
HETATM    9  C   UNL     1      44.005 -17.962   3.385  1.00  0.00     0.144 C 
BRANCH   9  10
HETATM   10  C   UNL     1      44.092 -19.465   3.120  1.00  0.00    -0.041 A 
HETATM   11  C   UNL     1      44.690 -20.280   4.102  1.00  0.00     0.008 A 
HETATM   12  C   UNL     1      44.795 -21.662   3.933  1.00  0.00     0.001 A 
HETATM   13  C   UNL     1      44.307 -22.256   2.774  1.00  0.00     0.000 A 
HETATM   14  C   UNL     1      43.724 -21.468   1.785  1.00  0.00     0.001 A 
HETATM   15  C   UNL     1      43.621 -20.083   1.951  1.00  0.00     0.008 A 
ENDBRANCH   9  10
BRANCH   9  16
HETATM   16  C   UNL     1      43.075 -17.555   4.531  1.00  0.00    -0.041 A 
HETATM   17  C   UNL     1      43.618 -16.867   5.631  1.00  0.00     0.008 A 
HETATM   18  C   UNL     1      42.799 -16.423   6.669  1.00  0.00     0.001 A 
HETATM   19  C   UNL     1      41.428 -16.655   6.622  1.00  0.00     0.000 A 
HETATM   20  C   UNL     1      40.873 -17.331   5.538  1.00  0.00     0.001 A 
HETATM   21  C   UNL     1      41.688 -17.777   4.496  1.00  0.00     0.008 A 
ENDBRANCH   9  16
ENDBRANCH   6   9
ENDBRANCH   3   5
ENDBRANCH   1   3
BRANCH   1  22
HETATM   22  C   UNL     1      42.164 -13.281   3.023  1.00  0.00     0.034 A 
HETATM   23  C   UNL     1      41.233 -12.249   3.024  1.00  0.00     0.031 A 
HETATM   24  C   UNL     1      40.907 -11.575   4.216  1.00  0.00     0.026 A 
HETATM   25  C   UNL     1      41.488 -11.926   5.439  1.00  0.00     0.010 A 
HETATM   26  C   UNL     1      42.434 -12.957   5.422  1.00  0.00     0.026 A 
HETATM   27  C   UNL     1      42.776 -13.616   4.237  1.00  0.00     0.031 A 
BRANCH  25  28
HETATM   28  N   UNL     1      41.194 -11.307   6.658  1.00  0.00    -0.280 NA
HETATM   29  C   UNL     1      42.253 -11.493   7.674  1.00  0.00     0.115 C 
HETATM   30  C   UNL     1      42.066 -10.485   8.823  1.00  0.00     0.141 C 
HETATM   31  N   UNL     1      40.697 -10.453   9.360  1.00  0.00    -0.345 N 
HETATM   32  C   UNL     1      40.364 -10.068  10.665  1.00  0.00     0.260 C 
HETATM   33  C   UNL     1      39.622 -10.464   8.356  1.00  0.00     0.141 C 
HETATM   34  O   UNL     1      39.188 -10.038  11.029  1.00  0.00    -0.267 OA
HETATM   35  C   UNL     1      39.846 -11.490   7.231  1.00  0.00     0.115 C 
BRANCH  32  36
HETATM   36  C   UNL     1      41.446  -9.699  11.563  1.00  0.00     0.072 A 
HETATM   37  S   UNL     1      42.172 -10.911  12.531  1.00  0.00    -0.097 SA
HETATM   38  C   UNL     1      43.236  -9.786  13.258  1.00  0.00     0.050 A 
HETATM   39  C   UNL     1      43.029  -8.505  12.795  1.00  0.00     0.009 A 
HETATM   40  C   UNL     1      41.984  -8.451  11.827  1.00  0.00     0.025 A 
ENDBRANCH  32  36
ENDBRANCH  25  28
ENDBRANCH   1  22
TORSDOF 8
ENDMDL
MODEL 3
REMARK VINA RESULT:      -9.5      4.676      8.659
REMARK  8 active torsions:
REMARK  status: ('A' for Active; 'I' for Inactive)
REMARK    1  A    between atoms: C_4  and  C_5 
REMARK    2  A    between atoms: C_5  and  C_6 
REMARK    3  A    between atoms: C_5  and  C_31 
REMARK       I    between atoms: C_6  and  N_7 
REMARK    4  A    between atoms: N_7  and  C_8 
REMARK    5  A    between atoms: C_8  and  N_9 
REMARK    6  A    between atoms: N_9  and  C_10 
REMARK    7  A    between atoms: C_13  and  N_14 
REMARK       I    between atoms: N_17  and  C_18 
REMARK    8  A    between atoms: C_18  and  C_19 
ROOT
HETATM    1  N   UNL     1      42.470 -14.066   1.769  1.00  0.00    -0.333 N 
HETATM    2  H   UNL     1      43.199 -13.583   1.241  1.00  0.00     0.168 HD
ENDROOT
BRANCH   1   3
HETATM    3  C   UNL     1      41.970 -15.157   1.098  1.00  0.00     0.178 C 
HETATM    4  S   UNL     1      41.300 -15.270  -0.425  1.00  0.00    -0.040 SA
BRANCH   3   5
HETATM    5  N   UNL     1      41.979 -16.333   1.837  1.00  0.00    -0.303 N 
HETATM    6  C   UNL     1      43.064 -17.096   2.262  1.00  0.00     0.236 C 
HETATM    7  O   UNL     1      44.194 -16.959   1.784  1.00  0.00    -0.272 OA
HETATM    8  H   UNL     1      41.069 -16.576   2.207  1.00  0.00     0.171 HD
BRANCH   6   9
HETATM    9  C   UNL     1      42.767 -18.113   3.372  1.00  0.00     0.144 C 
BRANCH   9  10
HETATM   10  C   UNL     1      42.982 -17.625   4.805  1.00  0.00    -0.041 A 
HETATM   11  C   UNL     1      41.858 -17.528   5.650  1.00  0.00     0.008 A 
HETATM   12  C   UNL     1      41.981 -17.100   6.973  1.00  0.00     0.001 A 
HETATM   13  C   UNL     1      43.230 -16.754   7.475  1.00  0.00     0.000 A 
HETATM   14  C   UNL     1      44.352 -16.828   6.654  1.00  0.00     0.001 A 
HETATM   15  C   UNL     1      44.231 -17.255   5.327  1.00  0.00     0.008 A 
ENDBRANCH   9  10
BRANCH   9  16
HETATM   16  C   UNL     1      43.419 -19.458   3.037  1.00  0.00    -0.041 A 
HETATM   17  C   UNL     1      44.273 -20.050   3.985  1.00  0.00     0.008 A 
HETATM   18  C   UNL     1      44.841 -21.302   3.748  1.00  0.00     0.001 A 
HETATM   19  C   UNL     1      44.562 -21.982   2.566  1.00  0.00     0.000 A 
HETATM   20  C   UNL     1      43.715 -21.411   1.619  1.00  0.00     0.001 A 
HETATM   21  C   UNL     1      43.144 -20.158   1.851  1.00  0.00     0.008 A 
ENDBRANCH   9  16
ENDBRANCH   6   9
ENDBRANCH   3   5
ENDBRANCH   1   3
BRANCH   1  22
HETATM   22  C   UNL     1      42.247 -13.514   3.047  1.00  0.00     0.034 A 
HETATM   23  C   UNL     1      42.845 -13.916   4.236  1.00  0.00     0.031 A 
HETATM   24  C   UNL     1      42.552 -13.260   5.446  1.00  0.00     0.026 A 
HETATM   25  C   UNL     1      41.669 -12.176   5.498  1.00  0.00     0.010 A 
HETATM   26  C   UNL     1      41.064 -11.791   4.297  1.00  0.00     0.026 A 
HETATM   27  C   UNL     1      41.336 -12.452   3.096  1.00  0.00     0.031 A 
BRANCH  25  28
HETATM   28  N   UNL     1      41.351 -11.474   6.664  1.00  0.00    -0.280 NA
HETATM   29  C   UNL     1      42.358 -11.640   7.735  1.00  0.00     0.115 C 
HETATM   30  C   UNL     1      42.166 -10.558   8.815  1.00  0.00     0.141 C 
HETATM   31  N   UNL     1      40.778 -10.441   9.288  1.00  0.00    -0.345 N 
HETATM   32  C   UNL     1      40.407  -9.965  10.552  1.00  0.00     0.260 C 
HETATM   33  C   UNL     1      39.746 -10.470   8.240  1.00  0.00     0.141 C 
HETATM   34  O   UNL     1      39.220  -9.868  10.862  1.00  0.00    -0.267 OA
HETATM   35  C   UNL     1      39.974 -11.570   7.188  1.00  0.00     0.115 C 
BRANCH  32  36
HETATM   36  C   UNL     1      41.466  -9.585  11.474  1.00  0.00     0.072 A 
HETATM   37  S   UNL     1      42.252 -10.805  12.383  1.00  0.00    -0.097 SA
HETATM   38  C   UNL     1      43.252  -9.663  13.172  1.00  0.00     0.050 A 
HETATM   39  C   UNL     1      42.979  -8.374  12.774  1.00  0.00     0.009 A 
HETATM   40  C   UNL     1      41.935  -8.326  11.803  1.00  0.00     0.025 A 
ENDBRANCH  32  36
ENDBRANCH  25  28
ENDBRANCH   1  22
TORSDOF 8
ENDMDL
MODEL 4
REMARK VINA RESULT:      -9.3      2.052      2.450
REMARK  8 active torsions:
REMARK  status: ('A' for Active; 'I' for Inactive)
REMARK    1  A    between atoms: C_4  and  C_5 
REMARK    2  A    between atoms: C_5  and  C_6 
REMARK    3  A    between atoms: C_5  and  C_31 
REMARK       I    between atoms: C_6  and  N_7 
REMARK    4  A    between atoms: N_7  and  C_8 
REMARK    5  A    between atoms: C_8  and  N_9 
REMARK    6  A    between atoms: N_9  and  C_10 
REMARK    7  A    between atoms: C_13  and  N_14 
REMARK       I    between atoms: N_17  and  C_18 
REMARK    8  A    between atoms: C_18  and  C_19 
ROOT
HETATM    1  N   UNL     1      42.684 -15.230   6.629  1.00  0.00    -0.333 N 
HETATM    2  H   UNL     1      42.595 -14.588   7.418  1.00  0.00     0.168 HD
ENDROOT
BRANCH   1   3
HETATM    3  C   UNL     1      43.298 -16.410   6.978  1.00  0.00     0.178 C 
HETATM    4  S   UNL     1      43.547 -17.090   8.481  1.00  0.00    -0.040 SA
BRANCH   3   5
HETATM    5  N   UNL     1      43.842 -17.108   5.907  1.00  0.00    -0.303 N 
HETATM    6  C   UNL     1      43.345 -18.228   5.246  1.00  0.00     0.236 C 
HETATM    7  O   UNL     1      42.450 -18.932   5.722  1.00  0.00    -0.272 OA
HETATM    8  H   UNL     1      44.641 -16.643   5.496  1.00  0.00     0.171 HD
BRANCH   6   9
HETATM    9  C   UNL     1      43.974 -18.524   3.877  1.00  0.00     0.144 C 
BRANCH   9  10
HETATM   10  C   UNL     1      43.267 -17.913   2.667  1.00  0.00    -0.041 A 
HETATM   11  C   UNL     1      41.879 -17.686   2.752  1.00  0.00     0.008 A 
HETATM   12  C   UNL     1      41.170 -17.122   1.690  1.00  0.00     0.001 A 
HETATM   13  C   UNL     1      41.836 -16.778   0.519  1.00  0.00     0.000 A 
HETATM   14  C   UNL     1      43.205 -17.007   0.408  1.00  0.00     0.001 A 
HETATM   15  C   UNL     1      43.917 -17.574   1.470  1.00  0.00     0.008 A 
ENDBRANCH   9  10
BRANCH   9  16
HETATM   16  C   UNL     1      44.291 -20.018   3.761  1.00  0.00    -0.041 A 
HETATM   17  C   UNL     1      44.746 -20.704   4.902  1.00  0.00     0.008 A 
HETATM   18  C   UNL     1      44.990 -22.076   4.859  1.00  0.00     0.001 A 
HETATM   19  C   UNL     1      44.778 -22.785   3.680  1.00  0.00     0.000 A 
HETATM   20  C   UNL     1      44.324 -22.122   2.542  1.00  0.00     0.001 A 
HETATM   21  C   UNL     1      44.078 -20.748   2.580  1.00  0.00     0.008 A 
ENDBRANCH   9  16
ENDBRANCH   6   9
ENDBRANCH   3   5
ENDBRANCH   1   3
BRANCH   1  22
HETATM   22  C   UNL     1      42.093 -14.746   5.444  1.00  0.00     0.034 A 
HETATM   23  C   UNL     1      40.735 -14.727   5.147  1.00  0.00     0.031 A 
HETATM   24  C   UNL     1      40.273 -14.189   3.931  1.00  0.00     0.026 A 
HETATM   25  C   UNL     1      41.151 -13.641   2.991  1.00  0.00     0.010 A 
HETATM   26  C   UNL     1      42.516 -13.679   3.296  1.00  0.00     0.026 A 
HETATM   27  C   UNL     1      42.982 -14.231   4.493  1.00  0.00     0.031 A 
BRANCH  25  28
HETATM   28  N   UNL     1      40.752 -13.078   1.775  1.00  0.00    -0.280 NA
HETATM   29  C   UNL     1      41.881 -12.526   0.992  1.00  0.00     0.115 C 
HETATM   30  C   UNL     1      41.448 -12.290  -0.467  1.00  0.00     0.141 C 
HETATM   31  N   UNL     1      40.188 -11.541  -0.592  1.00  0.00    -0.345 N 
HETATM   32  C   UNL     1      39.837 -10.756  -1.698  1.00  0.00     0.260 C 
HETATM   33  C   UNL     1      39.111 -11.954   0.322  1.00  0.00     0.141 C 
HETATM   34  O   UNL     1      38.748 -10.184  -1.740  1.00  0.00    -0.267 OA
HETATM   35  C   UNL     1      39.587 -12.171   1.769  1.00  0.00     0.115 C 
BRANCH  32  36
HETATM   36  C   UNL     1      40.793 -10.650  -2.788  1.00  0.00     0.072 A 
HETATM   37  S   UNL     1      41.864  -9.314  -2.825  1.00  0.00    -0.097 SA
HETATM   38  C   UNL     1      42.580  -9.846  -4.285  1.00  0.00     0.050 A 
HETATM   39  C   UNL     1      42.001 -11.004  -4.754  1.00  0.00     0.009 A 
HETATM   40  C   UNL     1      40.957 -11.462  -3.897  1.00  0.00     0.025 A 
ENDBRANCH  32  36
ENDBRANCH  25  28
ENDBRANCH   1  22
TORSDOF 8
ENDMDL
MODEL 5
REMARK VINA RESULT:      -9.0      5.827     10.013
REMARK  8 active torsions:
REMARK  status: ('A' for Active; 'I' for Inactive)
REMARK    1  A    between atoms: C_4  and  C_5 
REMARK    2  A    between atoms: C_5  and  C_6 
REMARK    3  A    between atoms: C_5  and  C_31 
REMARK       I    between atoms: C_6  and  N_7 
REMARK    4  A    between atoms: N_7  and  C_8 
REMARK    5  A    between atoms: C_8  and  N_9 
REMARK    6  A    between atoms: N_9  and  C_10 
REMARK    7  A    between atoms: C_13  and  N_14 
REMARK       I    between atoms: N_17  and  C_18 
REMARK    8  A    between atoms: C_18  and  C_19 
ROOT
HETATM    1  N   UNL     1      39.451 -10.870   7.654  1.00  0.00    -0.333 N 
HETATM    2  H   UNL     1      38.706 -11.315   8.194  1.00  0.00     0.168 HD
ENDROOT
BRANCH   1   3
HETATM    3  C   UNL     1      39.633  -9.552   7.997  1.00  0.00     0.178 C 
HETATM    4  S   UNL     1      38.809  -8.187   7.507  1.00  0.00    -0.040 SA
BRANCH   3   5
HETATM    5  N   UNL     1      40.713  -9.327   8.842  1.00  0.00    -0.303 N 
HETATM    6  C   UNL     1      41.182 -10.108   9.895  1.00  0.00     0.236 C 
HETATM    7  O   UNL     1      40.504 -11.005  10.404  1.00  0.00    -0.272 OA
HETATM    8  H   UNL     1      41.291  -8.549   8.549  1.00  0.00     0.171 HD
BRANCH   6   9
HETATM    9  C   UNL     1      42.604  -9.789  10.378  1.00  0.00     0.144 C 
BRANCH   9  10
HETATM   10  C   UNL     1      43.716 -10.679   9.825  1.00  0.00    -0.041 A 
HETATM   11  C   UNL     1      45.030 -10.470  10.292  1.00  0.00     0.008 A 
HETATM   12  C   UNL     1      46.093 -11.251   9.838  1.00  0.00     0.001 A 
HETATM   13  C   UNL     1      45.865 -12.255   8.904  1.00  0.00     0.000 A 
HETATM   14  C   UNL     1      44.578 -12.470   8.418  1.00  0.00     0.001 A 
HETATM   15  C   UNL     1      43.511 -11.687   8.870  1.00  0.00     0.008 A 
ENDBRANCH   9  10
BRANCH   9  16
HETATM   16  C   UNL     1      42.610  -9.607  11.899  1.00  0.00    -0.041 A 
HETATM   17  C   UNL     1      42.542  -8.304  12.424  1.00  0.00     0.008 A 
HETATM   18  C   UNL     1      42.485  -8.093  13.802  1.00  0.00     0.001 A 
HETATM   19  C   UNL     1      42.488  -9.178  14.674  1.00  0.00     0.000 A 
HETATM   20  C   UNL     1      42.550 -10.475  14.170  1.00  0.00     0.001 A 
HETATM   21  C   UNL     1      42.608 -10.692  12.792  1.00  0.00     0.008 A 
ENDBRANCH   9  16
ENDBRANCH   6   9
ENDBRANCH   3   5
ENDBRANCH   1   3
BRANCH   1  22
HETATM   22  C   UNL     1      40.109 -11.755   6.776  1.00  0.00     0.034 A 
HETATM   23  C   UNL     1      41.328 -11.536   6.144  1.00  0.00     0.031 A 
HETATM   24  C   UNL     1      41.891 -12.519   5.307  1.00  0.00     0.026 A 
HETATM   25  C   UNL     1      41.261 -13.749   5.095  1.00  0.00     0.010 A 
HETATM   26  C   UNL     1      40.029 -13.951   5.726  1.00  0.00     0.026 A 
HETATM   27  C   UNL     1      39.456 -12.971   6.542  1.00  0.00     0.031 A 
BRANCH  25  28
HETATM   28  N   UNL     1      41.777 -14.770   4.290  1.00  0.00    -0.280 NA
HETATM   29  C   UNL     1      42.367 -15.881   5.069  1.00  0.00     0.115 C 
HETATM   30  C   UNL     1      42.549 -17.119   4.170  1.00  0.00     0.141 C 
HETATM   31  N   UNL     1      43.230 -16.827   2.899  1.00  0.00    -0.345 N 
HETATM   32  C   UNL     1      43.972 -17.760   2.163  1.00  0.00     0.260 C 
HETATM   33  C   UNL     1      42.784 -15.609   2.205  1.00  0.00     0.141 C 
HETATM   34  O   UNL     1      44.487 -17.445   1.090  1.00  0.00    -0.267 OA
HETATM   35  C   UNL     1      42.623 -14.397   3.140  1.00  0.00     0.115 C 
BRANCH  32  36
HETATM   36  C   UNL     1      44.103 -19.104   2.703  1.00  0.00     0.072 A 
HETATM   37  S   UNL     1      44.705 -19.305   4.293  1.00  0.00    -0.097 SA
HETATM   38  C   UNL     1      44.594 -21.009   4.189  1.00  0.00     0.050 A 
HETATM   39  C   UNL     1      44.132 -21.424   2.960  1.00  0.00     0.009 A 
HETATM   40  C   UNL     1      43.862 -20.323   2.094  1.00  0.00     0.025 A 
ENDBRANCH  32  36
ENDBRANCH  25  28
ENDBRANCH   1  22
TORSDOF 8
ENDMDL
MODEL 6
REMARK VINA RESULT:      -8.7      3.157      5.547
REMARK  8 active torsions:
REMARK  status: ('A' for Active; 'I' for Inactive)
REMARK    1  A    between atoms: C_4  and  C_5 
REMARK    2  A    between atoms: C_5  and  C_6 
REMARK    3  A    between atoms: C_5  and  C_31 
REMARK       I    between atoms: C_6  and  N_7 
REMARK    4  A    between atoms: N_7  and  C_8 
REMARK    5  A    between atoms: C_8  and  N_9 
REMARK    6  A    between atoms: N_9  and  C_10 
REMARK    7  A    between atoms: C_13  and  N_14 
REMARK       I    between atoms: N_17  and  C_18 
REMARK    8  A    between atoms: C_18  and  C_19 
ROOT
HETATM    1  N   UNL     1      42.003 -15.611  -0.050  1.00  0.00    -0.333 N 
HETATM    2  H   UNL     1      42.681 -16.288  -0.405  1.00  0.00     0.168 HD
ENDROOT
BRANCH   1   3
HETATM    3  C   UNL     1      42.247 -15.258   1.256  1.00  0.00     0.178 C 
HETATM    4  S   UNL     1      42.255 -13.756   1.982  1.00  0.00    -0.040 SA
BRANCH   3   5
HETATM    5  N   UNL     1      42.594 -16.323   2.079  1.00  0.00    -0.303 N 
HETATM    6  C   UNL     1      43.747 -17.104   2.065  1.00  0.00     0.236 C 
HETATM    7  O   UNL     1      44.521 -17.119   1.105  1.00  0.00    -0.272 OA
HETATM    8  H   UNL     1      41.962 -16.442   2.860  1.00  0.00     0.171 HD
BRANCH   6   9
HETATM    9  C   UNL     1      43.999 -17.938   3.329  1.00  0.00     0.144 C 
BRANCH   9  10
HETATM   10  C   UNL     1      44.094 -19.450   3.127  1.00  0.00    -0.041 A 
HETATM   11  C   UNL     1      44.707 -20.218   4.138  1.00  0.00     0.008 A 
HETATM   12  C   UNL     1      44.820 -21.605   4.026  1.00  0.00     0.001 A 
HETATM   13  C   UNL     1      44.326 -22.251   2.898  1.00  0.00     0.000 A 
HETATM   14  C   UNL     1      43.730 -21.510   1.881  1.00  0.00     0.001 A 
HETATM   15  C   UNL     1      43.618 -20.120   1.990  1.00  0.00     0.008 A 
ENDBRANCH   9  10
BRANCH   9  16
HETATM   16  C   UNL     1      43.056 -17.487   4.448  1.00  0.00    -0.041 A 
HETATM   17  C   UNL     1      41.751 -18.012   4.486  1.00  0.00     0.008 A 
HETATM   18  C   UNL     1      40.878 -17.677   5.520  1.00  0.00     0.001 A 
HETATM   19  C   UNL     1      41.294 -16.819   6.534  1.00  0.00     0.000 A 
HETATM   20  C   UNL     1      42.584 -16.295   6.514  1.00  0.00     0.001 A 
HETATM   21  C   UNL     1      43.463 -16.626   5.481  1.00  0.00     0.008 A 
ENDBRANCH   9  16
ENDBRANCH   6   9
ENDBRANCH   3   5
ENDBRANCH   1   3
BRANCH   1  22
HETATM   22  C   UNL     1      41.070 -15.193  -1.021  1.00  0.00     0.034 A 
HETATM   23  C   UNL     1      41.006 -15.619  -2.343  1.00  0.00     0.031 A 
HETATM   24  C   UNL     1      40.003 -15.140  -3.205  1.00  0.00     0.026 A 
HETATM   25  C   UNL     1      39.029 -14.237  -2.767  1.00  0.00     0.010 A 
HETATM   26  C   UNL     1      39.113 -13.805  -1.439  1.00  0.00     0.026 A 
HETATM   27  C   UNL     1      40.119 -14.263  -0.583  1.00  0.00     0.031 A 
BRANCH  25  28
HETATM   28  N   UNL     1      37.999 -13.738  -3.570  1.00  0.00    -0.280 NA
HETATM   29  C   UNL     1      37.531 -12.398  -3.148  1.00  0.00     0.115 C 
HETATM   30  C   UNL     1      36.704 -11.748  -4.273  1.00  0.00     0.141 C 
HETATM   31  N   UNL     1      35.653 -12.626  -4.812  1.00  0.00    -0.345 N 
HETATM   32  C   UNL     1      34.473 -12.174  -5.417  1.00  0.00     0.260 C 
HETATM   33  C   UNL     1      36.054 -14.020  -5.055  1.00  0.00     0.141 C 
HETATM   34  O   UNL     1      33.656 -12.973  -5.872  1.00  0.00    -0.267 OA
HETATM   35  C   UNL     1      36.872 -14.631  -3.903  1.00  0.00     0.115 C 
BRANCH  32  36
HETATM   36  C   UNL     1      34.256 -10.738  -5.496  1.00  0.00     0.072 A 
HETATM   37  S   UNL     1      34.805  -9.891  -6.880  1.00  0.00    -0.097 SA
HETATM   38  C   UNL     1      34.253  -8.394  -6.262  1.00  0.00     0.050 A 
HETATM   39  C   UNL     1      33.684  -8.527  -5.015  1.00  0.00     0.009 A 
HETATM   40  C   UNL     1      33.699  -9.880  -4.564  1.00  0.00     0.025 A 
ENDBRANCH  32  36
ENDBRANCH  25  28
ENDBRANCH   1  22
TORSDOF 8
ENDMDL
MODEL 7
REMARK VINA RESULT:      -8.5      1.484      3.502
REMARK  8 active torsions:
REMARK  status: ('A' for Active; 'I' for Inactive)
REMARK    1  A    between atoms: C_4  and  C_5 
REMARK    2  A    between atoms: C_5  and  C_6 
REMARK    3  A    between atoms: C_5  and  C_31 
REMARK       I    between atoms: C_6  and  N_7 
REMARK    4  A    between atoms: N_7  and  C_8 
REMARK    5  A    between atoms: C_8  and  N_9 
REMARK    6  A    between atoms: N_9  and  C_10 
REMARK    7  A    between atoms: C_13  and  N_14 
REMARK       I    between atoms: N_17  and  C_18 
REMARK    8  A    between atoms: C_18  and  C_19 
ROOT
HETATM    1  N   UNL     1      42.161 -13.701   5.526  1.00  0.00    -0.333 N 
HETATM    2  H   UNL     1      41.854 -13.096   6.290  1.00  0.00     0.168 HD
ENDROOT
BRANCH   1   3
HETATM    3  C   UNL     1      43.114 -14.608   5.924  1.00  0.00     0.178 C 
HETATM    4  S   UNL     1      44.390 -14.434   6.984  1.00  0.00    -0.040 SA
BRANCH   3   5
HETATM    5  N   UNL     1      43.023 -15.843   5.294  1.00  0.00    -0.303 N 
HETATM    6  C   UNL     1      41.992 -16.778   5.339  1.00  0.00     0.236 C 
HETATM    7  O   UNL     1      41.106 -16.742   6.196  1.00  0.00    -0.272 OA
HETATM    8  H   UNL     1      43.763 -16.001   4.622  1.00  0.00     0.171 HD
BRANCH   6   9
HETATM    9  C   UNL     1      42.022 -17.853   4.243  1.00  0.00     0.144 C 
BRANCH   9  10
HETATM   10  C   UNL     1      43.107 -18.921   4.381  1.00  0.00    -0.041 A 
HETATM   11  C   UNL     1      43.432 -19.376   5.675  1.00  0.00     0.008 A 
HETATM   12  C   UNL     1      44.405 -20.357   5.875  1.00  0.00     0.001 A 
HETATM   13  C   UNL     1      45.077 -20.898   4.785  1.00  0.00     0.000 A 
HETATM   14  C   UNL     1      44.782 -20.453   3.499  1.00  0.00     0.001 A 
HETATM   15  C   UNL     1      43.809 -19.469   3.296  1.00  0.00     0.008 A 
ENDBRANCH   9  10
BRANCH   9  16
HETATM   16  C   UNL     1      41.926 -17.195   2.864  1.00  0.00    -0.041 A 
HETATM   17  C   UNL     1      40.686 -17.193   2.201  1.00  0.00     0.008 A 
HETATM   18  C   UNL     1      40.537 -16.553   0.970  1.00  0.00     0.001 A 
HETATM   19  C   UNL     1      41.620 -15.903   0.387  1.00  0.00     0.000 A 
HETATM   20  C   UNL     1      42.854 -15.893   1.032  1.00  0.00     0.001 A 
HETATM   21  C   UNL     1      43.009 -16.531   2.264  1.00  0.00     0.008 A 
ENDBRANCH   9  16
ENDBRANCH   6   9
ENDBRANCH   3   5
ENDBRANCH   1   3
BRANCH   1  22
HETATM   22  C   UNL     1      41.468 -13.472   4.319  1.00  0.00     0.034 A 
HETATM   23  C   UNL     1      40.139 -13.785   4.058  1.00  0.00     0.031 A 
HETATM   24  C   UNL     1      39.560 -13.477   2.813  1.00  0.00     0.026 A 
HETATM   25  C   UNL     1      40.285 -12.834   1.805  1.00  0.00     0.010 A 
HETATM   26  C   UNL     1      41.626 -12.537   2.076  1.00  0.00     0.026 A 
HETATM   27  C   UNL     1      42.211 -12.858   3.304  1.00  0.00     0.031 A 
BRANCH  25  28
HETATM   28  N   UNL     1      39.762 -12.488   0.555  1.00  0.00    -0.280 NA
HETATM   29  C   UNL     1      38.791 -13.477   0.038  1.00  0.00     0.115 C 
HETATM   30  C   UNL     1      37.973 -12.864  -1.114  1.00  0.00     0.141 C 
HETATM   31  N   UNL     1      38.802 -12.218  -2.144  1.00  0.00    -0.345 N 
HETATM   32  C   UNL     1      38.424 -12.058  -3.483  1.00  0.00     0.260 C 
HETATM   33  C   UNL     1      39.901 -11.379  -1.640  1.00  0.00     0.141 C 
HETATM   34  O   UNL     1      39.162 -11.477  -4.278  1.00  0.00    -0.267 OA
HETATM   35  C   UNL     1      40.694 -12.034  -0.495  1.00  0.00     0.115 C 
BRANCH  32  36
HETATM   36  C   UNL     1      37.134 -12.589  -3.894  1.00  0.00     0.072 A 
HETATM   37  S   UNL     1      37.001 -14.257  -4.258  1.00  0.00    -0.097 SA
HETATM   38  C   UNL     1      35.342 -14.106  -4.647  1.00  0.00     0.050 A 
HETATM   39  C   UNL     1      34.899 -12.808  -4.530  1.00  0.00     0.009 A 
HETATM   40  C   UNL     1      35.938 -11.927  -4.109  1.00  0.00     0.025 A 
ENDBRANCH  32  36
ENDBRANCH  25  28
ENDBRANCH   1  22
TORSDOF 8
ENDMDL
MODEL 8
REMARK VINA RESULT:      -8.3      2.617      4.702
REMARK  8 active torsions:
REMARK  status: ('A' for Active; 'I' for Inactive)
REMARK    1  A    between atoms: C_4  and  C_5 
REMARK    2  A    between atoms: C_5  and  C_6 
REMARK    3  A    between atoms: C_5  and  C_31 
REMARK       I    between atoms: C_6  and  N_7 
REMARK    4  A    between atoms: N_7  and  C_8 
REMARK    5  A    between atoms: C_8  and  N_9 
REMARK    6  A    between atoms: N_9  and  C_10 
REMARK    7  A    between atoms: C_13  and  N_14 
REMARK       I    between atoms: N_17  and  C_18 
REMARK    8  A    between atoms: C_18  and  C_19 
ROOT
HETATM    1  N   UNL     1      42.530 -14.899   1.283  1.00  0.00    -0.333 N 
HETATM    2  H   UNL     1      43.318 -15.383   0.849  1.00  0.00     0.168 HD
ENDROOT
BRANCH   1   3
HETATM    3  C   UNL     1      42.743 -14.638   2.616  1.00  0.00     0.178 C 
HETATM    4  S   UNL     1      42.559 -13.222   3.479  1.00  0.00    -0.040 SA
BRANCH   3   5
HETATM    5  N   UNL     1      43.245 -15.716   3.335  1.00  0.00    -0.303 N 
HETATM    6  C   UNL     1      43.048 -17.079   3.125  1.00  0.00     0.236 C 
HETATM    7  O   UNL     1      42.147 -17.511   2.402  1.00  0.00    -0.272 OA
HETATM    8  H   UNL     1      43.941 -15.448   4.018  1.00  0.00     0.171 HD
BRANCH   6   9
HETATM    9  C   UNL     1      44.035 -18.010   3.843  1.00  0.00     0.144 C 
BRANCH   9  10
HETATM   10  C   UNL     1      44.087 -19.451   3.337  1.00  0.00    -0.041 A 
HETATM   11  C   UNL     1      44.645 -20.433   4.181  1.00  0.00     0.008 A 
HETATM   12  C   UNL     1      44.717 -21.770   3.788  1.00  0.00     0.001 A 
HETATM   13  C   UNL     1      44.236 -22.152   2.541  1.00  0.00     0.000 A 
HETATM   14  C   UNL     1      43.693 -21.197   1.686  1.00  0.00     0.001 A 
HETATM   15  C   UNL     1      43.623 -19.856   2.076  1.00  0.00     0.008 A 
ENDBRANCH   9  10
BRANCH   9  16
HETATM   16  C   UNL     1      43.887 -17.857   5.360  1.00  0.00    -0.041 A 
HETATM   17  C   UNL     1      42.596 -17.731   5.905  1.00  0.00     0.008 A 
HETATM   18  C   UNL     1      42.409 -17.650   7.285  1.00  0.00     0.001 A 
HETATM   19  C   UNL     1      43.506 -17.699   8.140  1.00  0.00     0.000 A 
HETATM   20  C   UNL     1      44.790 -17.827   7.617  1.00  0.00     0.001 A 
HETATM   21  C   UNL     1      44.983 -17.909   6.237  1.00  0.00     0.008 A 
ENDBRANCH   9  16
ENDBRANCH   6   9
ENDBRANCH   3   5
ENDBRANCH   1   3
BRANCH   1  22
HETATM   22  C   UNL     1      41.498 -14.584   0.376  1.00  0.00     0.034 A 
HETATM   23  C   UNL     1      40.668 -13.469   0.423  1.00  0.00     0.031 A 
HETATM   24  C   UNL     1      39.689 -13.258  -0.566  1.00  0.00     0.026 A 
HETATM   25  C   UNL     1      39.525 -14.145  -1.635  1.00  0.00     0.010 A 
HETATM   26  C   UNL     1      40.357 -15.269  -1.663  1.00  0.00     0.026 A 
HETATM   27  C   UNL     1      41.318 -15.493  -0.673  1.00  0.00     0.031 A 
BRANCH  25  28
HETATM   28  N   UNL     1      38.583 -13.982  -2.656  1.00  0.00    -0.280 NA
HETATM   29  C   UNL     1      37.614 -12.897  -2.384  1.00  0.00     0.115 C 
HETATM   30  C   UNL     1      36.877 -12.510  -3.680  1.00  0.00     0.141 C 
HETATM   31  N   UNL     1      36.322 -13.663  -4.407  1.00  0.00    -0.345 N 
HETATM   32  C   UNL     1      35.217 -13.604  -5.265  1.00  0.00     0.260 C 
HETATM   33  C   UNL     1      37.211 -14.830  -4.517  1.00  0.00     0.141 C 
HETATM   34  O   UNL     1      34.832 -14.610  -5.863  1.00  0.00    -0.267 OA
HETATM   35  C   UNL     1      37.921 -15.184  -3.199  1.00  0.00     0.115 C 
BRANCH  32  36
HETATM   36  C   UNL     1      34.552 -12.322  -5.432  1.00  0.00     0.072 A 
HETATM   37  S   UNL     1      35.036 -11.296  -6.715  1.00  0.00    -0.097 SA
HETATM   38  C   UNL     1      33.910 -10.090  -6.262  1.00  0.00     0.050 A 
HETATM   39  C   UNL     1      33.195 -10.445  -5.141  1.00  0.00     0.009 A 
HETATM   40  C   UNL     1      33.575 -11.729  -4.651  1.00  0.00     0.025 A 
ENDBRANCH  32  36
ENDBRANCH  25  28
ENDBRANCH   1  22
TORSDOF 8
ENDMDL
MODEL 9
REMARK VINA RESULT:      -8.2      3.169      5.311
REMARK  8 active torsions:
REMARK  status: ('A' for Active; 'I' for Inactive)
REMARK    1  A    between atoms: C_4  and  C_5 
REMARK    2  A    between atoms: C_5  and  C_6 
REMARK    3  A    between atoms: C_5  and  C_31 
REMARK       I    between atoms: C_6  and  N_7 
REMARK    4  A    between atoms: N_7  and  C_8 
REMARK    5  A    between atoms: C_8  and  N_9 
REMARK    6  A    between atoms: N_9  and  C_10 
REMARK    7  A    between atoms: C_13  and  N_14 
REMARK       I    between atoms: N_17  and  C_18 
REMARK    8  A    between atoms: C_18  and  C_19 
ROOT
HETATM    1  N   UNL     1      41.893 -15.357  -0.235  1.00  0.00    -0.333 N 
HETATM    2  H   UNL     1      42.671 -15.907  -0.605  1.00  0.00     0.168 HD
ENDROOT
BRANCH   1   3
HETATM    3  C   UNL     1      42.011 -15.122   1.115  1.00  0.00     0.178 C 
HETATM    4  S   UNL     1      42.214 -13.690   1.945  1.00  0.00    -0.040 SA
BRANCH   3   5
HETATM    5  N   UNL     1      42.017 -16.273   1.895  1.00  0.00    -0.303 N 
HETATM    6  C   UNL     1      43.093 -17.068   2.279  1.00  0.00     0.236 C 
HETATM    7  O   UNL     1      44.195 -16.997   1.728  1.00  0.00    -0.272 OA
HETATM    8  H   UNL     1      41.122 -16.461   2.329  1.00  0.00     0.171 HD
BRANCH   6   9
HETATM    9  C   UNL     1      42.824 -18.032   3.442  1.00  0.00     0.144 C 
BRANCH   9  10
HETATM   10  C   UNL     1      43.099 -17.487   4.844  1.00  0.00    -0.041 A 
HETATM   11  C   UNL     1      42.749 -18.288   5.950  1.00  0.00     0.008 A 
HETATM   12  C   UNL     1      42.980 -17.858   7.257  1.00  0.00     0.001 A 
HETATM   13  C   UNL     1      43.562 -16.616   7.485  1.00  0.00     0.000 A 
HETATM   14  C   UNL     1      43.903 -15.803   6.408  1.00  0.00     0.001 A 
HETATM   15  C   UNL     1      43.670 -16.230   5.097  1.00  0.00     0.008 A 
ENDBRANCH   9  10
BRANCH   9  16
HETATM   16  C   UNL     1      43.445 -19.400   3.141  1.00  0.00    -0.041 A 
HETATM   17  C   UNL     1      44.361 -19.944   4.060  1.00  0.00     0.008 A 
HETATM   18  C   UNL     1      44.906 -21.211   3.858  1.00  0.00     0.001 A 
HETATM   19  C   UNL     1      44.541 -21.956   2.740  1.00  0.00     0.000 A 
HETATM   20  C   UNL     1      43.632 -21.434   1.823  1.00  0.00     0.001 A 
HETATM   21  C   UNL     1      43.084 -20.166   2.020  1.00  0.00     0.008 A 
ENDBRANCH   9  16
ENDBRANCH   6   9
ENDBRANCH   3   5
ENDBRANCH   1   3
BRANCH   1  22
HETATM   22  C   UNL     1      40.976 -14.948  -1.224  1.00  0.00     0.034 A 
HETATM   23  C   UNL     1      41.050 -15.227  -2.584  1.00  0.00     0.031 A 
HETATM   24  C   UNL     1      40.049 -14.778  -3.466  1.00  0.00     0.026 A 
HETATM   25  C   UNL     1      38.941 -14.056  -3.011  1.00  0.00     0.010 A 
HETATM   26  C   UNL     1      38.887 -13.770  -1.642  1.00  0.00     0.026 A 
HETATM   27  C   UNL     1      39.888 -14.196  -0.766  1.00  0.00     0.031 A 
BRANCH  25  28
HETATM   28  N   UNL     1      37.907 -13.597  -3.833  1.00  0.00    -0.280 NA
HETATM   29  C   UNL     1      37.522 -12.196  -3.554  1.00  0.00     0.115 C 
HETATM   30  C   UNL     1      36.686 -11.635  -4.720  1.00  0.00     0.141 C 
HETATM   31  N   UNL     1      35.574 -12.512  -5.120  1.00  0.00    -0.345 N 
HETATM   32  C   UNL     1      34.395 -12.070  -5.735  1.00  0.00     0.260 C 
HETATM   33  C   UNL     1      35.897 -13.944  -5.213  1.00  0.00     0.141 C 
HETATM   34  O   UNL     1      33.523 -12.871  -6.069  1.00  0.00    -0.267 OA
HETATM   35  C   UNL     1      36.727 -14.462  -4.025  1.00  0.00     0.115 C 
BRANCH  32  36
HETATM   36  C   UNL     1      34.246 -10.643  -5.974  1.00  0.00     0.072 A 
HETATM   37  S   UNL     1      34.786  -9.989  -7.461  1.00  0.00    -0.097 SA
HETATM   38  C   UNL     1      34.330  -8.404  -7.004  1.00  0.00     0.050 A 
HETATM   39  C   UNL     1      33.800  -8.364  -5.734  1.00  0.00     0.009 A 
HETATM   40  C   UNL     1      33.765  -9.656  -5.131  1.00  0.00     0.025 A 
ENDBRANCH  32  36
ENDBRANCH  25  28
ENDBRANCH   1  22
TORSDOF 8
ENDMDL
MODEL 10
REMARK VINA RESULT:      -8.2      2.573      4.561
REMARK  8 active torsions:
REMARK  status: ('A' for Active; 'I' for Inactive)
REMARK    1  A    between atoms: C_4  and  C_5 
REMARK    2  A    between atoms: C_5  and  C_6 
REMARK    3  A    between atoms: C_5  and  C_31 
REMARK       I    between atoms: C_6  and  N_7 
REMARK    4  A    between atoms: N_7  and  C_8 
REMARK    5  A    between atoms: C_8  and  N_9 
REMARK    6  A    between atoms: N_9  and  C_10 
REMARK    7  A    between atoms: C_13  and  N_14 
REMARK       I    between atoms: N_17  and  C_18 
REMARK    8  A    between atoms: C_18  and  C_19 
ROOT
HETATM    1  N   UNL     1      42.098 -12.522   3.400  1.00  0.00    -0.333 N 
HETATM    2  H   UNL     1      42.961 -12.007   3.218  1.00  0.00     0.168 HD
ENDROOT
BRANCH   1   3
HETATM    3  C   UNL     1      42.004 -12.945   4.705  1.00  0.00     0.178 C 
HETATM    4  S   UNL     1      41.857 -12.064   6.114  1.00  0.00    -0.040 SA
BRANCH   3   5
HETATM    5  N   UNL     1      42.105 -14.321   4.867  1.00  0.00    -0.303 N 
HETATM    6  C   UNL     1      41.095 -15.258   5.071  1.00  0.00     0.236 C 
HETATM    7  O   UNL     1      39.956 -14.934   5.415  1.00  0.00    -0.272 OA
HETATM    8  H   UNL     1      43.036 -14.674   4.683  1.00  0.00     0.171 HD
BRANCH   6   9
HETATM    9  C   UNL     1      41.489 -16.722   4.827  1.00  0.00     0.144 C 
BRANCH   9  10
HETATM   10  C   UNL     1      42.355 -17.372   5.906  1.00  0.00    -0.041 A 
HETATM   11  C   UNL     1      42.907 -18.641   5.640  1.00  0.00     0.008 A 
HETATM   12  C   UNL     1      43.716 -19.290   6.574  1.00  0.00     0.001 A 
HETATM   13  C   UNL     1      43.984 -18.684   7.797  1.00  0.00     0.000 A 
HETATM   14  C   UNL     1      43.437 -17.437   8.086  1.00  0.00     0.001 A 
HETATM   15  C   UNL     1      42.624 -16.786   7.152  1.00  0.00     0.008 A 
ENDBRANCH   9  10
BRANCH   9  16
HETATM   16  C   UNL     1      41.995 -16.895   3.392  1.00  0.00    -0.041 A 
HETATM   17  C   UNL     1      41.056 -17.053   2.358  1.00  0.00     0.008 A 
HETATM   18  C   UNL     1      41.469 -17.153   1.029  1.00  0.00     0.001 A 
HETATM   19  C   UNL     1      42.823 -17.091   0.714  1.00  0.00     0.000 A 
HETATM   20  C   UNL     1      43.766 -16.930   1.726  1.00  0.00     0.001 A 
HETATM   21  C   UNL     1      43.358 -16.829   3.057  1.00  0.00     0.008 A 
ENDBRANCH   9  16
ENDBRANCH   6   9
ENDBRANCH   3   5
ENDBRANCH   1   3
BRANCH   1  22
HETATM   22  C   UNL     1      41.237 -12.584   2.286  1.00  0.00     0.034 A 
HETATM   23  C   UNL     1      40.045 -11.887   2.123  1.00  0.00     0.031 A 
HETATM   24  C   UNL     1      39.289 -12.020   0.943  1.00  0.00     0.026 A 
HETATM   25  C   UNL     1      39.712 -12.837  -0.110  1.00  0.00     0.010 A 
HETATM   26  C   UNL     1      40.905 -13.543   0.072  1.00  0.00     0.026 A 
HETATM   27  C   UNL     1      41.650 -13.430   1.250  1.00  0.00     0.031 A 
BRANCH  25  28
HETATM   28  N   UNL     1      39.015 -12.997  -1.311  1.00  0.00    -0.280 NA
HETATM   29  C   UNL     1      37.695 -12.328  -1.311  1.00  0.00     0.115 C 
HETATM   30  C   UNL     1      37.165 -12.202  -2.751  1.00  0.00     0.141 C 
HETATM   31  N   UNL     1      37.216 -13.462  -3.509  1.00  0.00    -0.345 N 
HETATM   32  C   UNL     1      36.371 -13.780  -4.580  1.00  0.00     0.260 C 
HETATM   33  C   UNL     1      38.456 -14.239  -3.364  1.00  0.00     0.141 C 
HETATM   34  O   UNL     1      36.498 -14.845  -5.184  1.00  0.00    -0.267 OA
HETATM   35  C   UNL     1      38.945 -14.345  -1.908  1.00  0.00     0.115 C 
BRANCH  32  36
HETATM   36  C   UNL     1      35.353 -12.811  -4.955  1.00  0.00     0.072 A 
HETATM   37  S   UNL     1      35.749 -11.590  -6.089  1.00  0.00    -0.097 SA
HETATM   38  C   UNL     1      34.186 -10.901  -5.990  1.00  0.00     0.050 A 
HETATM   39  C   UNL     1      33.382 -11.568  -5.093  1.00  0.00     0.009 A 
HETATM   40  C   UNL     1      34.061 -12.664  -4.482  1.00  0.00     0.025 A 
ENDBRANCH  32  36
ENDBRANCH  25  28
ENDBRANCH   1  22
TORSDOF 8
ENDMDL
