MODEL 1
REMARK VINA RESULT:      -7.6      0.000      0.000
REMARK  4 active torsions:
REMARK  status: ('A' for Active; 'I' for Inactive)
REMARK    1  A    between atoms: C_3  and  N_4 
REMARK       I    between atoms: N_4  and  C_5 
REMARK    2  A    between atoms: C_5  and  C_6 
REMARK    3  A    between atoms: C_7  and  C_8 
REMARK    4  A    between atoms: C_15  and  C_16 
ROOT
HETATM    1  C   UNL     1      45.009 -18.157   6.319  1.00  0.00     0.003 A 
HETATM    2  C   UNL     1      44.013 -17.190   6.177  1.00  0.00     0.029 A 
HETATM    3  C   UNL     1      43.073 -17.292   5.154  1.00  0.00     0.035 A 
HETATM    4  C   UNL     1      43.138 -18.389   4.280  1.00  0.00     0.043 A 
HETATM    5  C   UNL     1      44.140 -19.367   4.403  1.00  0.00    -0.006 A 
HETATM    6  C   UNL     1      45.077 -19.235   5.434  1.00  0.00     0.014 A 
ENDROOT
BRANCH   3   7
HETATM    7  N   UNL     1      42.059 -16.338   4.921  1.00  0.00    -0.324 N 
HETATM    8  C   UNL     1      42.226 -15.008   4.595  1.00  0.00     0.245 C 
HETATM    9  O   UNL     1      43.268 -14.381   4.463  1.00  0.00    -0.268 OA
HETATM   10  H   UNL     1      41.108 -16.672   4.986  1.00  0.00     0.169 HD
BRANCH   8  11
HETATM   11  C   UNL     1      40.926 -14.367   4.274  1.00  0.00     0.077 C 
HETATM   12  C   UNL     1      40.165 -14.662   3.211  1.00  0.00     0.042 C 
BRANCH  12  13
HETATM   13  C   UNL     1      40.557 -15.548   2.173  1.00  0.00     0.075 A 
HETATM   14  O   UNL     1      40.492 -16.921   2.260  1.00  0.00    -0.323 OA
HETATM   15  C   UNL     1      40.961 -17.446   1.103  1.00  0.00     0.142 A 
HETATM   16  C   UNL     1      41.355 -16.449   0.249  1.00  0.00     0.027 A 
HETATM   17  C   UNL     1      41.107 -15.236   0.935  1.00  0.00     0.039 A 
ENDBRANCH  12  13
ENDBRANCH   8  11
ENDBRANCH   3   7
BRANCH   5  18
HETATM   18  C   UNL     1      44.206 -20.480   3.453  1.00  0.00     0.061 A 
HETATM   19  N   UNL     1      44.617 -21.750   3.781  1.00  0.00    -0.278 N 
HETATM   20  H   UNL     1      44.905 -22.092   4.691  1.00  0.00     0.189 HD
HETATM   21  N   UNL     1      44.614 -22.616   2.754  1.00  0.00    -0.187 NA
HETATM   22  C   UNL     1      44.175 -21.885   1.730  1.00  0.00     0.141 A 
HETATM   23  C   UNL     1      43.900 -20.558   2.105  1.00  0.00     0.053 A 
ENDBRANCH   5  18
TORSDOF 4
ENDMDL
MODEL 2
REMARK VINA RESULT:      -7.6      1.942      4.315
REMARK  4 active torsions:
REMARK  status: ('A' for Active; 'I' for Inactive)
REMARK    1  A    between atoms: C_3  and  N_4 
REMARK       I    between atoms: N_4  and  C_5 
REMARK    2  A    between atoms: C_5  and  C_6 
REMARK    3  A    between atoms: C_7  and  C_8 
REMARK    4  A    between atoms: C_15  and  C_16 
ROOT
HETATM    1  C   UNL     1      43.456 -17.814   0.888  1.00  0.00     0.003 A 
HETATM    2  C   UNL     1      43.380 -16.760   1.800  1.00  0.00     0.029 A 
HETATM    3  C   UNL     1      43.622 -16.981   3.153  1.00  0.00     0.035 A 
HETATM    4  C   UNL     1      43.958 -18.276   3.580  1.00  0.00     0.043 A 
HETATM    5  C   UNL     1      44.032 -19.350   2.677  1.00  0.00    -0.006 A 
HETATM    6  C   UNL     1      43.774 -19.102   1.324  1.00  0.00     0.014 A 
ENDROOT
BRANCH   3   7
HETATM    7  N   UNL     1      43.528 -15.978   4.142  1.00  0.00    -0.324 N 
HETATM    8  C   UNL     1      42.375 -15.449   4.685  1.00  0.00     0.245 C 
HETATM    9  O   UNL     1      41.214 -15.717   4.413  1.00  0.00    -0.268 OA
HETATM   10  H   UNL     1      44.403 -15.620   4.501  1.00  0.00     0.169 HD
BRANCH   8  11
HETATM   11  C   UNL     1      42.684 -14.529   5.809  1.00  0.00     0.077 C 
HETATM   12  C   UNL     1      43.376 -14.862   6.907  1.00  0.00     0.042 C 
BRANCH  12  13
HETATM   13  C   UNL     1      43.807 -16.182   7.207  1.00  0.00     0.075 A 
HETATM   14  O   UNL     1      44.920 -16.777   6.656  1.00  0.00    -0.323 OA
HETATM   15  C   UNL     1      45.019 -18.036   7.147  1.00  0.00     0.142 A 
HETATM   16  C   UNL     1      43.982 -18.300   8.003  1.00  0.00     0.027 A 
HETATM   17  C   UNL     1      43.201 -17.120   8.035  1.00  0.00     0.039 A 
ENDBRANCH  12  13
ENDBRANCH   8  11
ENDBRANCH   3   7
BRANCH   5  18
HETATM   18  C   UNL     1      44.347 -20.698   3.156  1.00  0.00     0.061 A 
HETATM   19  N   UNL     1      44.343 -21.819   2.361  1.00  0.00    -0.278 N 
HETATM   20  H   UNL     1      44.149 -21.873   1.368  1.00  0.00     0.189 HD
HETATM   21  N   UNL     1      44.649 -22.957   3.006  1.00  0.00    -0.187 NA
HETATM   22  C   UNL     1      44.869 -22.557   4.258  1.00  0.00     0.141 A 
HETATM   23  C   UNL     1      44.704 -21.168   4.408  1.00  0.00     0.053 A 
ENDBRANCH   5  18
TORSDOF 4
ENDMDL
MODEL 3
REMARK VINA RESULT:      -7.1      1.716      2.531
REMARK  4 active torsions:
REMARK  status: ('A' for Active; 'I' for Inactive)
REMARK    1  A    between atoms: C_3  and  N_4 
REMARK       I    between atoms: N_4  and  C_5 
REMARK    2  A    between atoms: C_5  and  C_6 
REMARK    3  A    between atoms: C_7  and  C_8 
REMARK    4  A    between atoms: C_15  and  C_16 
ROOT
HETATM    1  C   UNL     1      43.822 -17.619   1.366  1.00  0.00     0.003 A 
HETATM    2  C   UNL     1      43.011 -16.824   2.179  1.00  0.00     0.029 A 
HETATM    3  C   UNL     1      42.622 -17.274   3.439  1.00  0.00     0.035 A 
HETATM    4  C   UNL     1      43.070 -18.529   3.880  1.00  0.00     0.043 A 
HETATM    5  C   UNL     1      43.880 -19.345   3.071  1.00  0.00    -0.006 A 
HETATM    6  C   UNL     1      44.248 -18.873   1.806  1.00  0.00     0.014 A 
ENDROOT
BRANCH   3   7
HETATM    7  N   UNL     1      41.775 -16.548   4.304  1.00  0.00    -0.324 N 
HETATM    8  C   UNL     1      42.111 -15.454   5.073  1.00  0.00     0.245 C 
HETATM    9  O   UNL     1      43.198 -14.906   5.184  1.00  0.00    -0.268 OA
HETATM   10  H   UNL     1      40.814 -16.857   4.350  1.00  0.00     0.169 HD
BRANCH   8  11
HETATM   11  C   UNL     1      40.913 -14.870   5.728  1.00  0.00     0.077 C 
HETATM   12  C   UNL     1      39.880 -14.311   5.083  1.00  0.00     0.042 C 
BRANCH  12  13
HETATM   13  C   UNL     1      39.843 -14.089   3.680  1.00  0.00     0.075 A 
HETATM   14  O   UNL     1      39.571 -15.065   2.748  1.00  0.00    -0.323 OA
HETATM   15  C   UNL     1      39.639 -14.510   1.514  1.00  0.00     0.142 A 
HETATM   16  C   UNL     1      39.970 -13.184   1.603  1.00  0.00     0.027 A 
HETATM   17  C   UNL     1      40.111 -12.915   2.986  1.00  0.00     0.039 A 
ENDBRANCH  12  13
ENDBRANCH   8  11
ENDBRANCH   3   7
BRANCH   5  18
HETATM   18  C   UNL     1      44.300 -20.667   3.542  1.00  0.00     0.061 A 
HETATM   19  N   UNL     1      44.309 -21.797   2.759  1.00  0.00    -0.278 N 
HETATM   20  H   UNL     1      44.055 -21.875   1.781  1.00  0.00     0.189 HD
HETATM   21  N   UNL     1      44.720 -22.908   3.393  1.00  0.00    -0.187 NA
HETATM   22  C   UNL     1      44.997 -22.479   4.624  1.00  0.00     0.141 A 
HETATM   23  C   UNL     1      44.763 -21.101   4.772  1.00  0.00     0.053 A 
ENDBRANCH   5  18
TORSDOF 4
ENDMDL
MODEL 4
REMARK VINA RESULT:      -7.0      2.238      4.361
REMARK  4 active torsions:
REMARK  status: ('A' for Active; 'I' for Inactive)
REMARK    1  A    between atoms: C_3  and  N_4 
REMARK       I    between atoms: N_4  and  C_5 
REMARK    2  A    between atoms: C_5  and  C_6 
REMARK    3  A    between atoms: C_7  and  C_8 
REMARK    4  A    between atoms: C_15  and  C_16 
ROOT
HETATM    1  C   UNL     1      44.315 -20.084   2.641  1.00  0.00     0.003 A 
HETATM    2  C   UNL     1      43.879 -19.127   1.723  1.00  0.00     0.029 A 
HETATM    3  C   UNL     1      43.394 -17.898   2.165  1.00  0.00     0.035 A 
HETATM    4  C   UNL     1      43.365 -17.636   3.545  1.00  0.00     0.043 A 
HETATM    5  C   UNL     1      43.792 -18.592   4.482  1.00  0.00    -0.006 A 
HETATM    6  C   UNL     1      44.266 -19.822   4.011  1.00  0.00     0.014 A 
ENDROOT
BRANCH   3   7
HETATM    7  N   UNL     1      42.901 -16.894   1.305  1.00  0.00    -0.324 N 
HETATM    8  C   UNL     1      41.580 -16.570   1.074  1.00  0.00     0.245 C 
HETATM    9  O   UNL     1      40.576 -17.091   1.538  1.00  0.00    -0.268 OA
HETATM   10  H   UNL     1      43.594 -16.342   0.818  1.00  0.00     0.169 HD
BRANCH   8  11
HETATM   11  C   UNL     1      41.465 -15.355   0.228  1.00  0.00     0.077 C 
HETATM   12  C   UNL     1      41.750 -14.109   0.629  1.00  0.00     0.042 C 
BRANCH  12  13
HETATM   13  C   UNL     1      42.087 -13.761   1.964  1.00  0.00     0.075 A 
HETATM   14  O   UNL     1      43.320 -13.985   2.536  1.00  0.00    -0.323 OA
HETATM   15  C   UNL     1      43.283 -13.549   3.818  1.00  0.00     0.142 A 
HETATM   16  C   UNL     1      42.042 -13.053   4.120  1.00  0.00     0.027 A 
HETATM   17  C   UNL     1      41.273 -13.197   2.940  1.00  0.00     0.039 A 
ENDBRANCH  12  13
ENDBRANCH   8  11
ENDBRANCH   3   7
BRANCH   5  18
HETATM   18  C   UNL     1      43.714 -18.306   5.917  1.00  0.00     0.061 A 
HETATM   19  N   UNL     1      42.738 -17.530   6.496  1.00  0.00    -0.278 N 
HETATM   20  H   UNL     1      41.955 -17.076   6.039  1.00  0.00     0.189 HD
HETATM   21  N   UNL     1      42.861 -17.386   7.826  1.00  0.00    -0.187 NA
HETATM   22  C   UNL     1      43.946 -18.103   8.118  1.00  0.00     0.141 A 
HETATM   23  C   UNL     1      44.510 -18.701   6.977  1.00  0.00     0.053 A 
ENDBRANCH   5  18
TORSDOF 4
ENDMDL
MODEL 5
REMARK VINA RESULT:      -7.0      2.682      6.435
REMARK  4 active torsions:
REMARK  status: ('A' for Active; 'I' for Inactive)
REMARK    1  A    between atoms: C_3  and  N_4 
REMARK       I    between atoms: N_4  and  C_5 
REMARK    2  A    between atoms: C_5  and  C_6 
REMARK    3  A    between atoms: C_7  and  C_8 
REMARK    4  A    between atoms: C_15  and  C_16 
ROOT
HETATM    1  C   UNL     1      43.359 -17.388   0.994  1.00  0.00     0.003 A 
HETATM    2  C   UNL     1      43.654 -17.558   2.348  1.00  0.00     0.029 A 
HETATM    3  C   UNL     1      42.824 -17.010   3.323  1.00  0.00     0.035 A 
HETATM    4  C   UNL     1      41.682 -16.299   2.920  1.00  0.00     0.043 A 
HETATM    5  C   UNL     1      41.374 -16.111   1.562  1.00  0.00    -0.006 A 
HETATM    6  C   UNL     1      42.231 -16.665   0.603  1.00  0.00     0.014 A 
ENDROOT
BRANCH   3   7
HETATM    7  N   UNL     1      43.073 -17.104   4.709  1.00  0.00    -0.324 N 
HETATM    8  C   UNL     1      42.212 -17.572   5.679  1.00  0.00     0.245 C 
HETATM    9  O   UNL     1      41.065 -17.975   5.550  1.00  0.00    -0.268 OA
HETATM   10  H   UNL     1      43.989 -16.811   5.020  1.00  0.00     0.169 HD
BRANCH   8  11
HETATM   11  C   UNL     1      42.888 -17.665   6.998  1.00  0.00     0.077 C 
HETATM   12  C   UNL     1      43.795 -18.593   7.333  1.00  0.00     0.042 C 
BRANCH  12  13
HETATM   13  C   UNL     1      44.147 -19.696   6.511  1.00  0.00     0.075 A 
HETATM   14  O   UNL     1      44.812 -19.586   5.310  1.00  0.00    -0.323 OA
HETATM   15  C   UNL     1      44.963 -20.828   4.789  1.00  0.00     0.142 A 
HETATM   16  C   UNL     1      44.395 -21.765   5.612  1.00  0.00     0.027 A 
HETATM   17  C   UNL     1      43.863 -21.043   6.707  1.00  0.00     0.039 A 
ENDBRANCH  12  13
ENDBRANCH   8  11
ENDBRANCH   3   7
BRANCH   5  18
HETATM   18  C   UNL     1      40.197 -15.332   1.171  1.00  0.00     0.061 A 
HETATM   19  N   UNL     1      38.975 -15.417   1.794  1.00  0.00    -0.278 N 
HETATM   20  H   UNL     1      38.724 -15.993   2.590  1.00  0.00     0.189 HD
HETATM   21  N   UNL     1      38.028 -14.623   1.268  1.00  0.00    -0.187 NA
HETATM   22  C   UNL     1      38.663 -13.994   0.279  1.00  0.00     0.141 A 
HETATM   23  C   UNL     1      40.009 -14.388   0.177  1.00  0.00     0.053 A 
ENDBRANCH   5  18
TORSDOF 4
ENDMDL
MODEL 6
REMARK VINA RESULT:      -6.9      2.138      3.586
REMARK  4 active torsions:
REMARK  status: ('A' for Active; 'I' for Inactive)
REMARK    1  A    between atoms: C_3  and  N_4 
REMARK       I    between atoms: N_4  and  C_5 
REMARK    2  A    between atoms: C_5  and  C_6 
REMARK    3  A    between atoms: C_7  and  C_8 
REMARK    4  A    between atoms: C_15  and  C_16 
ROOT
HETATM    1  C   UNL     1      43.522 -17.966   0.878  1.00  0.00     0.003 A 
HETATM    2  C   UNL     1      43.403 -16.746   1.546  1.00  0.00     0.029 A 
HETATM    3  C   UNL     1      43.599 -16.676   2.923  1.00  0.00     0.035 A 
HETATM    4  C   UNL     1      43.932 -17.847   3.623  1.00  0.00     0.043 A 
HETATM    5  C   UNL     1      44.048 -19.085   2.967  1.00  0.00    -0.006 A 
HETATM    6  C   UNL     1      43.836 -19.129   1.585  1.00  0.00     0.014 A 
ENDROOT
BRANCH   3   7
HETATM    7  N   UNL     1      43.460 -15.490   3.676  1.00  0.00    -0.324 N 
HETATM    8  C   UNL     1      42.918 -14.294   3.253  1.00  0.00     0.245 C 
HETATM    9  O   UNL     1      42.472 -14.007   2.152  1.00  0.00    -0.268 OA
HETATM   10  H   UNL     1      43.780 -15.528   4.634  1.00  0.00     0.169 HD
BRANCH   8  11
HETATM   11  C   UNL     1      42.802 -13.330   4.377  1.00  0.00     0.077 C 
HETATM   12  C   UNL     1      42.401 -13.641   5.618  1.00  0.00     0.042 C 
BRANCH  12  13
HETATM   13  C   UNL     1      41.912 -14.918   6.000  1.00  0.00     0.075 A 
HETATM   14  O   UNL     1      42.695 -15.920   6.530  1.00  0.00    -0.323 OA
HETATM   15  C   UNL     1      41.910 -17.001   6.758  1.00  0.00     0.142 A 
HETATM   16  C   UNL     1      40.619 -16.745   6.374  1.00  0.00     0.027 A 
HETATM   17  C   UNL     1      40.621 -15.419   5.880  1.00  0.00     0.039 A 
ENDBRANCH  12  13
ENDBRANCH   8  11
ENDBRANCH   3   7
BRANCH   5  18
HETATM   18  C   UNL     1      44.358 -20.298   3.729  1.00  0.00     0.061 A 
HETATM   19  N   UNL     1      44.433 -21.555   3.178  1.00  0.00    -0.278 N 
HETATM   20  H   UNL     1      44.308 -21.814   2.206  1.00  0.00     0.189 HD
HETATM   21  N   UNL     1      44.719 -22.529   4.058  1.00  0.00    -0.187 NA
HETATM   22  C   UNL     1      44.844 -21.878   5.214  1.00  0.00     0.141 A 
HETATM   23  C   UNL     1      44.639 -20.494   5.070  1.00  0.00     0.053 A 
ENDBRANCH   5  18
TORSDOF 4
ENDMDL
MODEL 7
REMARK VINA RESULT:      -6.8      2.110      3.241
REMARK  4 active torsions:
REMARK  status: ('A' for Active; 'I' for Inactive)
REMARK    1  A    between atoms: C_3  and  N_4 
REMARK       I    between atoms: N_4  and  C_5 
REMARK    2  A    between atoms: C_5  and  C_6 
REMARK    3  A    between atoms: C_7  and  C_8 
REMARK    4  A    between atoms: C_15  and  C_16 
ROOT
HETATM    1  C   UNL     1      44.206 -17.497   6.069  1.00  0.00     0.003 A 
HETATM    2  C   UNL     1      43.630 -16.360   5.498  1.00  0.00     0.029 A 
HETATM    3  C   UNL     1      43.157 -16.393   4.189  1.00  0.00     0.035 A 
HETATM    4  C   UNL     1      43.258 -17.589   3.460  1.00  0.00     0.043 A 
HETATM    5  C   UNL     1      43.842 -18.740   4.015  1.00  0.00    -0.006 A 
HETATM    6  C   UNL     1      44.318 -18.677   5.330  1.00  0.00     0.014 A 
ENDROOT
BRANCH   3   7
HETATM    7  N   UNL     1      42.597 -15.278   3.529  1.00  0.00    -0.324 N 
HETATM    8  C   UNL     1      43.202 -14.062   3.288  1.00  0.00     0.245 C 
HETATM    9  O   UNL     1      44.323 -13.692   3.608  1.00  0.00    -0.268 OA
HETATM   10  H   UNL     1      41.654 -15.391   3.182  1.00  0.00     0.169 HD
BRANCH   8  11
HETATM   11  C   UNL     1      42.351 -13.199   2.429  1.00  0.00     0.077 C 
HETATM   12  C   UNL     1      41.398 -12.370   2.877  1.00  0.00     0.042 C 
BRANCH  12  13
HETATM   13  C   UNL     1      40.984 -12.292   4.234  1.00  0.00     0.075 A 
HETATM   14  O   UNL     1      41.613 -11.529   5.192  1.00  0.00    -0.323 OA
HETATM   15  C   UNL     1      40.968 -11.706   6.371  1.00  0.00     0.142 A 
HETATM   16  C   UNL     1      39.930 -12.588   6.221  1.00  0.00     0.027 A 
HETATM   17  C   UNL     1      39.945 -12.972   4.859  1.00  0.00     0.039 A 
ENDBRANCH  12  13
ENDBRANCH   8  11
ENDBRANCH   3   7
BRANCH   5  18
HETATM   18  C   UNL     1      43.969 -19.962   3.218  1.00  0.00     0.061 A 
HETATM   19  N   UNL     1      44.614 -21.098   3.647  1.00  0.00    -0.278 N 
HETATM   20  H   UNL     1      45.062 -21.256   4.542  1.00  0.00     0.189 HD
HETATM   21  N   UNL     1      44.624 -22.100   2.752  1.00  0.00    -0.187 NA
HETATM   22  C   UNL     1      43.953 -21.600   1.715  1.00  0.00     0.141 A 
HETATM   23  C   UNL     1      43.517 -20.284   1.950  1.00  0.00     0.053 A 
ENDBRANCH   5  18
TORSDOF 4
ENDMDL
MODEL 8
REMARK VINA RESULT:      -6.8      3.357      6.962
REMARK  4 active torsions:
REMARK  status: ('A' for Active; 'I' for Inactive)
REMARK    1  A    between atoms: C_3  and  N_4 
REMARK       I    between atoms: N_4  and  C_5 
REMARK    2  A    between atoms: C_5  and  C_6 
REMARK    3  A    between atoms: C_7  and  C_8 
REMARK    4  A    between atoms: C_15  and  C_16 
ROOT
HETATM    1  C   UNL     1      40.542 -14.588   2.336  1.00  0.00     0.003 A 
HETATM    2  C   UNL     1      41.218 -15.774   2.631  1.00  0.00     0.029 A 
HETATM    3  C   UNL     1      41.646 -16.613   1.605  1.00  0.00     0.035 A 
HETATM    4  C   UNL     1      41.400 -16.239   0.274  1.00  0.00     0.043 A 
HETATM    5  C   UNL     1      40.715 -15.053  -0.040  1.00  0.00    -0.006 A 
HETATM    6  C   UNL     1      40.287 -14.233   1.010  1.00  0.00     0.014 A 
ENDROOT
BRANCH   3   7
HETATM    7  N   UNL     1      42.300 -17.845   1.821  1.00  0.00    -0.324 N 
HETATM    8  C   UNL     1      43.653 -18.096   1.730  1.00  0.00     0.245 C 
HETATM    9  O   UNL     1      44.552 -17.325   1.427  1.00  0.00    -0.268 OA
HETATM   10  H   UNL     1      41.712 -18.623   2.086  1.00  0.00     0.169 HD
BRANCH   8  11
HETATM   11  C   UNL     1      43.975 -19.474   2.182  1.00  0.00     0.077 C 
HETATM   12  C   UNL     1      44.073 -19.860   3.461  1.00  0.00     0.042 C 
BRANCH  12  13
HETATM   13  C   UNL     1      44.003 -18.972   4.568  1.00  0.00     0.075 A 
HETATM   14  O   UNL     1      42.907 -18.194   4.869  1.00  0.00    -0.323 OA
HETATM   15  C   UNL     1      43.193 -17.460   5.971  1.00  0.00     0.142 A 
HETATM   16  C   UNL     1      44.467 -17.720   6.403  1.00  0.00     0.027 A 
HETATM   17  C   UNL     1      44.990 -18.678   5.502  1.00  0.00     0.039 A 
ENDBRANCH  12  13
ENDBRANCH   8  11
ENDBRANCH   3   7
BRANCH   5  18
HETATM   18  C   UNL     1      40.438 -14.707  -1.436  1.00  0.00     0.061 A 
HETATM   19  N   UNL     1      39.179 -14.675  -1.987  1.00  0.00    -0.278 N 
HETATM   20  H   UNL     1      38.296 -14.860  -1.525  1.00  0.00     0.189 HD
HETATM   21  N   UNL     1      39.152 -14.344  -3.289  1.00  0.00    -0.187 NA
HETATM   22  C   UNL     1      40.436 -14.145  -3.587  1.00  0.00     0.141 A 
HETATM   23  C   UNL     1      41.276 -14.347  -2.478  1.00  0.00     0.053 A 
ENDBRANCH   5  18
TORSDOF 4
ENDMDL
MODEL 9
REMARK VINA RESULT:      -6.7      2.578      4.003
REMARK  4 active torsions:
REMARK  status: ('A' for Active; 'I' for Inactive)
REMARK    1  A    between atoms: C_3  and  N_4 
REMARK       I    between atoms: N_4  and  C_5 
REMARK    2  A    between atoms: C_5  and  C_6 
REMARK    3  A    between atoms: C_7  and  C_8 
REMARK    4  A    between atoms: C_15  and  C_16 
ROOT
HETATM    1  C   UNL     1      43.650 -17.750   0.946  1.00  0.00     0.003 A 
HETATM    2  C   UNL     1      42.433 -17.101   0.735  1.00  0.00     0.029 A 
HETATM    3  C   UNL     1      41.522 -16.956   1.778  1.00  0.00     0.035 A 
HETATM    4  C   UNL     1      41.857 -17.460   3.046  1.00  0.00     0.043 A 
HETATM    5  C   UNL     1      43.074 -18.124   3.274  1.00  0.00    -0.006 A 
HETATM    6  C   UNL     1      43.967 -18.264   2.205  1.00  0.00     0.014 A 
ENDROOT
BRANCH   3   7
HETATM    7  N   UNL     1      40.257 -16.347   1.637  1.00  0.00    -0.324 N 
HETATM    8  C   UNL     1      39.874 -15.106   2.102  1.00  0.00     0.245 C 
HETATM    9  O   UNL     1      40.530 -14.296   2.742  1.00  0.00    -0.268 OA
HETATM   10  H   UNL     1      39.562 -16.873   1.126  1.00  0.00     0.169 HD
BRANCH   8  11
HETATM   11  C   UNL     1      38.515 -14.748   1.621  1.00  0.00     0.077 C 
HETATM   12  C   UNL     1      38.241 -14.192   0.434  1.00  0.00     0.042 C 
BRANCH  12  13
HETATM   13  C   UNL     1      39.230 -13.751  -0.486  1.00  0.00     0.075 A 
HETATM   14  O   UNL     1      40.183 -14.570  -1.050  1.00  0.00    -0.323 OA
HETATM   15  C   UNL     1      40.969 -13.818  -1.858  1.00  0.00     0.142 A 
HETATM   16  C   UNL     1      40.570 -12.507  -1.831  1.00  0.00     0.027 A 
HETATM   17  C   UNL     1      39.466 -12.460  -0.946  1.00  0.00     0.039 A 
ENDBRANCH  12  13
ENDBRANCH   8  11
ENDBRANCH   3   7
BRANCH   5  18
HETATM   18  C   UNL     1      43.380 -18.674   4.597  1.00  0.00     0.061 A 
HETATM   19  N   UNL     1      42.787 -18.250   5.763  1.00  0.00    -0.278 N 
HETATM   20  H   UNL     1      42.073 -17.540   5.872  1.00  0.00     0.189 HD
HETATM   21  N   UNL     1      43.223 -18.882   6.866  1.00  0.00    -0.187 NA
HETATM   22  C   UNL     1      44.118 -19.750   6.396  1.00  0.00     0.141 A 
HETATM   23  C   UNL     1      44.251 -19.672   4.998  1.00  0.00     0.053 A 
ENDBRANCH   5  18
TORSDOF 4
ENDMDL
MODEL 10
REMARK VINA RESULT:      -6.7      3.057      4.388
REMARK  4 active torsions:
REMARK  status: ('A' for Active; 'I' for Inactive)
REMARK    1  A    between atoms: C_3  and  N_4 
REMARK       I    between atoms: N_4  and  C_5 
REMARK    2  A    between atoms: C_5  and  C_6 
REMARK    3  A    between atoms: C_7  and  C_8 
REMARK    4  A    between atoms: C_15  and  C_16 
ROOT
HETATM    1  C   UNL     1      43.275 -16.073   3.270  1.00  0.00     0.003 A 
HETATM    2  C   UNL     1      42.762 -15.677   2.034  1.00  0.00     0.029 A 
HETATM    3  C   UNL     1      42.600 -16.606   1.009  1.00  0.00     0.035 A 
HETATM    4  C   UNL     1      42.948 -17.946   1.246  1.00  0.00     0.043 A 
HETATM    5  C   UNL     1      43.474 -18.360   2.482  1.00  0.00    -0.006 A 
HETATM    6  C   UNL     1      43.635 -17.404   3.491  1.00  0.00     0.014 A 
ENDROOT
BRANCH   3   7
HETATM    7  N   UNL     1      42.124 -16.279  -0.279  1.00  0.00    -0.324 N 
HETATM    8  C   UNL     1      41.030 -15.499  -0.589  1.00  0.00     0.245 C 
HETATM    9  O   UNL     1      40.242 -14.955   0.172  1.00  0.00    -0.268 OA
HETATM   10  H   UNL     1      42.655 -16.645  -1.058  1.00  0.00     0.169 HD
BRANCH   8  11
HETATM   11  C   UNL     1      40.942 -15.254  -2.051  1.00  0.00     0.077 C 
HETATM   12  C   UNL     1      41.288 -14.112  -2.662  1.00  0.00     0.042 C 
BRANCH  12  13
HETATM   13  C   UNL     1      41.673 -12.929  -1.977  1.00  0.00     0.075 A 
HETATM   14  O   UNL     1      40.793 -12.073  -1.354  1.00  0.00    -0.323 OA
HETATM   15  C   UNL     1      41.498 -11.044  -0.824  1.00  0.00     0.142 A 
HETATM   16  C   UNL     1      42.833 -11.188  -1.097  1.00  0.00     0.027 A 
HETATM   17  C   UNL     1      42.946 -12.386  -1.843  1.00  0.00     0.039 A 
ENDBRANCH  12  13
ENDBRANCH   8  11
ENDBRANCH   3   7
BRANCH   5  18
HETATM   18  C   UNL     1      43.865 -19.756   2.688  1.00  0.00     0.061 A 
HETATM   19  N   UNL     1      44.489 -20.223   3.820  1.00  0.00    -0.278 N 
HETATM   20  H   UNL     1      44.743 -19.697   4.648  1.00  0.00     0.189 HD
HETATM   21  N   UNL     1      44.770 -21.537   3.797  1.00  0.00    -0.187 NA
HETATM   22  C   UNL     1      44.301 -21.935   2.615  1.00  0.00     0.141 A 
HETATM   23  C   UNL     1      43.724 -20.878   1.889  1.00  0.00     0.053 A 
ENDBRANCH   5  18
TORSDOF 4
ENDMDL
