MODEL 1
REMARK VINA RESULT:      -8.4      0.000      0.000
REMARK  3 active torsions:
REMARK  status: ('A' for Active; 'I' for Inactive)
REMARK    1  A    between atoms: C_6  and  C_7 
REMARK       I    between atoms: C_7  and  N_8 
REMARK    2  A    between atoms: N_8  and  C_9 
REMARK    3  A    between atoms: N_12  and  C_13 
ROOT
HETATM    1  C   UNL     1      41.302 -15.529   4.053  1.00  0.00     0.177 C 
HETATM    2  C   UNL     1      40.473 -15.582   2.750  1.00  0.00     0.248 C 
HETATM    3  O   UNL     1      40.495 -16.608   2.067  1.00  0.00    -0.271 OA
HETATM    4  N   UNL     1      39.781 -14.382   2.485  1.00  0.00    -0.299 N 
HETATM    5  C   UNL     1      39.824 -13.336   3.505  1.00  0.00     0.134 C 
HETATM    6  C   UNL     1      39.530 -13.909   4.887  1.00  0.00     0.023 C 
HETATM    7  C   UNL     1      40.436 -15.089   5.231  1.00  0.00     0.036 C 
ENDROOT
BRANCH   1   8
HETATM    8  N   UNL     1      41.903 -16.830   4.301  1.00  0.00    -0.344 N 
HETATM    9  C   UNL     1      43.213 -16.973   4.683  1.00  0.00     0.253 C 
HETATM   10  O   UNL     1      43.960 -16.036   4.934  1.00  0.00    -0.268 OA
HETATM   11  H   UNL     1      41.348 -17.644   4.049  1.00  0.00     0.163 HD
BRANCH   9  12
HETATM   12  C   UNL     1      43.676 -18.380   4.815  1.00  0.00     0.043 A 
HETATM   13  C   UNL     1      43.694 -19.012   6.077  1.00  0.00    -0.045 A 
HETATM   14  C   UNL     1      44.181 -20.327   6.166  1.00  0.00     0.014 A 
HETATM   15  C   UNL     1      43.232 -18.329   7.335  1.00  0.00     0.049 C 
HETATM   16  C   UNL     1      44.605 -21.020   5.027  1.00  0.00    -0.061 A 
HETATM   17  C   UNL     1      45.104 -22.433   5.125  1.00  0.00     0.048 C 
HETATM   18  C   UNL     1      44.546 -20.389   3.780  1.00  0.00     0.014 A 
HETATM   19  C   UNL     1      44.093 -19.067   3.657  1.00  0.00    -0.045 A 
HETATM   20  C   UNL     1      44.044 -18.432   2.294  1.00  0.00     0.049 C 
ENDBRANCH   9  12
ENDBRANCH   1   8
BRANCH   4  21
HETATM   21  C   UNL     1      39.155 -14.179   1.244  1.00  0.00     0.154 A 
HETATM   22  N   UNL     1      39.808 -14.038   0.087  1.00  0.00    -0.155 NA
HETATM   23  N   UNL     1      38.865 -13.836  -0.840  1.00  0.00    -0.283 N 
HETATM   24  C   UNL     1      39.247 -13.633  -2.215  1.00  0.00     0.179 C 
HETATM   25  C   UNL     1      37.603 -13.851  -0.336  1.00  0.00     0.115 A 
HETATM   26  C   UNL     1      37.753 -14.067   1.013  1.00  0.00     0.071 A 
ENDBRANCH   4  21
TORSDOF 3
ENDMDL
MODEL 2
REMARK VINA RESULT:      -8.2      1.754      2.536
REMARK  3 active torsions:
REMARK  status: ('A' for Active; 'I' for Inactive)
REMARK    1  A    between atoms: C_6  and  C_7 
REMARK       I    between atoms: C_7  and  N_8 
REMARK    2  A    between atoms: N_8  and  C_9 
REMARK    3  A    between atoms: N_12  and  C_13 
ROOT
HETATM    1  C   UNL     1      40.798 -15.460   2.063  1.00  0.00     0.177 C 
HETATM    2  C   UNL     1      41.097 -15.408   0.548  1.00  0.00     0.248 C 
HETATM    3  O   UNL     1      41.880 -16.228   0.064  1.00  0.00    -0.271 OA
HETATM    4  N   UNL     1      40.419 -14.364  -0.115  1.00  0.00    -0.299 N 
HETATM    5  C   UNL     1      39.454 -13.586   0.659  1.00  0.00     0.134 C 
HETATM    6  C   UNL     1      38.526 -14.499   1.452  1.00  0.00     0.023 C 
HETATM    7  C   UNL     1      39.294 -15.493   2.320  1.00  0.00     0.036 C 
ENDROOT
BRANCH   1   8
HETATM    8  N   UNL     1      41.456 -16.616   2.650  1.00  0.00    -0.344 N 
HETATM    9  C   UNL     1      42.657 -16.522   3.309  1.00  0.00     0.253 C 
HETATM   10  O   UNL     1      43.232 -15.466   3.538  1.00  0.00    -0.268 OA
HETATM   11  H   UNL     1      41.055 -17.525   2.437  1.00  0.00     0.163 HD
BRANCH   9  12
HETATM   12  C   UNL     1      43.217 -17.818   3.775  1.00  0.00     0.043 A 
HETATM   13  C   UNL     1      43.064 -18.222   5.118  1.00  0.00    -0.045 A 
HETATM   14  C   UNL     1      43.647 -19.432   5.530  1.00  0.00     0.014 A 
HETATM   15  C   UNL     1      42.321 -17.400   6.135  1.00  0.00     0.049 C 
HETATM   16  C   UNL     1      44.334 -20.249   4.625  1.00  0.00    -0.061 A 
HETATM   17  C   UNL     1      44.936 -21.552   5.065  1.00  0.00     0.048 C 
HETATM   18  C   UNL     1      44.444 -19.850   3.289  1.00  0.00     0.014 A 
HETATM   19  C   UNL     1      43.899 -18.633   2.848  1.00  0.00    -0.045 A 
HETATM   20  C   UNL     1      44.040 -18.247   1.401  1.00  0.00     0.049 C 
ENDBRANCH   9  12
ENDBRANCH   1   8
BRANCH   4  21
HETATM   21  C   UNL     1      40.738 -14.038  -1.444  1.00  0.00     0.154 A 
HETATM   22  N   UNL     1      41.378 -12.925  -1.812  1.00  0.00    -0.155 NA
HETATM   23  N   UNL     1      41.457 -12.976  -3.146  1.00  0.00    -0.283 N 
HETATM   24  C   UNL     1      42.092 -11.900  -3.865  1.00  0.00     0.179 C 
HETATM   25  C   UNL     1      40.899 -14.096  -3.677  1.00  0.00     0.115 A 
HETATM   26  C   UNL     1      40.419 -14.806  -2.602  1.00  0.00     0.071 A 
ENDBRANCH   4  21
TORSDOF 3
ENDMDL
MODEL 3
REMARK VINA RESULT:      -8.1      1.719      2.989
REMARK  3 active torsions:
REMARK  status: ('A' for Active; 'I' for Inactive)
REMARK    1  A    between atoms: C_6  and  C_7 
REMARK       I    between atoms: C_7  and  N_8 
REMARK    2  A    between atoms: N_8  and  C_9 
REMARK    3  A    between atoms: N_12  and  C_13 
ROOT
HETATM    1  C   UNL     1      40.940 -15.698   2.225  1.00  0.00     0.177 C 
HETATM    2  C   UNL     1      41.273 -15.610   0.719  1.00  0.00     0.248 C 
HETATM    3  O   UNL     1      42.083 -16.405   0.238  1.00  0.00    -0.271 OA
HETATM    4  N   UNL     1      40.592 -14.566   0.062  1.00  0.00    -0.299 N 
HETATM    5  C   UNL     1      39.594 -13.821   0.827  1.00  0.00     0.134 C 
HETATM    6  C   UNL     1      38.665 -14.766   1.580  1.00  0.00     0.023 C 
HETATM    7  C   UNL     1      39.431 -15.764   2.446  1.00  0.00     0.036 C 
ENDROOT
BRANCH   1   8
HETATM    8  N   UNL     1      41.606 -16.854   2.805  1.00  0.00    -0.344 N 
HETATM    9  C   UNL     1      42.809 -16.758   3.459  1.00  0.00     0.253 C 
HETATM   10  O   UNL     1      43.381 -15.700   3.689  1.00  0.00    -0.268 OA
HETATM   11  H   UNL     1      41.207 -17.764   2.591  1.00  0.00     0.163 HD
BRANCH   9  12
HETATM   12  C   UNL     1      43.376 -18.053   3.917  1.00  0.00     0.043 A 
HETATM   13  C   UNL     1      44.009 -18.921   3.001  1.00  0.00    -0.045 A 
HETATM   14  C   UNL     1      44.491 -20.156   3.464  1.00  0.00     0.014 A 
HETATM   15  C   UNL     1      44.170 -18.587   1.543  1.00  0.00     0.049 C 
HETATM   16  C   UNL     1      44.388 -20.513   4.813  1.00  0.00    -0.061 A 
HETATM   17  C   UNL     1      44.926 -21.825   5.307  1.00  0.00     0.048 C 
HETATM   18  C   UNL     1      43.790 -19.625   5.713  1.00  0.00     0.014 A 
HETATM   19  C   UNL     1      43.271 -18.395   5.280  1.00  0.00    -0.045 A 
HETATM   20  C   UNL     1      42.639 -17.471   6.285  1.00  0.00     0.049 C 
ENDBRANCH   9  12
ENDBRANCH   1   8
BRANCH   4  21
HETATM   21  C   UNL     1      40.935 -14.207  -1.253  1.00  0.00     0.154 A 
HETATM   22  N   UNL     1      41.628 -13.112  -1.577  1.00  0.00    -0.155 NA
HETATM   23  N   UNL     1      41.715 -13.119  -2.911  1.00  0.00    -0.283 N 
HETATM   24  C   UNL     1      42.404 -12.048  -3.587  1.00  0.00     0.179 C 
HETATM   25  C   UNL     1      41.111 -14.192  -3.485  1.00  0.00     0.115 A 
HETATM   26  C   UNL     1      40.590 -14.918  -2.440  1.00  0.00     0.071 A 
ENDBRANCH   4  21
TORSDOF 3
ENDMDL
MODEL 4
REMARK VINA RESULT:      -7.8      2.752      8.210
REMARK  3 active torsions:
REMARK  status: ('A' for Active; 'I' for Inactive)
REMARK    1  A    between atoms: C_6  and  C_7 
REMARK       I    between atoms: C_7  and  N_8 
REMARK    2  A    between atoms: N_8  and  C_9 
REMARK    3  A    between atoms: N_12  and  C_13 
ROOT
HETATM    1  C   UNL     1      41.668 -15.902   1.845  1.00  0.00     0.177 C 
HETATM    2  C   UNL     1      42.767 -16.986   1.902  1.00  0.00     0.248 C 
HETATM    3  O   UNL     1      43.609 -17.033   1.003  1.00  0.00    -0.271 OA
HETATM    4  N   UNL     1      42.647 -17.838   3.019  1.00  0.00    -0.299 N 
HETATM    5  C   UNL     1      41.624 -17.514   4.011  1.00  0.00     0.134 C 
HETATM    6  C   UNL     1      41.672 -16.036   4.383  1.00  0.00     0.023 C 
HETATM    7  C   UNL     1      41.598 -15.128   3.158  1.00  0.00     0.036 C 
ENDROOT
BRANCH   1   8
HETATM    8  N   UNL     1      41.919 -15.012   0.723  1.00  0.00    -0.344 N 
HETATM    9  C   UNL     1      40.906 -14.381   0.045  1.00  0.00     0.253 C 
HETATM   10  O   UNL     1      39.727 -14.435   0.369  1.00  0.00    -0.268 OA
HETATM   11  H   UNL     1      42.872 -14.978   0.373  1.00  0.00     0.163 HD
BRANCH   9  12
HETATM   12  C   UNL     1      41.345 -13.571  -1.122  1.00  0.00     0.043 A 
HETATM   13  C   UNL     1      41.820 -12.255  -0.941  1.00  0.00    -0.045 A 
HETATM   14  C   UNL     1      42.183 -11.507  -2.074  1.00  0.00     0.014 A 
HETATM   15  C   UNL     1      41.935 -11.610   0.413  1.00  0.00     0.049 C 
HETATM   16  C   UNL     1      42.116 -12.059  -3.358  1.00  0.00    -0.061 A 
HETATM   17  C   UNL     1      42.526 -11.262  -4.563  1.00  0.00     0.048 C 
HETATM   18  C   UNL     1      41.677 -13.378  -3.514  1.00  0.00     0.014 A 
HETATM   19  C   UNL     1      41.279 -14.145  -2.408  1.00  0.00    -0.045 A 
HETATM   20  C   UNL     1      40.817 -15.560  -2.625  1.00  0.00     0.049 C 
ENDBRANCH   9  12
ENDBRANCH   1   8
BRANCH   4  21
HETATM   21  C   UNL     1      43.427 -19.003   3.114  1.00  0.00     0.154 A 
HETATM   22  N   UNL     1      43.414 -19.992   2.216  1.00  0.00    -0.155 NA
HETATM   23  N   UNL     1      44.260 -20.917   2.682  1.00  0.00    -0.283 N 
HETATM   24  C   UNL     1      44.466 -22.135   1.939  1.00  0.00     0.179 C 
HETATM   25  C   UNL     1      44.845 -20.568   3.858  1.00  0.00     0.115 A 
HETATM   26  C   UNL     1      44.326 -19.334   4.170  1.00  0.00     0.071 A 
ENDBRANCH   4  21
TORSDOF 3
ENDMDL
MODEL 5
REMARK VINA RESULT:      -7.7      1.822      2.138
REMARK  3 active torsions:
REMARK  status: ('A' for Active; 'I' for Inactive)
REMARK    1  A    between atoms: C_6  and  C_7 
REMARK       I    between atoms: C_7  and  N_8 
REMARK    2  A    between atoms: N_8  and  C_9 
REMARK    3  A    between atoms: N_12  and  C_13 
ROOT
HETATM    1  C   UNL     1      41.181 -14.733   4.193  1.00  0.00     0.177 C 
HETATM    2  C   UNL     1      40.323 -14.296   2.985  1.00  0.00     0.248 C 
HETATM    3  O   UNL     1      40.288 -15.015   1.984  1.00  0.00    -0.271 OA
HETATM    4  N   UNL     1      39.676 -13.059   3.183  1.00  0.00    -0.299 N 
HETATM    5  C   UNL     1      39.784 -12.443   4.504  1.00  0.00     0.134 C 
HETATM    6  C   UNL     1      39.496 -13.458   5.605  1.00  0.00     0.023 C 
HETATM    7  C   UNL     1      40.359 -14.711   5.480  1.00  0.00     0.036 C 
ENDROOT
BRANCH   1   8
HETATM    8  N   UNL     1      41.733 -16.056   3.947  1.00  0.00    -0.344 N 
HETATM    9  C   UNL     1      43.011 -16.245   3.484  1.00  0.00     0.253 C 
HETATM   10  O   UNL     1      43.822 -15.341   3.324  1.00  0.00    -0.268 OA
HETATM   11  H   UNL     1      41.085 -16.838   4.003  1.00  0.00     0.163 HD
BRANCH   9  12
HETATM   12  C   UNL     1      43.376 -17.660   3.216  1.00  0.00     0.043 A 
HETATM   13  C   UNL     1      43.923 -18.464   4.239  1.00  0.00    -0.045 A 
HETATM   14  C   UNL     1      44.297 -19.783   3.933  1.00  0.00     0.014 A 
HETATM   15  C   UNL     1      44.142 -17.961   5.639  1.00  0.00     0.049 C 
HETATM   16  C   UNL     1      44.100 -20.313   2.653  1.00  0.00    -0.061 A 
HETATM   17  C   UNL     1      44.481 -21.731   2.337  1.00  0.00     0.048 C 
HETATM   18  C   UNL     1      43.523 -19.512   1.661  1.00  0.00     0.014 A 
HETATM   19  C   UNL     1      43.164 -18.181   1.923  1.00  0.00    -0.045 A 
HETATM   20  C   UNL     1      42.544 -17.359   0.826  1.00  0.00     0.049 C 
ENDBRANCH   9  12
ENDBRANCH   1   8
BRANCH   4  21
HETATM   21  C   UNL     1      39.033 -12.412   2.115  1.00  0.00     0.154 A 
HETATM   22  N   UNL     1      39.416 -11.237   1.607  1.00  0.00    -0.155 NA
HETATM   23  N   UNL     1      38.537 -10.955   0.640  1.00  0.00    -0.283 N 
HETATM   24  C   UNL     1      38.668  -9.730  -0.108  1.00  0.00     0.179 C 
HETATM   25  C   UNL     1      37.587 -11.913   0.480  1.00  0.00     0.115 A 
HETATM   26  C   UNL     1      37.875 -12.871   1.422  1.00  0.00     0.071 A 
ENDBRANCH   4  21
TORSDOF 3
ENDMDL
MODEL 6
REMARK VINA RESULT:      -7.6      3.126      4.197
REMARK  3 active torsions:
REMARK  status: ('A' for Active; 'I' for Inactive)
REMARK    1  A    between atoms: C_6  and  C_7 
REMARK       I    between atoms: C_7  and  N_8 
REMARK    2  A    between atoms: N_8  and  C_9 
REMARK    3  A    between atoms: N_12  and  C_13 
ROOT
HETATM    1  C   UNL     1      41.379 -14.923   1.307  1.00  0.00     0.177 C 
HETATM    2  C   UNL     1      42.067 -13.542   1.228  1.00  0.00     0.248 C 
HETATM    3  O   UNL     1      42.857 -13.214   2.116  1.00  0.00    -0.271 OA
HETATM    4  N   UNL     1      41.665 -12.786   0.107  1.00  0.00    -0.299 N 
HETATM    5  C   UNL     1      40.794 -13.436  -0.870  1.00  0.00     0.134 C 
HETATM    6  C   UNL     1      41.316 -14.822  -1.232  1.00  0.00     0.023 C 
HETATM    7  C   UNL     1      41.553 -15.692  -0.000  1.00  0.00     0.036 C 
ENDROOT
BRANCH   1   8
HETATM    8  N   UNL     1      41.917 -15.672   2.431  1.00  0.00    -0.344 N 
HETATM    9  C   UNL     1      41.228 -16.698   3.028  1.00  0.00     0.253 C 
HETATM   10  O   UNL     1      40.157 -17.130   2.622  1.00  0.00    -0.268 OA
HETATM   11  H   UNL     1      42.773 -15.316   2.848  1.00  0.00     0.163 HD
BRANCH   9  12
HETATM   12  C   UNL     1      41.898 -17.296   4.212  1.00  0.00     0.043 A 
HETATM   13  C   UNL     1      41.634 -16.804   5.508  1.00  0.00    -0.045 A 
HETATM   14  C   UNL     1      42.323 -17.366   6.596  1.00  0.00     0.014 A 
HETATM   15  C   UNL     1      40.661 -15.688   5.772  1.00  0.00     0.049 C 
HETATM   16  C   UNL     1      43.226 -18.419   6.416  1.00  0.00    -0.061 A 
HETATM   17  C   UNL     1      43.943 -19.030   7.585  1.00  0.00     0.048 C 
HETATM   18  C   UNL     1      43.448 -18.917   5.127  1.00  0.00     0.014 A 
HETATM   19  C   UNL     1      42.799 -18.362   4.013  1.00  0.00    -0.045 A 
HETATM   20  C   UNL     1      43.067 -18.933   2.648  1.00  0.00     0.049 C 
ENDBRANCH   9  12
ENDBRANCH   1   8
BRANCH   4  21
HETATM   21  C   UNL     1      42.024 -11.432  -0.006  1.00  0.00     0.154 A 
HETATM   22  N   UNL     1      43.118 -10.995  -0.637  1.00  0.00    -0.155 NA
HETATM   23  N   UNL     1      43.112  -9.666  -0.493  1.00  0.00    -0.283 N 
HETATM   24  C   UNL     1      44.181  -8.882  -1.059  1.00  0.00     0.179 C 
HETATM   25  C   UNL     1      42.042  -9.204   0.205  1.00  0.00     0.115 A 
HETATM   26  C   UNL     1      41.317 -10.322   0.540  1.00  0.00     0.071 A 
ENDBRANCH   4  21
TORSDOF 3
ENDMDL
MODEL 7
REMARK VINA RESULT:      -7.5      3.182      4.521
REMARK  3 active torsions:
REMARK  status: ('A' for Active; 'I' for Inactive)
REMARK    1  A    between atoms: C_6  and  C_7 
REMARK       I    between atoms: C_7  and  N_8 
REMARK    2  A    between atoms: N_8  and  C_9 
REMARK    3  A    between atoms: N_12  and  C_13 
ROOT
HETATM    1  C   UNL     1      41.288 -14.764   0.945  1.00  0.00     0.177 C 
HETATM    2  C   UNL     1      41.961 -13.374   0.990  1.00  0.00     0.248 C 
HETATM    3  O   UNL     1      42.788 -13.137   1.873  1.00  0.00    -0.271 OA
HETATM    4  N   UNL     1      41.505 -12.505  -0.022  1.00  0.00    -0.299 N 
HETATM    5  C   UNL     1      40.595 -13.053  -1.026  1.00  0.00     0.134 C 
HETATM    6  C   UNL     1      41.110 -14.385  -1.562  1.00  0.00     0.023 C 
HETATM    7  C   UNL     1      41.408 -15.382  -0.445  1.00  0.00     0.036 C 
ENDROOT
BRANCH   1   8
HETATM    8  N   UNL     1      41.880 -15.626   1.956  1.00  0.00    -0.344 N 
HETATM    9  C   UNL     1      41.213 -16.701   2.488  1.00  0.00     0.253 C 
HETATM   10  O   UNL     1      40.114 -17.082   2.106  1.00  0.00    -0.268 OA
HETATM   11  H   UNL     1      42.764 -15.320   2.354  1.00  0.00     0.163 HD
BRANCH   9  12
HETATM   12  C   UNL     1      41.944 -17.419   3.564  1.00  0.00     0.043 A 
HETATM   13  C   UNL     1      42.872 -18.434   3.245  1.00  0.00    -0.045 A 
HETATM   14  C   UNL     1      43.508 -19.120   4.293  1.00  0.00     0.014 A 
HETATM   15  C   UNL     1      43.193 -18.825   1.829  1.00  0.00     0.049 C 
HETATM   16  C   UNL     1      43.265 -18.787   5.630  1.00  0.00    -0.061 A 
HETATM   17  C   UNL     1      43.964 -19.509   6.745  1.00  0.00     0.048 C 
HETATM   18  C   UNL     1      42.369 -17.754   5.926  1.00  0.00     0.014 A 
HETATM   19  C   UNL     1      41.693 -17.066   4.906  1.00  0.00    -0.045 A 
HETATM   20  C   UNL     1      40.741 -15.960   5.273  1.00  0.00     0.049 C 
ENDBRANCH   9  12
ENDBRANCH   1   8
BRANCH   4  21
HETATM   21  C   UNL     1      41.849 -11.143  -0.001  1.00  0.00     0.154 A 
HETATM   22  N   UNL     1      42.975 -10.644  -0.519  1.00  0.00    -0.155 NA
HETATM   23  N   UNL     1      42.939  -9.331  -0.268  1.00  0.00    -0.283 N 
HETATM   24  C   UNL     1      44.032  -8.493  -0.695  1.00  0.00     0.179 C 
HETATM   25  C   UNL     1      41.818  -8.939   0.391  1.00  0.00     0.115 A 
HETATM   26  C   UNL     1      41.089 -10.088   0.584  1.00  0.00     0.071 A 
ENDBRANCH   4  21
TORSDOF 3
ENDMDL
MODEL 8
REMARK VINA RESULT:      -7.5      2.058      2.846
REMARK  3 active torsions:
REMARK  status: ('A' for Active; 'I' for Inactive)
REMARK    1  A    between atoms: C_6  and  C_7 
REMARK       I    between atoms: C_7  and  N_8 
REMARK    2  A    between atoms: N_8  and  C_9 
REMARK    3  A    between atoms: N_12  and  C_13 
ROOT
HETATM    1  C   UNL     1      42.881 -14.777   4.037  1.00  0.00     0.177 C 
HETATM    2  C   UNL     1      42.558 -14.490   2.554  1.00  0.00     0.248 C 
HETATM    3  O   UNL     1      42.857 -15.329   1.702  1.00  0.00    -0.271 OA
HETATM    4  N   UNL     1      41.953 -13.232   2.353  1.00  0.00    -0.299 N 
HETATM    5  C   UNL     1      41.597 -12.455   3.539  1.00  0.00     0.134 C 
HETATM    6  C   UNL     1      40.866 -13.319   4.560  1.00  0.00     0.023 C 
HETATM    7  C   UNL     1      41.645 -14.585   4.911  1.00  0.00     0.036 C 
ENDROOT
BRANCH   1   8
HETATM    8  N   UNL     1      43.412 -16.125   4.168  1.00  0.00    -0.344 N 
HETATM    9  C   UNL     1      42.602 -17.232   4.217  1.00  0.00     0.253 C 
HETATM   10  O   UNL     1      41.387 -17.199   4.068  1.00  0.00    -0.268 OA
HETATM   11  H   UNL     1      44.407 -16.206   4.358  1.00  0.00     0.163 HD
BRANCH   9  12
HETATM   12  C   UNL     1      43.314 -18.519   4.432  1.00  0.00     0.043 A 
HETATM   13  C   UNL     1      43.793 -19.264   3.333  1.00  0.00    -0.045 A 
HETATM   14  C   UNL     1      44.421 -20.497   3.577  1.00  0.00     0.014 A 
HETATM   15  C   UNL     1      43.641 -18.802   1.910  1.00  0.00     0.049 C 
HETATM   16  C   UNL     1      44.609 -20.969   4.880  1.00  0.00    -0.061 A 
HETATM   17  C   UNL     1      45.300 -22.277   5.135  1.00  0.00     0.048 C 
HETATM   18  C   UNL     1      44.159 -20.199   5.959  1.00  0.00     0.014 A 
HETATM   19  C   UNL     1      43.502 -18.976   5.752  1.00  0.00    -0.045 A 
HETATM   20  C   UNL     1      43.039 -18.182   6.943  1.00  0.00     0.049 C 
ENDBRANCH   9  12
ENDBRANCH   1   8
BRANCH   4  21
HETATM   21  C   UNL     1      41.787 -12.720   1.055  1.00  0.00     0.154 A 
HETATM   22  N   UNL     1      42.664 -11.914   0.448  1.00  0.00    -0.155 NA
HETATM   23  N   UNL     1      42.129 -11.630  -0.744  1.00  0.00    -0.283 N 
HETATM   24  C   UNL     1      42.834 -10.761  -1.653  1.00  0.00     0.179 C 
HETATM   25  C   UNL     1      40.929 -12.232  -0.954  1.00  0.00     0.115 A 
HETATM   26  C   UNL     1      40.674 -12.944   0.194  1.00  0.00     0.071 A 
ENDBRANCH   4  21
TORSDOF 3
ENDMDL
MODEL 9
REMARK VINA RESULT:      -7.5      2.686      8.346
REMARK  3 active torsions:
REMARK  status: ('A' for Active; 'I' for Inactive)
REMARK    1  A    between atoms: C_6  and  C_7 
REMARK       I    between atoms: C_7  and  N_8 
REMARK    2  A    between atoms: N_8  and  C_9 
REMARK    3  A    between atoms: N_12  and  C_13 
ROOT
HETATM    1  C   UNL     1      41.763 -15.963   1.944  1.00  0.00     0.177 C 
HETATM    2  C   UNL     1      42.762 -17.140   1.899  1.00  0.00     0.248 C 
HETATM    3  O   UNL     1      43.500 -17.262   0.919  1.00  0.00    -0.271 OA
HETATM    4  N   UNL     1      42.681 -17.979   3.029  1.00  0.00    -0.299 N 
HETATM    5  C   UNL     1      41.797 -17.565   4.117  1.00  0.00     0.134 C 
HETATM    6  C   UNL     1      42.015 -16.098   4.469  1.00  0.00     0.023 C 
HETATM    7  C   UNL     1      41.898 -15.185   3.251  1.00  0.00     0.036 C 
ENDROOT
BRANCH   1   8
HETATM    8  N   UNL     1      41.976 -15.097   0.795  1.00  0.00    -0.344 N 
HETATM    9  C   UNL     1      40.942 -14.476   0.141  1.00  0.00     0.253 C 
HETATM   10  O   UNL     1      39.775 -14.517   0.509  1.00  0.00    -0.268 OA
HETATM   11  H   UNL     1      42.916 -15.076   0.409  1.00  0.00     0.163 HD
BRANCH   9  12
HETATM   12  C   UNL     1      41.342 -13.694  -1.059  1.00  0.00     0.043 A 
HETATM   13  C   UNL     1      41.254 -14.265  -2.346  1.00  0.00    -0.045 A 
HETATM   14  C   UNL     1      41.684 -13.509  -3.450  1.00  0.00     0.014 A 
HETATM   15  C   UNL     1      40.739 -15.657  -2.586  1.00  0.00     0.049 C 
HETATM   16  C   UNL     1      42.155 -12.201  -3.293  1.00  0.00    -0.061 A 
HETATM   17  C   UNL     1      42.593 -11.390  -4.478  1.00  0.00     0.048 C 
HETATM   18  C   UNL     1      42.201 -11.639  -2.012  1.00  0.00     0.014 A 
HETATM   19  C   UNL     1      41.806 -12.375  -0.883  1.00  0.00    -0.045 A 
HETATM   20  C   UNL     1      41.870 -11.727   0.473  1.00  0.00     0.049 C 
ENDBRANCH   9  12
ENDBRANCH   1   8
BRANCH   4  21
HETATM   21  C   UNL     1      43.360 -19.209   3.054  1.00  0.00     0.154 A 
HETATM   22  N   UNL     1      43.979 -19.703   4.130  1.00  0.00    -0.155 NA
HETATM   23  N   UNL     1      44.521 -20.861   3.736  1.00  0.00    -0.283 N 
HETATM   24  C   UNL     1      45.280 -21.649   4.675  1.00  0.00     0.179 C 
HETATM   25  C   UNL     1      44.271 -21.158   2.434  1.00  0.00     0.115 A 
HETATM   26  C   UNL     1      43.524 -20.106   1.959  1.00  0.00     0.071 A 
ENDBRANCH   4  21
TORSDOF 3
ENDMDL
MODEL 10
REMARK VINA RESULT:      -7.4      2.962      4.512
REMARK  3 active torsions:
REMARK  status: ('A' for Active; 'I' for Inactive)
REMARK    1  A    between atoms: C_6  and  C_7 
REMARK       I    between atoms: C_7  and  N_8 
REMARK    2  A    between atoms: N_8  and  C_9 
REMARK    3  A    between atoms: N_12  and  C_13 
ROOT
HETATM    1  C   UNL     1      41.521 -13.977   2.685  1.00  0.00     0.177 C 
HETATM    2  C   UNL     1      41.537 -13.018   3.896  1.00  0.00     0.248 C 
HETATM    3  O   UNL     1      42.034 -13.402   4.957  1.00  0.00    -0.271 OA
HETATM    4  N   UNL     1      40.931 -11.774   3.626  1.00  0.00    -0.299 N 
HETATM    5  C   UNL     1      40.508 -11.511   2.252  1.00  0.00     0.134 C 
HETATM    6  C   UNL     1      41.611 -11.872   1.263  1.00  0.00     0.023 C 
HETATM    7  C   UNL     1      42.112 -13.302   1.450  1.00  0.00     0.036 C 
ENDROOT
BRANCH   1   8
HETATM    8  N   UNL     1      42.247 -15.193   3.016  1.00  0.00    -0.344 N 
HETATM    9  C   UNL     1      41.719 -16.443   2.808  1.00  0.00     0.253 C 
HETATM   10  O   UNL     1      40.648 -16.650   2.253  1.00  0.00    -0.268 OA
HETATM   11  H   UNL     1      43.113 -15.080   3.535  1.00  0.00     0.163 HD
BRANCH   9  12
HETATM   12  C   UNL     1      42.571 -17.567   3.278  1.00  0.00     0.043 A 
HETATM   13  C   UNL     1      42.464 -18.038   4.604  1.00  0.00    -0.045 A 
HETATM   14  C   UNL     1      43.318 -19.072   5.023  1.00  0.00     0.014 A 
HETATM   15  C   UNL     1      41.487 -17.467   5.595  1.00  0.00     0.049 C 
HETATM   16  C   UNL     1      44.234 -19.657   4.142  1.00  0.00    -0.061 A 
HETATM   17  C   UNL     1      45.129 -20.776   4.589  1.00  0.00     0.048 C 
HETATM   18  C   UNL     1      44.300 -19.200   2.821  1.00  0.00     0.014 A 
HETATM   19  C   UNL     1      43.482 -18.150   2.375  1.00  0.00    -0.045 A 
HETATM   20  C   UNL     1      43.587 -17.695   0.945  1.00  0.00     0.049 C 
ENDBRANCH   9  12
ENDBRANCH   1   8
BRANCH   4  21
HETATM   21  C   UNL     1      40.667 -10.869   4.668  1.00  0.00     0.154 A 
HETATM   22  N   UNL     1      41.456  -9.839   4.987  1.00  0.00    -0.155 NA
HETATM   23  N   UNL     1      40.878  -9.251   6.038  1.00  0.00    -0.283 N 
HETATM   24  C   UNL     1      41.496  -8.095   6.639  1.00  0.00     0.179 C 
HETATM   25  C   UNL     1      39.720  -9.850   6.423  1.00  0.00     0.115 A 
HETATM   26  C   UNL     1      39.554 -10.906   5.558  1.00  0.00     0.071 A 
ENDBRANCH   4  21
TORSDOF 3
ENDMDL
