MODEL 1
REMARK VINA RESULT:      -7.8      0.000      0.000
REMARK  6 active torsions:
REMARK  status: ('A' for Active; 'I' for Inactive)
REMARK    1  A    between atoms: C_2  and  O_3 
REMARK    2  A    between atoms: O_3  and  C_4 
REMARK    3  A    between atoms: C_4  and  C_5 
REMARK    4  A    between atoms: C_6  and  O_7 
REMARK    5  A    between atoms: C_12  and  O_13 
REMARK    6  A    between atoms: C_17  and  C_18 
ROOT
HETATM    1  C   UNL     1      42.169 -17.645   2.337  1.00  0.00     0.133 C 
HETATM    2  C   UNL     1      41.002 -17.059   1.468  1.00  0.00     0.073 C 
HETATM    3  C   UNL     1      39.742 -16.859   2.327  1.00  0.00     0.047 C 
HETATM    4  C   UNL     1      41.355 -15.728   0.748  1.00  0.00     0.097 C 
HETATM    5  C   UNL     1      42.093 -14.841   1.672  1.00  0.00     0.042 A 
HETATM    6  C   UNL     1      42.830 -15.221   2.774  1.00  0.00     0.030 A 
HETATM    7  C   UNL     1      43.340 -14.001   3.248  1.00  0.00     0.190 A 
HETATM    8  N   UNL     1      42.953 -12.947   2.540  1.00  0.00    -0.149 NA
HETATM    9  N   UNL     1      42.189 -13.483   1.574  1.00  0.00    -0.279 N 
HETATM   10  H   UNL     1      41.778 -12.862   0.884  1.00  0.00     0.189 HD
HETATM   11  C   UNL     1      43.011 -16.644   3.182  1.00  0.00     0.075 C 
ENDROOT
BRANCH  11  12
HETATM   12  C   UNL     1      42.757 -16.768   4.678  1.00  0.00    -0.045 A 
HETATM   13  C   UNL     1      41.480 -16.811   5.258  1.00  0.00     0.050 A 
HETATM   14  C   UNL     1      41.334 -16.946   6.637  1.00  0.00     0.117 A 
HETATM   15  F   UNL     1      40.106 -16.980   7.168  1.00  0.00    -0.206 F 
HETATM   16  C   UNL     1      42.441 -17.045   7.471  1.00  0.00     0.042 A 
HETATM   17  C   UNL     1      43.716 -17.013   6.917  1.00  0.00     0.004 A 
HETATM   18  C   UNL     1      43.872 -16.882   5.533  1.00  0.00     0.008 A 
ENDBRANCH  11  12
BRANCH   1  19
HETATM   19  C   UNL     1      43.149 -18.384   1.447  1.00  0.00     0.267 C 
HETATM   20  O   UNL     1      43.890 -17.850   0.633  1.00  0.00    -0.265 OA
BRANCH  19  21
HETATM   21  O   UNL     1      43.076 -19.724   1.685  1.00  0.00    -0.316 OA
BRANCH  21  22
HETATM   22  C   UNL     1      44.283 -20.367   2.140  1.00  0.00     0.123 C 
HETATM   23  C   UNL     1      44.221 -21.866   1.862  1.00  0.00     0.040 C 
HETATM   24  C   UNL     1      44.380 -20.110   3.638  1.00  0.00     0.040 C 
ENDBRANCH  21  22
ENDBRANCH  19  21
ENDBRANCH   1  19
BRANCH   2  25
HETATM   25  O   UNL     1      40.597 -18.027   0.479  1.00  0.00    -0.389 OA
HETATM   26  H   UNL     1      40.290 -17.542  -0.313  1.00  0.00     0.210 HD
ENDBRANCH   2  25
BRANCH   7  27
HETATM   27  O   UNL     1      44.135 -13.752   4.292  1.00  0.00    -0.343 OA
HETATM   28  H   UNL     1      44.992 -13.425   3.980  1.00  0.00     0.219 HD
ENDBRANCH   7  27
TORSDOF 6
ENDMDL
MODEL 2
REMARK VINA RESULT:      -7.8      2.807      5.042
REMARK  6 active torsions:
REMARK  status: ('A' for Active; 'I' for Inactive)
REMARK    1  A    between atoms: C_2  and  O_3 
REMARK    2  A    between atoms: O_3  and  C_4 
REMARK    3  A    between atoms: C_4  and  C_5 
REMARK    4  A    between atoms: C_6  and  O_7 
REMARK    5  A    between atoms: C_12  and  O_13 
REMARK    6  A    between atoms: C_17  and  C_18 
ROOT
HETATM    1  C   UNL     1      42.615 -16.303   5.567  1.00  0.00     0.133 C 
HETATM    2  C   UNL     1      42.763 -14.756   5.783  1.00  0.00     0.073 C 
HETATM    3  C   UNL     1      43.855 -14.188   4.861  1.00  0.00     0.047 C 
HETATM    4  C   UNL     1      41.445 -13.959   5.577  1.00  0.00     0.097 C 
HETATM    5  C   UNL     1      40.737 -14.465   4.382  1.00  0.00     0.042 A 
HETATM    6  C   UNL     1      40.858 -15.716   3.815  1.00  0.00     0.030 A 
HETATM    7  C   UNL     1      39.942 -15.669   2.750  1.00  0.00     0.190 A 
HETATM    8  N   UNL     1      39.317 -14.504   2.632  1.00  0.00    -0.149 NA
HETATM    9  N   UNL     1      39.818 -13.777   3.645  1.00  0.00    -0.279 N 
HETATM   10  H   UNL     1      39.477 -12.829   3.773  1.00  0.00     0.189 HD
HETATM   11  C   UNL     1      41.736 -16.783   4.375  1.00  0.00     0.075 C 
ENDROOT
BRANCH  11  12
HETATM   12  C   UNL     1      42.550 -17.399   3.245  1.00  0.00    -0.045 A 
HETATM   13  C   UNL     1      42.577 -18.772   2.953  1.00  0.00     0.050 A 
HETATM   14  C   UNL     1      43.334 -19.252   1.887  1.00  0.00     0.117 A 
HETATM   15  F   UNL     1      43.348 -20.565   1.630  1.00  0.00    -0.206 F 
HETATM   16  C   UNL     1      44.076 -18.393   1.086  1.00  0.00     0.042 A 
HETATM   17  C   UNL     1      44.057 -17.028   1.352  1.00  0.00     0.004 A 
HETATM   18  C   UNL     1      43.296 -16.535   2.417  1.00  0.00     0.008 A 
ENDBRANCH  11  12
BRANCH   1  19
HETATM   19  C   UNL     1      42.034 -16.941   6.813  1.00  0.00     0.267 C 
HETATM   20  O   UNL     1      40.858 -16.872   7.146  1.00  0.00    -0.265 OA
BRANCH  19  21
HETATM   21  O   UNL     1      43.011 -17.594   7.502  1.00  0.00    -0.316 OA
BRANCH  21  22
HETATM   22  C   UNL     1      43.781 -18.567   6.771  1.00  0.00     0.123 C 
HETATM   23  C   UNL     1      43.702 -19.928   7.455  1.00  0.00     0.040 C 
HETATM   24  C   UNL     1      45.220 -18.065   6.755  1.00  0.00     0.040 C 
ENDBRANCH  21  22
ENDBRANCH  19  21
ENDBRANCH   1  19
BRANCH   2  25
HETATM   25  O   UNL     1      43.260 -14.495   7.111  1.00  0.00    -0.389 OA
HETATM   26  H   UNL     1      43.695 -15.308   7.438  1.00  0.00     0.210 HD
ENDBRANCH   2  25
BRANCH   7  27
HETATM   27  O   UNL     1      39.622 -16.605   1.854  1.00  0.00    -0.343 OA
HETATM   28  H   UNL     1      38.810 -16.351   1.390  1.00  0.00     0.219 HD
ENDBRANCH   7  27
TORSDOF 6
ENDMDL
MODEL 3
REMARK VINA RESULT:      -7.2      2.744      4.788
REMARK  6 active torsions:
REMARK  status: ('A' for Active; 'I' for Inactive)
REMARK    1  A    between atoms: C_2  and  O_3 
REMARK    2  A    between atoms: O_3  and  C_4 
REMARK    3  A    between atoms: C_4  and  C_5 
REMARK    4  A    between atoms: C_6  and  O_7 
REMARK    5  A    between atoms: C_12  and  O_13 
REMARK    6  A    between atoms: C_17  and  C_18 
ROOT
HETATM    1  C   UNL     1      40.780 -15.171   0.339  1.00  0.00     0.133 C 
HETATM    2  C   UNL     1      39.463 -14.519   0.889  1.00  0.00     0.073 C 
HETATM    3  C   UNL     1      38.814 -15.428   1.946  1.00  0.00     0.047 C 
HETATM    4  C   UNL     1      39.662 -13.095   1.480  1.00  0.00     0.097 C 
HETATM    5  C   UNL     1      40.891 -13.063   2.302  1.00  0.00     0.042 A 
HETATM    6  C   UNL     1      41.981 -13.902   2.195  1.00  0.00     0.030 A 
HETATM    7  C   UNL     1      42.859 -13.402   3.172  1.00  0.00     0.190 A 
HETATM    8  N   UNL     1      42.375 -12.368   3.849  1.00  0.00    -0.149 NA
HETATM    9  N   UNL     1      41.165 -12.173   3.298  1.00  0.00    -0.279 N 
HETATM   10  H   UNL     1      40.593 -11.411   3.649  1.00  0.00     0.189 HD
HETATM   11  C   UNL     1      42.081 -14.983   1.173  1.00  0.00     0.075 C 
ENDROOT
BRANCH  11  12
HETATM   12  C   UNL     1      42.545 -16.265   1.850  1.00  0.00    -0.045 A 
HETATM   13  C   UNL     1      41.952 -16.804   3.003  1.00  0.00     0.050 A 
HETATM   14  C   UNL     1      42.426 -17.995   3.549  1.00  0.00     0.117 A 
HETATM   15  F   UNL     1      41.849 -18.488   4.651  1.00  0.00    -0.206 F 
HETATM   16  C   UNL     1      43.488 -18.680   2.971  1.00  0.00     0.042 A 
HETATM   17  C   UNL     1      44.084 -18.168   1.824  1.00  0.00     0.004 A 
HETATM   18  C   UNL     1      43.613 -16.976   1.265  1.00  0.00     0.008 A 
ENDBRANCH  11  12
BRANCH   1  19
HETATM   19  C   UNL     1      41.077 -14.635  -1.047  1.00  0.00     0.267 C 
HETATM   20  O   UNL     1      40.463 -14.943  -2.060  1.00  0.00    -0.265 OA
BRANCH  19  21
HETATM   21  O   UNL     1      42.128 -13.770  -0.998  1.00  0.00    -0.316 OA
BRANCH  21  22
HETATM   22  C   UNL     1      41.936 -12.481  -1.613  1.00  0.00     0.123 C 
HETATM   23  C   UNL     1      42.693 -12.408  -2.936  1.00  0.00     0.040 C 
HETATM   24  C   UNL     1      42.476 -11.444  -0.637  1.00  0.00     0.040 C 
ENDBRANCH  21  22
ENDBRANCH  19  21
ENDBRANCH   1  19
BRANCH   2  25
HETATM   25  O   UNL     1      38.478 -14.450  -0.162  1.00  0.00    -0.389 OA
HETATM   26  H   UNL     1      38.150 -13.530  -0.211  1.00  0.00     0.210 HD
ENDBRANCH   2  25
BRANCH   7  27
HETATM   27  O   UNL     1      44.082 -13.814   3.516  1.00  0.00    -0.343 OA
HETATM   28  H   UNL     1      44.621 -13.054   3.779  1.00  0.00     0.219 HD
ENDBRANCH   7  27
TORSDOF 6
ENDMDL
MODEL 4
REMARK VINA RESULT:      -6.8      3.001      5.113
REMARK  6 active torsions:
REMARK  status: ('A' for Active; 'I' for Inactive)
REMARK    1  A    between atoms: C_2  and  O_3 
REMARK    2  A    between atoms: O_3  and  C_4 
REMARK    3  A    between atoms: C_4  and  C_5 
REMARK    4  A    between atoms: C_6  and  O_7 
REMARK    5  A    between atoms: C_12  and  O_13 
REMARK    6  A    between atoms: C_17  and  C_18 
ROOT
HETATM    1  C   UNL     1      42.258 -16.494   3.786  1.00  0.00     0.133 C 
HETATM    2  C   UNL     1      41.073 -16.348   4.804  1.00  0.00     0.073 C 
HETATM    3  C   UNL     1      40.341 -17.690   4.971  1.00  0.00     0.047 C 
HETATM    4  C   UNL     1      41.499 -15.812   6.199  1.00  0.00     0.097 C 
HETATM    5  C   UNL     1      42.750 -16.472   6.627  1.00  0.00     0.042 A 
HETATM    6  C   UNL     1      43.702 -17.050   5.813  1.00  0.00     0.030 A 
HETATM    7  C   UNL     1      44.681 -17.476   6.727  1.00  0.00     0.190 A 
HETATM    8  N   UNL     1      44.379 -17.220   7.994  1.00  0.00    -0.149 NA
HETATM    9  N   UNL     1      43.189 -16.601   7.912  1.00  0.00    -0.279 N 
HETATM   10  H   UNL     1      42.748 -16.289   8.772  1.00  0.00     0.189 HD
HETATM   11  C   UNL     1      43.604 -17.062   4.325  1.00  0.00     0.075 C 
ENDROOT
BRANCH  11  12
HETATM   12  C   UNL     1      43.904 -18.466   3.818  1.00  0.00    -0.045 A 
HETATM   13  C   UNL     1      44.462 -19.483   4.607  1.00  0.00     0.050 A 
HETATM   14  C   UNL     1      44.687 -20.749   4.071  1.00  0.00     0.117 A 
HETATM   15  F   UNL     1      45.225 -21.703   4.840  1.00  0.00    -0.206 F 
HETATM   16  C   UNL     1      44.363 -21.040   2.751  1.00  0.00     0.042 A 
HETATM   17  C   UNL     1      43.801 -20.049   1.954  1.00  0.00     0.004 A 
HETATM   18  C   UNL     1      43.568 -18.776   2.485  1.00  0.00     0.008 A 
ENDBRANCH  11  12
BRANCH   1  19
HETATM   19  C   UNL     1      42.576 -15.145   3.173  1.00  0.00     0.267 C 
HETATM   20  O   UNL     1      42.677 -14.101   3.801  1.00  0.00    -0.265 OA
BRANCH  19  21
HETATM   21  O   UNL     1      42.727 -15.270   1.824  1.00  0.00    -0.316 OA
BRANCH  21  22
HETATM   22  C   UNL     1      41.520 -15.375   1.044  1.00  0.00     0.123 C 
HETATM   23  C   UNL     1      41.560 -16.626   0.171  1.00  0.00     0.040 C 
HETATM   24  C   UNL     1      41.448 -14.126   0.175  1.00  0.00     0.040 C 
ENDBRANCH  21  22
ENDBRANCH  19  21
ENDBRANCH   1  19
BRANCH   2  25
HETATM   25  O   UNL     1      40.067 -15.470   4.257  1.00  0.00    -0.389 OA
HETATM   26  H   UNL     1      39.538 -15.116   5.000  1.00  0.00     0.210 HD
ENDBRANCH   2  25
BRANCH   7  27
HETATM   27  O   UNL     1      45.843 -18.096   6.510  1.00  0.00    -0.343 OA
HETATM   28  H   UNL     1      46.168 -17.883   5.623  1.00  0.00     0.219 HD
ENDBRANCH   7  27
TORSDOF 6
ENDMDL
MODEL 5
REMARK VINA RESULT:      -6.6      2.301      3.065
REMARK  6 active torsions:
REMARK  status: ('A' for Active; 'I' for Inactive)
REMARK    1  A    between atoms: C_2  and  O_3 
REMARK    2  A    between atoms: O_3  and  C_4 
REMARK    3  A    between atoms: C_4  and  C_5 
REMARK    4  A    between atoms: C_6  and  O_7 
REMARK    5  A    between atoms: C_12  and  O_13 
REMARK    6  A    between atoms: C_17  and  C_18 
ROOT
HETATM    1  C   UNL     1      42.377 -16.507   2.606  1.00  0.00     0.133 C 
HETATM    2  C   UNL     1      41.417 -17.110   1.520  1.00  0.00     0.073 C 
HETATM    3  C   UNL     1      39.953 -16.996   1.976  1.00  0.00     0.047 C 
HETATM    4  C   UNL     1      41.574 -16.471   0.113  1.00  0.00     0.097 C 
HETATM    5  C   UNL     1      41.699 -15.004   0.241  1.00  0.00     0.042 A 
HETATM    6  C   UNL     1      42.137 -14.303   1.346  1.00  0.00     0.030 A 
HETATM    7  C   UNL     1      42.099 -12.969   0.908  1.00  0.00     0.190 A 
HETATM    8  N   UNL     1      41.662 -12.826  -0.337  1.00  0.00    -0.149 NA
HETATM    9  N   UNL     1      41.423 -14.088  -0.731  1.00  0.00    -0.279 N 
HETATM   10  H   UNL     1      41.084 -14.242  -1.676  1.00  0.00     0.189 HD
HETATM   11  C   UNL     1      42.587 -14.965   2.605  1.00  0.00     0.075 C 
ENDROOT
BRANCH  11  12
HETATM   12  C   UNL     1      41.931 -14.273   3.792  1.00  0.00    -0.045 A 
HETATM   13  C   UNL     1      42.640 -13.601   4.799  1.00  0.00     0.050 A 
HETATM   14  C   UNL     1      41.960 -12.976   5.843  1.00  0.00     0.117 A 
HETATM   15  F   UNL     1      42.656 -12.344   6.795  1.00  0.00    -0.206 F 
HETATM   16  C   UNL     1      40.573 -12.996   5.913  1.00  0.00     0.042 A 
HETATM   17  C   UNL     1      39.851 -13.650   4.920  1.00  0.00     0.004 A 
HETATM   18  C   UNL     1      40.523 -14.277   3.867  1.00  0.00     0.008 A 
ENDBRANCH  11  12
BRANCH   1  19
HETATM   19  C   UNL     1      43.753 -17.129   2.475  1.00  0.00     0.267 C 
HETATM   20  O   UNL     1      44.400 -17.177   1.438  1.00  0.00    -0.265 OA
BRANCH  19  21
HETATM   21  O   UNL     1      44.157 -17.626   3.677  1.00  0.00    -0.316 OA
BRANCH  21  22
HETATM   22  C   UNL     1      43.548 -18.860   4.105  1.00  0.00     0.123 C 
HETATM   23  C   UNL     1      43.295 -18.833   5.610  1.00  0.00     0.040 C 
HETATM   24  C   UNL     1      44.525 -19.976   3.754  1.00  0.00     0.040 C 
ENDBRANCH  21  22
ENDBRANCH  19  21
ENDBRANCH   1  19
BRANCH   2  25
HETATM   25  O   UNL     1      41.637 -18.531   1.411  1.00  0.00    -0.389 OA
HETATM   26  H   UNL     1      41.223 -18.839   0.580  1.00  0.00     0.210 HD
ENDBRANCH   2  25
BRANCH   7  27
HETATM   27  O   UNL     1      42.424 -11.846   1.553  1.00  0.00    -0.343 OA
HETATM   28  H   UNL     1      42.360 -11.091   0.950  1.00  0.00     0.219 HD
ENDBRANCH   7  27
TORSDOF 6
ENDMDL
MODEL 6
REMARK VINA RESULT:      -6.5      2.738      3.896
REMARK  6 active torsions:
REMARK  status: ('A' for Active; 'I' for Inactive)
REMARK    1  A    between atoms: C_2  and  O_3 
REMARK    2  A    between atoms: O_3  and  C_4 
REMARK    3  A    between atoms: C_4  and  C_5 
REMARK    4  A    between atoms: C_6  and  O_7 
REMARK    5  A    between atoms: C_12  and  O_13 
REMARK    6  A    between atoms: C_17  and  C_18 
ROOT
HETATM    1  C   UNL     1      42.064 -15.206   3.968  1.00  0.00     0.133 C 
HETATM    2  C   UNL     1      40.811 -14.327   4.312  1.00  0.00     0.073 C 
HETATM    3  C   UNL     1      39.891 -15.067   5.297  1.00  0.00     0.047 C 
HETATM    4  C   UNL     1      41.161 -12.925   4.883  1.00  0.00     0.097 C 
HETATM    5  C   UNL     1      42.260 -13.044   5.864  1.00  0.00     0.042 A 
HETATM    6  C   UNL     1      43.204 -14.048   5.933  1.00  0.00     0.030 A 
HETATM    7  C   UNL     1      44.016 -13.643   7.005  1.00  0.00     0.190 A 
HETATM    8  N   UNL     1      43.623 -12.512   7.578  1.00  0.00    -0.149 NA
HETATM    9  N   UNL     1      42.543 -12.158   6.862  1.00  0.00    -0.279 N 
HETATM   10  H   UNL     1      42.062 -11.298   7.108  1.00  0.00     0.189 HD
HETATM   11  C   UNL     1      43.258 -15.183   4.966  1.00  0.00     0.075 C 
ENDROOT
BRANCH  11  12
HETATM   12  C   UNL     1      43.415 -16.485   5.739  1.00  0.00    -0.045 A 
HETATM   13  C   UNL     1      44.220 -17.556   5.319  1.00  0.00     0.050 A 
HETATM   14  C   UNL     1      44.324 -18.707   6.096  1.00  0.00     0.117 A 
HETATM   15  F   UNL     1      45.094 -19.718   5.674  1.00  0.00    -0.206 F 
HETATM   16  C   UNL     1      43.643 -18.827   7.301  1.00  0.00     0.042 A 
HETATM   17  C   UNL     1      42.847 -17.775   7.740  1.00  0.00     0.004 A 
HETATM   18  C   UNL     1      42.739 -16.613   6.969  1.00  0.00     0.008 A 
ENDBRANCH  11  12
BRANCH   1  19
HETATM   19  C   UNL     1      42.624 -14.796   2.620  1.00  0.00     0.267 C 
HETATM   20  O   UNL     1      42.834 -13.641   2.276  1.00  0.00    -0.265 OA
BRANCH  19  21
HETATM   21  O   UNL     1      42.851 -15.899   1.853  1.00  0.00    -0.316 OA
BRANCH  21  22
HETATM   22  C   UNL     1      42.018 -17.047   2.106  1.00  0.00     0.123 C 
HETATM   23  C   UNL     1      42.853 -18.323   2.085  1.00  0.00     0.040 C 
HETATM   24  C   UNL     1      40.971 -17.081   0.999  1.00  0.00     0.040 C 
ENDBRANCH  21  22
ENDBRANCH  19  21
ENDBRANCH   1  19
BRANCH   2  25
HETATM   25  O   UNL     1      39.996 -14.158   3.135  1.00  0.00    -0.389 OA
HETATM   26  H   UNL     1      40.570 -13.835   2.412  1.00  0.00     0.210 HD
ENDBRANCH   2  25
BRANCH   7  27
HETATM   27  O   UNL     1      45.100 -14.224   7.526  1.00  0.00    -0.343 OA
HETATM   28  H   UNL     1      45.113 -15.164   7.290  1.00  0.00     0.219 HD
ENDBRANCH   7  27
TORSDOF 6
ENDMDL
MODEL 7
REMARK VINA RESULT:      -6.4      2.813      4.345
REMARK  6 active torsions:
REMARK  status: ('A' for Active; 'I' for Inactive)
REMARK    1  A    between atoms: C_2  and  O_3 
REMARK    2  A    between atoms: O_3  and  C_4 
REMARK    3  A    between atoms: C_4  and  C_5 
REMARK    4  A    between atoms: C_6  and  O_7 
REMARK    5  A    between atoms: C_12  and  O_13 
REMARK    6  A    between atoms: C_17  and  C_18 
ROOT
HETATM    1  C   UNL     1      41.690 -14.706   3.697  1.00  0.00     0.133 C 
HETATM    2  C   UNL     1      40.571 -13.916   4.461  1.00  0.00     0.073 C 
HETATM    3  C   UNL     1      39.799 -14.856   5.403  1.00  0.00     0.047 C 
HETATM    4  C   UNL     1      41.096 -12.694   5.265  1.00  0.00     0.097 C 
HETATM    5  C   UNL     1      42.343 -13.058   5.970  1.00  0.00     0.042 A 
HETATM    6  C   UNL     1      43.225 -14.063   5.629  1.00  0.00     0.030 A 
HETATM    7  C   UNL     1      44.236 -13.935   6.596  1.00  0.00     0.190 A 
HETATM    8  N   UNL     1      44.017 -12.967   7.477  1.00  0.00    -0.149 NA
HETATM    9  N   UNL     1      42.849 -12.437   7.074  1.00  0.00    -0.279 N 
HETATM   10  H   UNL     1      42.470 -11.654   7.597  1.00  0.00     0.189 HD
HETATM   11  C   UNL     1      43.042 -14.937   4.435  1.00  0.00     0.075 C 
ENDROOT
BRANCH  11  12
HETATM   12  C   UNL     1      43.258 -16.388   4.843  1.00  0.00    -0.045 A 
HETATM   13  C   UNL     1      43.017 -16.885   6.133  1.00  0.00     0.050 A 
HETATM   14  C   UNL     1      43.222 -18.233   6.419  1.00  0.00     0.117 A 
HETATM   15  F   UNL     1      42.989 -18.684   7.658  1.00  0.00    -0.206 F 
HETATM   16  C   UNL     1      43.663 -19.117   5.443  1.00  0.00     0.042 A 
HETATM   17  C   UNL     1      43.900 -18.647   4.156  1.00  0.00     0.004 A 
HETATM   18  C   UNL     1      43.693 -17.297   3.858  1.00  0.00     0.008 A 
ENDBRANCH  11  12
BRANCH   1  19
HETATM   19  C   UNL     1      42.025 -13.996   2.400  1.00  0.00     0.267 C 
HETATM   20  O   UNL     1      42.903 -13.154   2.275  1.00  0.00    -0.265 OA
BRANCH  19  21
HETATM   21  O   UNL     1      41.202 -14.430   1.405  1.00  0.00    -0.316 OA
BRANCH  21  22
HETATM   22  C   UNL     1      41.820 -15.153   0.323  1.00  0.00     0.123 C 
HETATM   23  C   UNL     1      41.126 -14.829  -0.997  1.00  0.00     0.040 C 
HETATM   24  C   UNL     1      41.675 -16.635   0.646  1.00  0.00     0.040 C 
ENDBRANCH  21  22
ENDBRANCH  19  21
ENDBRANCH   1  19
BRANCH   2  25
HETATM   25  O   UNL     1      39.571 -13.462   3.527  1.00  0.00    -0.389 OA
HETATM   26  H   UNL     1      38.772 -13.215   4.035  1.00  0.00     0.210 HD
ENDBRANCH   2  25
BRANCH   7  27
HETATM   27  O   UNL     1      45.360 -14.638   6.758  1.00  0.00    -0.343 OA
HETATM   28  H   UNL     1      45.360 -15.059   7.630  1.00  0.00     0.219 HD
ENDBRANCH   7  27
TORSDOF 6
ENDMDL
MODEL 8
REMARK VINA RESULT:      -6.4      3.666      6.111
REMARK  6 active torsions:
REMARK  status: ('A' for Active; 'I' for Inactive)
REMARK    1  A    between atoms: C_2  and  O_3 
REMARK    2  A    between atoms: O_3  and  C_4 
REMARK    3  A    between atoms: C_4  and  C_5 
REMARK    4  A    between atoms: C_6  and  O_7 
REMARK    5  A    between atoms: C_12  and  O_13 
REMARK    6  A    between atoms: C_17  and  C_18 
ROOT
HETATM    1  C   UNL     1      41.412 -15.256   1.655  1.00  0.00     0.133 C 
HETATM    2  C   UNL     1      41.599 -14.309   2.892  1.00  0.00     0.073 C 
HETATM    3  C   UNL     1      42.542 -13.146   2.540  1.00  0.00     0.047 C 
HETATM    4  C   UNL     1      40.269 -13.743   3.462  1.00  0.00     0.097 C 
HETATM    5  C   UNL     1      39.386 -13.328   2.352  1.00  0.00     0.042 A 
HETATM    6  C   UNL     1      39.413 -13.793   1.053  1.00  0.00     0.030 A 
HETATM    7  C   UNL     1      38.348 -13.104   0.450  1.00  0.00     0.190 A 
HETATM    8  N   UNL     1      37.718 -12.269   1.267  1.00  0.00    -0.149 NA
HETATM    9  N   UNL     1      38.369 -12.422   2.432  1.00  0.00    -0.279 N 
HETATM   10  H   UNL     1      38.056 -11.883   3.234  1.00  0.00     0.189 HD
HETATM   11  C   UNL     1      40.362 -14.844   0.583  1.00  0.00     0.075 C 
ENDROOT
BRANCH  11  12
HETATM   12  C   UNL     1      40.993 -14.393  -0.727  1.00  0.00    -0.045 A 
HETATM   13  C   UNL     1      41.812 -13.261  -0.856  1.00  0.00     0.050 A 
HETATM   14  C   UNL     1      42.367 -12.929  -2.090  1.00  0.00     0.117 A 
HETATM   15  F   UNL     1      43.142 -11.842  -2.191  1.00  0.00    -0.206 F 
HETATM   16  C   UNL     1      42.131 -13.705  -3.218  1.00  0.00     0.042 A 
HETATM   17  C   UNL     1      41.329 -14.836  -3.110  1.00  0.00     0.004 A 
HETATM   18  C   UNL     1      40.771 -15.180  -1.876  1.00  0.00     0.008 A 
ENDBRANCH  11  12
BRANCH   1  19
HETATM   19  C   UNL     1      41.022 -16.643   2.126  1.00  0.00     0.267 C 
HETATM   20  O   UNL     1      39.881 -17.085   2.121  1.00  0.00    -0.265 OA
BRANCH  19  21
HETATM   21  O   UNL     1      42.125 -17.317   2.557  1.00  0.00    -0.316 OA
BRANCH  21  22
HETATM   22  C   UNL     1      42.843 -18.084   1.571  1.00  0.00     0.123 C 
HETATM   23  C   UNL     1      43.065 -19.510   2.066  1.00  0.00     0.040 C 
HETATM   24  C   UNL     1      44.179 -17.384   1.358  1.00  0.00     0.040 C 
ENDBRANCH  21  22
ENDBRANCH  19  21
ENDBRANCH   1  19
BRANCH   2  25
HETATM   25  O   UNL     1      42.292 -15.012   3.944  1.00  0.00    -0.389 OA
HETATM   26  H   UNL     1      42.988 -14.421   4.296  1.00  0.00     0.210 HD
ENDBRANCH   2  25
BRANCH   7  27
HETATM   27  O   UNL     1      37.891 -13.161  -0.804  1.00  0.00    -0.343 OA
HETATM   28  H   UNL     1      37.931 -14.073  -1.126  1.00  0.00     0.219 HD
ENDBRANCH   7  27
TORSDOF 6
ENDMDL
MODEL 9
REMARK VINA RESULT:      -6.4      3.870      6.339
REMARK  6 active torsions:
REMARK  status: ('A' for Active; 'I' for Inactive)
REMARK    1  A    between atoms: C_2  and  O_3 
REMARK    2  A    between atoms: O_3  and  C_4 
REMARK    3  A    between atoms: C_4  and  C_5 
REMARK    4  A    between atoms: C_6  and  O_7 
REMARK    5  A    between atoms: C_12  and  O_13 
REMARK    6  A    between atoms: C_17  and  C_18 
ROOT
HETATM    1  C   UNL     1      41.848 -14.189  -1.364  1.00  0.00     0.133 C 
HETATM    2  C   UNL     1      40.874 -14.514  -2.551  1.00  0.00     0.073 C 
HETATM    3  C   UNL     1      40.751 -16.035  -2.743  1.00  0.00     0.047 C 
HETATM    4  C   UNL     1      39.458 -13.894  -2.395  1.00  0.00     0.097 C 
HETATM    5  C   UNL     1      38.991 -14.059  -1.002  1.00  0.00     0.042 A 
HETATM    6  C   UNL     1      39.776 -14.227   0.120  1.00  0.00     0.030 A 
HETATM    7  C   UNL     1      38.831 -14.287   1.159  1.00  0.00     0.190 A 
HETATM    8  N   UNL     1      37.573 -14.191   0.745  1.00  0.00    -0.149 NA
HETATM    9  N   UNL     1      37.692 -14.050  -0.586  1.00  0.00    -0.279 N 
HETATM   10  H   UNL     1      36.846 -13.944  -1.137  1.00  0.00     0.189 HD
HETATM   11  C   UNL     1      41.266 -14.236   0.079  1.00  0.00     0.075 C 
ENDROOT
BRANCH  11  12
HETATM   12  C   UNL     1      41.779 -15.418   0.889  1.00  0.00    -0.045 A 
HETATM   13  C   UNL     1      42.557 -15.297   2.051  1.00  0.00     0.050 A 
HETATM   14  C   UNL     1      42.969 -16.432   2.746  1.00  0.00     0.117 A 
HETATM   15  F   UNL     1      43.714 -16.292   3.849  1.00  0.00    -0.206 F 
HETATM   16  C   UNL     1      42.620 -17.706   2.316  1.00  0.00     0.042 A 
HETATM   17  C   UNL     1      41.843 -17.849   1.172  1.00  0.00     0.004 A 
HETATM   18  C   UNL     1      41.421 -16.716   0.469  1.00  0.00     0.008 A 
ENDBRANCH  11  12
BRANCH   1  19
HETATM   19  C   UNL     1      42.433 -12.802  -1.546  1.00  0.00     0.267 C 
HETATM   20  O   UNL     1      43.172 -12.473  -2.464  1.00  0.00    -0.265 OA
BRANCH  19  21
HETATM   21  O   UNL     1      42.019 -11.984  -0.538  1.00  0.00    -0.316 OA
BRANCH  21  22
HETATM   22  C   UNL     1      41.598 -10.658  -0.911  1.00  0.00     0.123 C 
HETATM   23  C   UNL     1      42.487  -9.613  -0.244  1.00  0.00     0.040 C 
HETATM   24  C   UNL     1      40.157 -10.506  -0.439  1.00  0.00     0.040 C 
ENDBRANCH  21  22
ENDBRANCH  19  21
ENDBRANCH   1  19
BRANCH   2  25
HETATM   25  O   UNL     1      41.447 -14.053  -3.792  1.00  0.00    -0.389 OA
HETATM   26  H   UNL     1      42.019 -13.284  -3.595  1.00  0.00     0.210 HD
ENDBRANCH   2  25
BRANCH   7  27
HETATM   27  O   UNL     1      39.011 -14.431   2.474  1.00  0.00    -0.343 OA
HETATM   28  H   UNL     1      39.335 -13.600   2.853  1.00  0.00     0.219 HD
ENDBRANCH   7  27
TORSDOF 6
ENDMDL
MODEL 10
REMARK VINA RESULT:      -6.3      3.602      5.792
REMARK  6 active torsions:
REMARK  status: ('A' for Active; 'I' for Inactive)
REMARK    1  A    between atoms: C_2  and  O_3 
REMARK    2  A    between atoms: O_3  and  C_4 
REMARK    3  A    between atoms: C_4  and  C_5 
REMARK    4  A    between atoms: C_6  and  O_7 
REMARK    5  A    between atoms: C_12  and  O_13 
REMARK    6  A    between atoms: C_17  and  C_18 
ROOT
HETATM    1  C   UNL     1      41.904 -16.056   4.800  1.00  0.00     0.133 C 
HETATM    2  C   UNL     1      40.895 -16.500   5.915  1.00  0.00     0.073 C 
HETATM    3  C   UNL     1      40.194 -17.809   5.515  1.00  0.00     0.047 C 
HETATM    4  C   UNL     1      41.537 -16.665   7.321  1.00  0.00     0.097 C 
HETATM    5  C   UNL     1      42.838 -17.355   7.197  1.00  0.00     0.042 A 
HETATM    6  C   UNL     1      43.648 -17.404   6.081  1.00  0.00     0.030 A 
HETATM    7  C   UNL     1      44.757 -18.141   6.529  1.00  0.00     0.190 A 
HETATM    8  N   UNL     1      44.660 -18.543   7.791  1.00  0.00    -0.149 NA
HETATM    9  N   UNL     1      43.474 -18.049   8.185  1.00  0.00    -0.279 N 
HETATM   10  H   UNL     1      43.175 -18.218   9.140  1.00  0.00     0.189 HD
HETATM   11  C   UNL     1      43.316 -16.711   4.803  1.00  0.00     0.075 C 
ENDROOT
BRANCH  11  12
HETATM   12  C   UNL     1      43.528 -17.677   3.646  1.00  0.00    -0.045 A 
HETATM   13  C   UNL     1      43.638 -17.283   2.303  1.00  0.00     0.050 A 
HETATM   14  C   UNL     1      43.852 -18.231   1.305  1.00  0.00     0.117 A 
HETATM   15  F   UNL     1      43.950 -17.833   0.030  1.00  0.00    -0.206 F 
HETATM   16  C   UNL     1      43.963 -19.583   1.607  1.00  0.00     0.042 A 
HETATM   17  C   UNL     1      43.865 -19.994   2.932  1.00  0.00     0.004 A 
HETATM   18  C   UNL     1      43.656 -19.050   3.942  1.00  0.00     0.008 A 
ENDBRANCH  11  12
BRANCH   1  19
HETATM   19  C   UNL     1      42.126 -14.558   4.875  1.00  0.00     0.267 C 
HETATM   20  O   UNL     1      42.941 -14.011   5.606  1.00  0.00    -0.265 OA
BRANCH  19  21
HETATM   21  O   UNL     1      41.283 -13.917   4.018  1.00  0.00    -0.316 OA
BRANCH  21  22
HETATM   22  C   UNL     1      41.017 -14.571   2.762  1.00  0.00     0.123 C 
HETATM   23  C   UNL     1      41.879 -13.966   1.657  1.00  0.00     0.040 C 
HETATM   24  C   UNL     1      39.540 -14.354   2.459  1.00  0.00     0.040 C 
ENDBRANCH  21  22
ENDBRANCH  19  21
ENDBRANCH   1  19
BRANCH   2  25
HETATM   25  O   UNL     1      39.818 -15.544   6.007  1.00  0.00    -0.389 OA
HETATM   26  H   UNL     1      39.699 -15.311   6.950  1.00  0.00     0.210 HD
ENDBRANCH   2  25
BRANCH   7  27
HETATM   27  O   UNL     1      45.869 -18.495   5.880  1.00  0.00    -0.343 OA
HETATM   28  H   UNL     1      45.659 -18.694   4.956  1.00  0.00     0.219 HD
ENDBRANCH   7  27
TORSDOF 6
ENDMDL
