MODEL 1
REMARK VINA RESULT:      -9.2      0.000      0.000
REMARK  9 active torsions:
REMARK  status: ('A' for Active; 'I' for Inactive)
REMARK    1  A    between atoms: C_2  and  C_3 
REMARK    2  A    between atoms: C_4  and  N_5 
REMARK       I    between atoms: N_5  and  C_6 
REMARK    3  A    between atoms: C_6  and  C_7 
REMARK    4  A    between atoms: C_7  and  S_8 
REMARK    5  A    between atoms: S_8  and  C_9 
REMARK    6  A    between atoms: C_13  and  C_14 
REMARK       I    between atoms: C_14  and  N_15 
REMARK    7  A    between atoms: N_15  and  C_16 
REMARK    8  A    between atoms: C_17  and  O_18 
REMARK    9  A    between atoms: C_25  and  C_26 
ROOT
HETATM    1  C   UNL     1      41.344 -12.030   6.212  1.00  0.00     0.087 C 
HETATM    2  N   UNL     1      42.467 -12.703   6.657  1.00  0.00    -0.353 N 
HETATM    3  C   UNL     1      43.028 -13.783   5.999  1.00  0.00     0.019 C 
HETATM    4  C   UNL     1      44.441 -14.135   6.394  1.00  0.00     0.069 C 
HETATM    5  C   UNL     1      42.311 -14.417   5.044  1.00  0.00     0.046 C 
HETATM    6  C   UNL     1      40.883 -13.987   4.706  1.00  0.00     0.104 C 
HETATM    7  C   UNL     1      40.528 -12.615   5.299  1.00  0.00     0.055 C 
HETATM    8  C   UNL     1      39.336 -11.847   4.752  1.00  0.00     0.019 C 
HETATM    9  N   UNL     1      38.348 -11.210   4.299  1.00  0.00    -0.096 N 
HETATM   10  H   UNL     1      43.082 -12.144   7.246  1.00  0.00     0.166 HD
ENDROOT
BRANCH   1  11
HETATM   11  S   UNL     1      41.067 -10.392   6.798  1.00  0.00    -0.102 SA
BRANCH  11  12
HETATM   12  C   UNL     1      40.662 -10.785   8.539  1.00  0.00     0.184 C 
BRANCH  12  13
HETATM   13  C   UNL     1      40.881  -9.584   9.447  1.00  0.00     0.231 C 
HETATM   14  N   UNL     1      42.004  -9.512  10.240  1.00  0.00    -0.326 N 
HETATM   15  H   UNL     1      41.839  -8.851  10.992  1.00  0.00     0.169 HD
HETATM   16  O   UNL     1      40.075  -8.652   9.516  1.00  0.00    -0.272 OA
BRANCH  14  17
HETATM   17  C   UNL     1      42.914 -10.553  10.490  1.00  0.00     0.041 A 
HETATM   18  C   UNL     1      42.967 -11.261  11.704  1.00  0.00    -0.032 A 
HETATM   19  C   UNL     1      43.971 -12.236  11.864  1.00  0.00     0.009 A 
HETATM   20  C   UNL     1      44.866 -12.526  10.833  1.00  0.00     0.001 A 
HETATM   21  C   UNL     1      44.757 -11.866   9.614  1.00  0.00     0.002 A 
HETATM   22  C   UNL     1      43.775 -10.892   9.438  1.00  0.00     0.030 A 
BRANCH  18  23
HETATM   23  C   UNL     1      41.939 -11.122  12.805  1.00  0.00     0.036 C 
HETATM   24  C   UNL     1      42.457 -10.276  13.961  1.00  0.00     0.010 C 
ENDBRANCH  18  23
ENDBRANCH  14  17
ENDBRANCH  12  13
ENDBRANCH  11  12
ENDBRANCH   1  11
BRANCH   6  25
HETATM   25  C   UNL     1      40.574 -14.064   3.212  1.00  0.00    -0.044 A 
HETATM   26  C   UNL     1      39.712 -15.064   2.729  1.00  0.00     0.008 A 
HETATM   27  C   UNL     1      39.419 -15.151   1.368  1.00  0.00     0.001 A 
HETATM   28  C   UNL     1      39.980 -14.245   0.473  1.00  0.00     0.000 A 
HETATM   29  C   UNL     1      40.834 -13.247   0.938  1.00  0.00     0.001 A 
HETATM   30  C   UNL     1      41.128 -13.151   2.298  1.00  0.00     0.008 A 
ENDBRANCH   6  25
BRANCH   5  31
HETATM   31  C   UNL     1      43.002 -15.417   4.193  1.00  0.00     0.255 C 
HETATM   32  N   UNL     1      42.736 -16.714   4.551  1.00  0.00    -0.321 N 
HETATM   33  H   UNL     1      42.153 -16.891   5.362  1.00  0.00     0.169 HD
HETATM   34  O   UNL     1      43.767 -15.022   3.320  1.00  0.00    -0.268 OA
BRANCH  32  35
HETATM   35  C   UNL     1      43.246 -17.888   3.947  1.00  0.00     0.068 A 
HETATM   36  C   UNL     1      44.181 -18.641   4.688  1.00  0.00     0.095 A 
HETATM   37  C   UNL     1      44.721 -19.810   4.140  1.00  0.00     0.039 A 
HETATM   38  C   UNL     1      44.340 -20.230   2.864  1.00  0.00     0.003 A 
HETATM   39  C   UNL     1      43.418 -19.489   2.132  1.00  0.00     0.002 A 
HETATM   40  C   UNL     1      42.871 -18.323   2.673  1.00  0.00     0.032 A 
BRANCH  36  41
HETATM   41  O   UNL     1      44.492 -18.138   5.932  1.00  0.00    -0.354 OA
HETATM   42  C   UNL     1      44.082 -18.913   7.053  1.00  0.00     0.210 C 
ENDBRANCH  36  41
ENDBRANCH  32  35
ENDBRANCH   5  31
TORSDOF 9
ENDMDL
MODEL 2
REMARK VINA RESULT:      -9.1      1.292      1.784
REMARK  9 active torsions:
REMARK  status: ('A' for Active; 'I' for Inactive)
REMARK    1  A    between atoms: C_2  and  C_3 
REMARK    2  A    between atoms: C_4  and  N_5 
REMARK       I    between atoms: N_5  and  C_6 
REMARK    3  A    between atoms: C_6  and  C_7 
REMARK    4  A    between atoms: C_7  and  S_8 
REMARK    5  A    between atoms: S_8  and  C_9 
REMARK    6  A    between atoms: C_13  and  C_14 
REMARK       I    between atoms: C_14  and  N_15 
REMARK    7  A    between atoms: N_15  and  C_16 
REMARK    8  A    between atoms: C_17  and  O_18 
REMARK    9  A    between atoms: C_25  and  C_26 
ROOT
HETATM    1  C   UNL     1      41.171 -11.875   6.158  1.00  0.00     0.087 C 
HETATM    2  N   UNL     1      42.265 -12.580   6.629  1.00  0.00    -0.353 N 
HETATM    3  C   UNL     1      42.833 -13.652   5.965  1.00  0.00     0.019 C 
HETATM    4  C   UNL     1      44.223 -14.039   6.406  1.00  0.00     0.069 C 
HETATM    5  C   UNL     1      42.144 -14.248   4.967  1.00  0.00     0.046 C 
HETATM    6  C   UNL     1      40.738 -13.785   4.584  1.00  0.00     0.104 C 
HETATM    7  C   UNL     1      40.383 -12.423   5.198  1.00  0.00     0.055 C 
HETATM    8  C   UNL     1      39.226 -11.620   4.626  1.00  0.00     0.019 C 
HETATM    9  N   UNL     1      38.268 -10.954   4.151  1.00  0.00    -0.096 N 
HETATM   10  H   UNL     1      42.865 -12.048   7.256  1.00  0.00     0.166 HD
ENDROOT
BRANCH   1  11
HETATM   11  S   UNL     1      40.898 -10.249   6.776  1.00  0.00    -0.102 SA
BRANCH  11  12
HETATM   12  C   UNL     1      41.310 -10.547   8.534  1.00  0.00     0.184 C 
BRANCH  12  13
HETATM   13  C   UNL     1      40.062 -10.829   9.358  1.00  0.00     0.231 C 
HETATM   14  N   UNL     1      40.042 -10.542  10.704  1.00  0.00    -0.326 N 
HETATM   15  H   UNL     1      39.301 -11.074  11.148  1.00  0.00     0.169 HD
HETATM   16  O   UNL     1      39.043 -11.325   8.868  1.00  0.00    -0.272 OA
BRANCH  14  17
HETATM   17  C   UNL     1      41.150 -10.202  11.498  1.00  0.00     0.041 A 
HETATM   18  C   UNL     1      41.590  -8.880  11.690  1.00  0.00    -0.032 A 
HETATM   19  C   UNL     1      42.756  -8.667  12.450  1.00  0.00     0.009 A 
HETATM   20  C   UNL     1      43.438  -9.735  13.036  1.00  0.00     0.001 A 
HETATM   21  C   UNL     1      42.953 -11.030  12.895  1.00  0.00     0.002 A 
HETATM   22  C   UNL     1      41.804 -11.261  12.141  1.00  0.00     0.030 A 
BRANCH  18  23
HETATM   23  C   UNL     1      40.820  -7.662  11.227  1.00  0.00     0.036 C 
HETATM   24  C   UNL     1      39.722  -7.276  12.210  1.00  0.00     0.010 C 
ENDBRANCH  18  23
ENDBRANCH  14  17
ENDBRANCH  12  13
ENDBRANCH  11  12
ENDBRANCH   1  11
BRANCH   6  25
HETATM   25  C   UNL     1      40.487 -13.818   3.077  1.00  0.00    -0.044 A 
HETATM   26  C   UNL     1      39.587 -14.755   2.541  1.00  0.00     0.008 A 
HETATM   27  C   UNL     1      39.347 -14.801   1.168  1.00  0.00     0.001 A 
HETATM   28  C   UNL     1      39.999 -13.916   0.313  1.00  0.00     0.000 A 
HETATM   29  C   UNL     1      40.891 -12.980   0.831  1.00  0.00     0.001 A 
HETATM   30  C   UNL     1      41.133 -12.925   2.204  1.00  0.00     0.008 A 
ENDBRANCH   6  25
BRANCH   5  31
HETATM   31  C   UNL     1      42.852 -15.238   4.117  1.00  0.00     0.255 C 
HETATM   32  N   UNL     1      42.516 -16.538   4.399  1.00  0.00    -0.321 N 
HETATM   33  H   UNL     1      41.876 -16.725   5.163  1.00  0.00     0.169 HD
HETATM   34  O   UNL     1      43.685 -14.837   3.312  1.00  0.00    -0.268 OA
BRANCH  32  35
HETATM   35  C   UNL     1      43.021 -17.704   3.778  1.00  0.00     0.068 A 
HETATM   36  C   UNL     1      43.824 -18.558   4.563  1.00  0.00     0.095 A 
HETATM   37  C   UNL     1      44.352 -19.725   3.999  1.00  0.00     0.039 A 
HETATM   38  C   UNL     1      44.091 -20.044   2.665  1.00  0.00     0.003 A 
HETATM   39  C   UNL     1      43.298 -19.203   1.890  1.00  0.00     0.002 A 
HETATM   40  C   UNL     1      42.763 -18.039   2.445  1.00  0.00     0.032 A 
BRANCH  36  41
HETATM   41  O   UNL     1      44.025 -18.151   5.862  1.00  0.00    -0.354 OA
HETATM   42  C   UNL     1      45.367 -18.172   6.336  1.00  0.00     0.210 C 
ENDBRANCH  36  41
ENDBRANCH  32  35
ENDBRANCH   5  31
TORSDOF 9
ENDMDL
MODEL 3
REMARK VINA RESULT:      -9.0      1.213      2.083
REMARK  9 active torsions:
REMARK  status: ('A' for Active; 'I' for Inactive)
REMARK    1  A    between atoms: C_2  and  C_3 
REMARK    2  A    between atoms: C_4  and  N_5 
REMARK       I    between atoms: N_5  and  C_6 
REMARK    3  A    between atoms: C_6  and  C_7 
REMARK    4  A    between atoms: C_7  and  S_8 
REMARK    5  A    between atoms: S_8  and  C_9 
REMARK    6  A    between atoms: C_13  and  C_14 
REMARK       I    between atoms: C_14  and  N_15 
REMARK    7  A    between atoms: N_15  and  C_16 
REMARK    8  A    between atoms: C_17  and  O_18 
REMARK    9  A    between atoms: C_25  and  C_26 
ROOT
HETATM    1  C   UNL     1      40.431 -12.762   5.535  1.00  0.00     0.087 C 
HETATM    2  N   UNL     1      41.280 -13.570   6.269  1.00  0.00    -0.353 N 
HETATM    3  C   UNL     1      42.023 -14.602   5.725  1.00  0.00     0.019 C 
HETATM    4  C   UNL     1      43.167 -15.108   6.568  1.00  0.00     0.069 C 
HETATM    5  C   UNL     1      41.711 -15.058   4.491  1.00  0.00     0.046 C 
HETATM    6  C   UNL     1      40.533 -14.481   3.705  1.00  0.00     0.104 C 
HETATM    7  C   UNL     1      40.013 -13.168   4.308  1.00  0.00     0.055 C 
HETATM    8  C   UNL     1      39.141 -12.249   3.468  1.00  0.00     0.019 C 
HETATM    9  N   UNL     1      38.419 -11.487   2.771  1.00  0.00    -0.096 N 
HETATM   10  H   UNL     1      41.637 -13.136   7.119  1.00  0.00     0.166 HD
ENDROOT
BRANCH   1  11
HETATM   11  S   UNL     1      39.992 -11.191   6.199  1.00  0.00    -0.102 SA
BRANCH  11  12
HETATM   12  C   UNL     1      41.189 -11.131   7.582  1.00  0.00     0.184 C 
BRANCH  12  13
HETATM   13  C   UNL     1      41.706  -9.718   7.810  1.00  0.00     0.231 C 
HETATM   14  N   UNL     1      42.096  -9.319   9.068  1.00  0.00    -0.326 N 
HETATM   15  H   UNL     1      42.092  -8.306   9.112  1.00  0.00     0.169 HD
HETATM   16  O   UNL     1      41.783  -8.888   6.900  1.00  0.00    -0.272 OA
BRANCH  14  17
HETATM   17  C   UNL     1      41.872 -10.014  10.268  1.00  0.00     0.041 A 
HETATM   18  C   UNL     1      42.891 -10.658  10.993  1.00  0.00    -0.032 A 
HETATM   19  C   UNL     1      42.534 -11.384  12.145  1.00  0.00     0.009 A 
HETATM   20  C   UNL     1      41.211 -11.432  12.586  1.00  0.00     0.001 A 
HETATM   21  C   UNL     1      40.225 -10.734  11.898  1.00  0.00     0.002 A 
HETATM   22  C   UNL     1      40.558 -10.015  10.751  1.00  0.00     0.030 A 
BRANCH  18  23
HETATM   23  C   UNL     1      44.365 -10.522  10.675  1.00  0.00     0.036 C 
HETATM   24  C   UNL     1      45.082 -11.865  10.721  1.00  0.00     0.010 C 
ENDBRANCH  18  23
ENDBRANCH  14  17
ENDBRANCH  12  13
ENDBRANCH  11  12
ENDBRANCH   1  11
BRANCH   6  25
HETATM   25  C   UNL     1      40.818 -14.353   2.210  1.00  0.00    -0.044 A 
HETATM   26  C   UNL     1      41.618 -13.296   1.741  1.00  0.00     0.008 A 
HETATM   27  C   UNL     1      41.889 -13.161   0.379  1.00  0.00     0.001 A 
HETATM   28  C   UNL     1      41.366 -14.076  -0.531  1.00  0.00     0.000 A 
HETATM   29  C   UNL     1      40.574 -15.130  -0.080  1.00  0.00     0.001 A 
HETATM   30  C   UNL     1      40.304 -15.273   1.281  1.00  0.00     0.008 A 
ENDBRANCH   6  25
BRANCH   5  31
HETATM   31  C   UNL     1      42.650 -15.998   3.830  1.00  0.00     0.255 C 
HETATM   32  N   UNL     1      42.321 -17.317   4.016  1.00  0.00    -0.321 N 
HETATM   33  H   UNL     1      41.527 -17.548   4.603  1.00  0.00     0.169 HD
HETATM   34  O   UNL     1      43.630 -15.544   3.251  1.00  0.00    -0.268 OA
BRANCH  32  35
HETATM   35  C   UNL     1      43.018 -18.447   3.527  1.00  0.00     0.068 A 
HETATM   36  C   UNL     1      43.865 -19.124   4.429  1.00  0.00     0.095 A 
HETATM   37  C   UNL     1      44.581 -20.248   3.999  1.00  0.00     0.039 A 
HETATM   38  C   UNL     1      44.462 -20.697   2.683  1.00  0.00     0.003 A 
HETATM   39  C   UNL     1      43.626 -20.031   1.791  1.00  0.00     0.002 A 
HETATM   40  C   UNL     1      42.905 -18.911   2.213  1.00  0.00     0.032 A 
BRANCH  36  41
HETATM   41  O   UNL     1      43.915 -18.599   5.701  1.00  0.00    -0.354 OA
HETATM   42  C   UNL     1      45.203 -18.249   6.196  1.00  0.00     0.210 C 
ENDBRANCH  36  41
ENDBRANCH  32  35
ENDBRANCH   5  31
TORSDOF 9
ENDMDL
MODEL 4
REMARK VINA RESULT:      -8.9      4.318      8.113
REMARK  9 active torsions:
REMARK  status: ('A' for Active; 'I' for Inactive)
REMARK    1  A    between atoms: C_2  and  C_3 
REMARK    2  A    between atoms: C_4  and  N_5 
REMARK       I    between atoms: N_5  and  C_6 
REMARK    3  A    between atoms: C_6  and  C_7 
REMARK    4  A    between atoms: C_7  and  S_8 
REMARK    5  A    between atoms: S_8  and  C_9 
REMARK    6  A    between atoms: C_13  and  C_14 
REMARK       I    between atoms: C_14  and  N_15 
REMARK    7  A    between atoms: N_15  and  C_16 
REMARK    8  A    between atoms: C_17  and  O_18 
REMARK    9  A    between atoms: C_25  and  C_26 
ROOT
HETATM    1  C   UNL     1      40.485 -15.478   4.598  1.00  0.00     0.087 C 
HETATM    2  N   UNL     1      40.654 -16.275   3.480  1.00  0.00    -0.353 N 
HETATM    3  C   UNL     1      40.496 -15.823   2.182  1.00  0.00     0.019 C 
HETATM    4  C   UNL     1      41.092 -16.694   1.103  1.00  0.00     0.069 C 
HETATM    5  C   UNL     1      39.867 -14.647   1.966  1.00  0.00     0.046 C 
HETATM    6  C   UNL     1      39.297 -13.826   3.124  1.00  0.00     0.104 C 
HETATM    7  C   UNL     1      39.810 -14.305   4.490  1.00  0.00     0.055 C 
HETATM    8  C   UNL     1      39.690 -13.393   5.699  1.00  0.00     0.019 C 
HETATM    9  N   UNL     1      39.591 -12.635   6.702  1.00  0.00    -0.096 N 
HETATM   10  H   UNL     1      41.272 -17.071   3.625  1.00  0.00     0.166 HD
ENDROOT
BRANCH   1  11
HETATM   11  S   UNL     1      41.234 -15.990   6.107  1.00  0.00    -0.102 SA
BRANCH  11  12
HETATM   12  C   UNL     1      42.117 -17.470   5.491  1.00  0.00     0.184 C 
BRANCH  12  13
HETATM   13  C   UNL     1      43.583 -17.454   5.898  1.00  0.00     0.231 C 
HETATM   14  N   UNL     1      44.527 -18.067   5.106  1.00  0.00    -0.326 N 
HETATM   15  H   UNL     1      45.358 -18.249   5.659  1.00  0.00     0.169 HD
HETATM   16  O   UNL     1      43.975 -16.912   6.935  1.00  0.00    -0.272 OA
BRANCH  14  17
HETATM   17  C   UNL     1      44.275 -18.929   4.027  1.00  0.00     0.041 A 
HETATM   18  C   UNL     1      44.418 -20.327   4.101  1.00  0.00    -0.032 A 
HETATM   19  C   UNL     1      44.206 -21.083   2.931  1.00  0.00     0.009 A 
HETATM   20  C   UNL     1      43.822 -20.471   1.737  1.00  0.00     0.001 A 
HETATM   21  C   UNL     1      43.617 -19.096   1.697  1.00  0.00     0.002 A 
HETATM   22  C   UNL     1      43.829 -18.330   2.842  1.00  0.00     0.030 A 
BRANCH  18  23
HETATM   23  C   UNL     1      44.673 -21.079   5.389  1.00  0.00     0.036 C 
HETATM   24  C   UNL     1      45.086 -22.523   5.130  1.00  0.00     0.010 C 
ENDBRANCH  18  23
ENDBRANCH  14  17
ENDBRANCH  12  13
ENDBRANCH  11  12
ENDBRANCH   1  11
BRANCH   6  25
HETATM   25  C   UNL     1      39.480 -12.321   2.938  1.00  0.00    -0.044 A 
HETATM   26  C   UNL     1      38.360 -11.508   2.690  1.00  0.00     0.008 A 
HETATM   27  C   UNL     1      38.507 -10.132   2.516  1.00  0.00     0.001 A 
HETATM   28  C   UNL     1      39.769  -9.550   2.585  1.00  0.00     0.000 A 
HETATM   29  C   UNL     1      40.888 -10.343   2.833  1.00  0.00     0.001 A 
HETATM   30  C   UNL     1      40.747 -11.719   3.013  1.00  0.00     0.008 A 
ENDBRANCH   6  25
BRANCH   5  31
HETATM   31  C   UNL     1      39.908 -14.067   0.601  1.00  0.00     0.255 C 
HETATM   32  N   UNL     1      41.165 -13.680   0.210  1.00  0.00    -0.321 N 
HETATM   33  H   UNL     1      41.932 -13.768   0.868  1.00  0.00     0.169 HD
HETATM   34  O   UNL     1      38.856 -13.930  -0.015  1.00  0.00    -0.268 OA
BRANCH  32  35
HETATM   35  C   UNL     1      41.532 -13.087  -1.021  1.00  0.00     0.068 A 
HETATM   36  C   UNL     1      41.515 -13.912  -2.165  1.00  0.00     0.095 A 
HETATM   37  C   UNL     1      41.870 -13.379  -3.410  1.00  0.00     0.039 A 
HETATM   38  C   UNL     1      42.244 -12.038  -3.521  1.00  0.00     0.003 A 
HETATM   39  C   UNL     1      42.260 -11.223  -2.393  1.00  0.00     0.002 A 
HETATM   40  C   UNL     1      41.903 -11.745  -1.148  1.00  0.00     0.032 A 
BRANCH  36  41
HETATM   41  O   UNL     1      41.138 -15.218  -1.947  1.00  0.00    -0.354 OA
HETATM   42  C   UNL     1      40.538 -15.900  -3.043  1.00  0.00     0.210 C 
ENDBRANCH  36  41
ENDBRANCH  32  35
ENDBRANCH   5  31
TORSDOF 9
ENDMDL
MODEL 5
REMARK VINA RESULT:      -8.8      4.241      9.038
REMARK  9 active torsions:
REMARK  status: ('A' for Active; 'I' for Inactive)
REMARK    1  A    between atoms: C_2  and  C_3 
REMARK    2  A    between atoms: C_4  and  N_5 
REMARK       I    between atoms: N_5  and  C_6 
REMARK    3  A    between atoms: C_6  and  C_7 
REMARK    4  A    between atoms: C_7  and  S_8 
REMARK    5  A    between atoms: S_8  and  C_9 
REMARK    6  A    between atoms: C_13  and  C_14 
REMARK       I    between atoms: C_14  and  N_15 
REMARK    7  A    between atoms: N_15  and  C_16 
REMARK    8  A    between atoms: C_17  and  O_18 
REMARK    9  A    between atoms: C_25  and  C_26 
ROOT
HETATM    1  C   UNL     1      39.776 -14.041  -0.874  1.00  0.00     0.087 C 
HETATM    2  N   UNL     1      40.301 -15.251  -0.455  1.00  0.00    -0.353 N 
HETATM    3  C   UNL     1      40.764 -15.486   0.827  1.00  0.00     0.019 C 
HETATM    4  C   UNL     1      40.926 -16.935   1.215  1.00  0.00     0.069 C 
HETATM    5  C   UNL     1      41.003 -14.436   1.643  1.00  0.00     0.046 C 
HETATM    6  C   UNL     1      40.806 -12.996   1.165  1.00  0.00     0.104 C 
HETATM    7  C   UNL     1      40.017 -12.919  -0.150  1.00  0.00     0.055 C 
HETATM    8  C   UNL     1      39.379 -11.604  -0.566  1.00  0.00     0.019 C 
HETATM    9  N   UNL     1      38.850 -10.513  -0.911  1.00  0.00    -0.096 N 
HETATM   10  H   UNL     1      39.972 -16.054  -0.988  1.00  0.00     0.166 HD
ENDROOT
BRANCH   1  11
HETATM   11  S   UNL     1      38.742 -14.030  -2.299  1.00  0.00    -0.102 SA
BRANCH  11  12
HETATM   12  C   UNL     1      39.863 -13.152  -3.449  1.00  0.00     0.184 C 
BRANCH  12  13
HETATM   13  C   UNL     1      41.230 -13.817  -3.510  1.00  0.00     0.231 C 
HETATM   14  N   UNL     1      42.373 -13.050  -3.509  1.00  0.00    -0.326 N 
HETATM   15  H   UNL     1      43.143 -13.599  -3.877  1.00  0.00     0.169 HD
HETATM   16  O   UNL     1      41.367 -15.042  -3.574  1.00  0.00    -0.272 OA
BRANCH  14  17
HETATM   17  C   UNL     1      42.440 -11.657  -3.679  1.00  0.00     0.041 A 
HETATM   18  C   UNL     1      42.652 -10.757  -2.620  1.00  0.00    -0.032 A 
HETATM   19  C   UNL     1      42.629  -9.377  -2.902  1.00  0.00     0.009 A 
HETATM   20  C   UNL     1      42.443  -8.910  -4.204  1.00  0.00     0.001 A 
HETATM   21  C   UNL     1      42.303  -9.814  -5.251  1.00  0.00     0.002 A 
HETATM   22  C   UNL     1      42.316 -11.183  -4.991  1.00  0.00     0.030 A 
BRANCH  18  23
HETATM   23  C   UNL     1      43.021 -11.182  -1.215  1.00  0.00     0.036 C 
HETATM   24  C   UNL     1      42.792 -10.064  -0.205  1.00  0.00     0.010 C 
ENDBRANCH  18  23
ENDBRANCH  14  17
ENDBRANCH  12  13
ENDBRANCH  11  12
ENDBRANCH   1  11
BRANCH   6  25
HETATM   25  C   UNL     1      40.219 -12.084   2.242  1.00  0.00    -0.044 A 
HETATM   26  C   UNL     1      41.043 -11.142   2.881  1.00  0.00     0.008 A 
HETATM   27  C   UNL     1      40.526 -10.301   3.867  1.00  0.00     0.001 A 
HETATM   28  C   UNL     1      39.184 -10.390   4.227  1.00  0.00     0.000 A 
HETATM   29  C   UNL     1      38.355 -11.317   3.599  1.00  0.00     0.001 A 
HETATM   30  C   UNL     1      38.865 -12.157   2.610  1.00  0.00     0.008 A 
ENDBRANCH   6  25
BRANCH   5  31
HETATM   31  C   UNL     1      41.275 -14.707   3.077  1.00  0.00     0.255 C 
HETATM   32  N   UNL     1      42.608 -14.649   3.399  1.00  0.00    -0.321 N 
HETATM   33  H   UNL     1      43.285 -14.481   2.662  1.00  0.00     0.169 HD
HETATM   34  O   UNL     1      40.340 -15.006   3.810  1.00  0.00    -0.268 OA
BRANCH  32  35
HETATM   35  C   UNL     1      43.189 -14.869   4.670  1.00  0.00     0.068 A 
HETATM   36  C   UNL     1      43.414 -16.207   5.054  1.00  0.00     0.095 A 
HETATM   37  C   UNL     1      43.985 -16.484   6.302  1.00  0.00     0.039 A 
HETATM   38  C   UNL     1      44.328 -15.442   7.166  1.00  0.00     0.003 A 
HETATM   39  C   UNL     1      44.107 -14.122   6.788  1.00  0.00     0.002 A 
HETATM   40  C   UNL     1      43.541 -13.836   5.544  1.00  0.00     0.032 A 
BRANCH  36  41
HETATM   41  O   UNL     1      43.037 -17.158   4.133  1.00  0.00    -0.354 OA
HETATM   42  C   UNL     1      42.128 -18.157   4.583  1.00  0.00     0.210 C 
ENDBRANCH  36  41
ENDBRANCH  32  35
ENDBRANCH   5  31
TORSDOF 9
ENDMDL
MODEL 6
REMARK VINA RESULT:      -8.8      4.333      8.454
REMARK  9 active torsions:
REMARK  status: ('A' for Active; 'I' for Inactive)
REMARK    1  A    between atoms: C_2  and  C_3 
REMARK    2  A    between atoms: C_4  and  N_5 
REMARK       I    between atoms: N_5  and  C_6 
REMARK    3  A    between atoms: C_6  and  C_7 
REMARK    4  A    between atoms: C_7  and  S_8 
REMARK    5  A    between atoms: S_8  and  C_9 
REMARK    6  A    between atoms: C_13  and  C_14 
REMARK       I    between atoms: C_14  and  N_15 
REMARK    7  A    between atoms: N_15  and  C_16 
REMARK    8  A    between atoms: C_17  and  O_18 
REMARK    9  A    between atoms: C_25  and  C_26 
ROOT
HETATM    1  C   UNL     1      41.797 -13.276   1.775  1.00  0.00     0.087 C 
HETATM    2  N   UNL     1      41.806 -14.146   0.699  1.00  0.00    -0.353 N 
HETATM    3  C   UNL     1      41.963 -15.515   0.818  1.00  0.00     0.019 C 
HETATM    4  C   UNL     1      41.559 -16.332  -0.384  1.00  0.00     0.069 C 
HETATM    5  C   UNL     1      42.420 -16.027   1.983  1.00  0.00     0.046 C 
HETATM    6  C   UNL     1      42.802 -15.120   3.154  1.00  0.00     0.104 C 
HETATM    7  C   UNL     1      42.295 -13.682   2.971  1.00  0.00     0.055 C 
HETATM    8  C   UNL     1      42.215 -12.756   4.173  1.00  0.00     0.019 C 
HETATM    9  N   UNL     1      42.149 -11.987   5.170  1.00  0.00    -0.096 N 
HETATM   10  H   UNL     1      41.307 -13.802  -0.119  1.00  0.00     0.166 HD
ENDROOT
BRANCH   1  11
HETATM   11  S   UNL     1      41.056 -11.693   1.560  1.00  0.00    -0.102 SA
BRANCH  11  12
HETATM   12  C   UNL     1      39.766 -12.153   0.346  1.00  0.00     0.184 C 
BRANCH  12  13
HETATM   13  C   UNL     1      39.622 -11.097  -0.741  1.00  0.00     0.231 C 
HETATM   14  N   UNL     1      39.397 -11.474  -2.045  1.00  0.00    -0.326 N 
HETATM   15  H   UNL     1      39.651 -10.709  -2.661  1.00  0.00     0.169 HD
HETATM   16  O   UNL     1      39.711  -9.889  -0.505  1.00  0.00    -0.272 OA
BRANCH  14  17
HETATM   17  C   UNL     1      39.496 -12.775  -2.564  1.00  0.00     0.041 A 
HETATM   18  C   UNL     1      40.708 -13.352  -2.984  1.00  0.00    -0.032 A 
HETATM   19  C   UNL     1      40.673 -14.639  -3.555  1.00  0.00     0.009 A 
HETATM   20  C   UNL     1      39.474 -15.346  -3.665  1.00  0.00     0.001 A 
HETATM   21  C   UNL     1      38.294 -14.790  -3.184  1.00  0.00     0.002 A 
HETATM   22  C   UNL     1      38.308 -13.515  -2.621  1.00  0.00     0.030 A 
BRANCH  18  23
HETATM   23  C   UNL     1      42.064 -12.722  -2.752  1.00  0.00     0.036 C 
HETATM   24  C   UNL     1      42.417 -11.718  -3.843  1.00  0.00     0.010 C 
ENDBRANCH  18  23
ENDBRANCH  14  17
ENDBRANCH  12  13
ENDBRANCH  11  12
ENDBRANCH   1  11
BRANCH   6  25
HETATM   25  C   UNL     1      42.407 -15.700   4.511  1.00  0.00    -0.044 A 
HETATM   26  C   UNL     1      43.366 -15.791   5.535  1.00  0.00     0.008 A 
HETATM   27  C   UNL     1      43.025 -16.318   6.781  1.00  0.00     0.001 A 
HETATM   28  C   UNL     1      41.727 -16.761   7.021  1.00  0.00     0.000 A 
HETATM   29  C   UNL     1      40.766 -16.674   6.016  1.00  0.00     0.001 A 
HETATM   30  C   UNL     1      41.099 -16.143   4.770  1.00  0.00     0.008 A 
ENDBRANCH   6  25
BRANCH   5  31
HETATM   31  C   UNL     1      42.364 -17.497   2.175  1.00  0.00     0.255 C 
HETATM   32  N   UNL     1      43.600 -18.076   2.315  1.00  0.00    -0.321 N 
HETATM   33  H   UNL     1      44.427 -17.495   2.233  1.00  0.00     0.169 HD
HETATM   34  O   UNL     1      41.275 -18.058   2.134  1.00  0.00    -0.268 OA
BRANCH  32  35
HETATM   35  C   UNL     1      43.883 -19.450   2.501  1.00  0.00     0.068 A 
HETATM   36  C   UNL     1      44.431 -19.834   3.743  1.00  0.00     0.095 A 
HETATM   37  C   UNL     1      44.732 -21.180   3.982  1.00  0.00     0.039 A 
HETATM   38  C   UNL     1      44.497 -22.140   2.996  1.00  0.00     0.003 A 
HETATM   39  C   UNL     1      43.957 -21.762   1.770  1.00  0.00     0.002 A 
HETATM   40  C   UNL     1      43.649 -20.423   1.525  1.00  0.00     0.032 A 
BRANCH  36  41
HETATM   41  O   UNL     1      44.628 -18.811   4.644  1.00  0.00    -0.354 OA
HETATM   42  C   UNL     1      44.737 -19.181   6.015  1.00  0.00     0.210 C 
ENDBRANCH  36  41
ENDBRANCH  32  35
ENDBRANCH   5  31
TORSDOF 9
ENDMDL
MODEL 7
REMARK VINA RESULT:      -8.7      4.278      7.995
REMARK  9 active torsions:
REMARK  status: ('A' for Active; 'I' for Inactive)
REMARK    1  A    between atoms: C_2  and  C_3 
REMARK    2  A    between atoms: C_4  and  N_5 
REMARK       I    between atoms: N_5  and  C_6 
REMARK    3  A    between atoms: C_6  and  C_7 
REMARK    4  A    between atoms: C_7  and  S_8 
REMARK    5  A    between atoms: S_8  and  C_9 
REMARK    6  A    between atoms: C_13  and  C_14 
REMARK       I    between atoms: C_14  and  N_15 
REMARK    7  A    between atoms: N_15  and  C_16 
REMARK    8  A    between atoms: C_17  and  O_18 
REMARK    9  A    between atoms: C_25  and  C_26 
ROOT
HETATM    1  C   UNL     1      40.636 -15.745   4.812  1.00  0.00     0.087 C 
HETATM    2  N   UNL     1      40.674 -16.632   3.751  1.00  0.00    -0.353 N 
HETATM    3  C   UNL     1      40.392 -16.279   2.443  1.00  0.00     0.019 C 
HETATM    4  C   UNL     1      40.858 -17.248   1.384  1.00  0.00     0.069 C 
HETATM    5  C   UNL     1      39.767 -15.106   2.198  1.00  0.00     0.046 C 
HETATM    6  C   UNL     1      39.334 -14.183   3.337  1.00  0.00     0.104 C 
HETATM    7  C   UNL     1      39.976 -14.566   4.678  1.00  0.00     0.055 C 
HETATM    8  C   UNL     1      39.998 -13.559   5.816  1.00  0.00     0.019 C 
HETATM    9  N   UNL     1      40.016 -12.723   6.759  1.00  0.00    -0.096 N 
HETATM   10  H   UNL     1      41.287 -17.431   3.897  1.00  0.00     0.166 HD
ENDROOT
BRANCH   1  11
HETATM   11  S   UNL     1      41.525 -16.158   6.275  1.00  0.00    -0.102 SA
BRANCH  11  12
HETATM   12  C   UNL     1      42.366 -17.667   5.672  1.00  0.00     0.184 C 
BRANCH  12  13
HETATM   13  C   UNL     1      43.809 -17.729   6.151  1.00  0.00     0.231 C 
HETATM   14  N   UNL     1      44.746 -18.439   5.435  1.00  0.00    -0.326 N 
HETATM   15  H   UNL     1      45.535 -18.650   6.036  1.00  0.00     0.169 HD
HETATM   16  O   UNL     1      44.189 -17.167   7.182  1.00  0.00    -0.272 OA
BRANCH  14  17
HETATM   17  C   UNL     1      44.486 -19.332   4.382  1.00  0.00     0.041 A 
HETATM   18  C   UNL     1      44.044 -18.923   3.110  1.00  0.00    -0.032 A 
HETATM   19  C   UNL     1      43.748 -19.916   2.156  1.00  0.00     0.009 A 
HETATM   20  C   UNL     1      43.926 -21.269   2.445  1.00  0.00     0.001 A 
HETATM   21  C   UNL     1      44.428 -21.655   3.682  1.00  0.00     0.002 A 
HETATM   22  C   UNL     1      44.721 -20.688   4.642  1.00  0.00     0.030 A 
BRANCH  18  23
HETATM   23  C   UNL     1      43.980 -17.478   2.666  1.00  0.00     0.036 C 
HETATM   24  C   UNL     1      44.348 -17.319   1.197  1.00  0.00     0.010 C 
ENDBRANCH  18  23
ENDBRANCH  14  17
ENDBRANCH  12  13
ENDBRANCH  11  12
ENDBRANCH   1  11
BRANCH   6  25
HETATM   25  C   UNL     1      39.526 -12.702   3.012  1.00  0.00    -0.044 A 
HETATM   26  C   UNL     1      38.411 -11.910   2.689  1.00  0.00     0.008 A 
HETATM   27  C   UNL     1      38.566 -10.556   2.387  1.00  0.00     0.001 A 
HETATM   28  C   UNL     1      39.832  -9.977   2.404  1.00  0.00     0.000 A 
HETATM   29  C   UNL     1      40.946 -10.750   2.725  1.00  0.00     0.001 A 
HETATM   30  C   UNL     1      40.797 -12.103   3.032  1.00  0.00     0.008 A 
ENDBRANCH   6  25
BRANCH   5  31
HETATM   31  C   UNL     1      39.679 -14.637   0.792  1.00  0.00     0.255 C 
HETATM   32  N   UNL     1      40.904 -14.435   0.208  1.00  0.00    -0.321 N 
HETATM   33  H   UNL     1      41.741 -14.567   0.764  1.00  0.00     0.169 HD
HETATM   34  O   UNL     1      38.573 -14.419   0.310  1.00  0.00    -0.268 OA
BRANCH  32  35
HETATM   35  C   UNL     1      41.157 -13.982  -1.108  1.00  0.00     0.068 A 
HETATM   36  C   UNL     1      41.959 -12.830  -1.252  1.00  0.00     0.095 A 
HETATM   37  C   UNL     1      42.240 -12.336  -2.531  1.00  0.00     0.039 A 
HETATM   38  C   UNL     1      41.728 -12.975  -3.661  1.00  0.00     0.003 A 
HETATM   39  C   UNL     1      40.938 -14.112  -3.521  1.00  0.00     0.002 A 
HETATM   40  C   UNL     1      40.655 -14.614  -2.249  1.00  0.00     0.032 A 
BRANCH  36  41
HETATM   41  O   UNL     1      42.409 -12.273  -0.076  1.00  0.00    -0.354 OA
HETATM   42  C   UNL     1      42.740 -10.889  -0.112  1.00  0.00     0.210 C 
ENDBRANCH  36  41
ENDBRANCH  32  35
ENDBRANCH   5  31
TORSDOF 9
ENDMDL
MODEL 8
REMARK VINA RESULT:      -8.7      4.312      8.822
REMARK  9 active torsions:
REMARK  status: ('A' for Active; 'I' for Inactive)
REMARK    1  A    between atoms: C_2  and  C_3 
REMARK    2  A    between atoms: C_4  and  N_5 
REMARK       I    between atoms: N_5  and  C_6 
REMARK    3  A    between atoms: C_6  and  C_7 
REMARK    4  A    between atoms: C_7  and  S_8 
REMARK    5  A    between atoms: S_8  and  C_9 
REMARK    6  A    between atoms: C_13  and  C_14 
REMARK       I    between atoms: C_14  and  N_15 
REMARK    7  A    between atoms: N_15  and  C_16 
REMARK    8  A    between atoms: C_17  and  O_18 
REMARK    9  A    between atoms: C_25  and  C_26 
ROOT
HETATM    1  C   UNL     1      40.274 -14.174  -0.213  1.00  0.00     0.087 C 
HETATM    2  N   UNL     1      41.174 -15.223  -0.282  1.00  0.00    -0.353 N 
HETATM    3  C   UNL     1      41.994 -15.603   0.766  1.00  0.00     0.019 C 
HETATM    4  C   UNL     1      42.607 -16.977   0.658  1.00  0.00     0.069 C 
HETATM    5  C   UNL     1      42.163 -14.760   1.809  1.00  0.00     0.046 C 
HETATM    6  C   UNL     1      41.496 -13.384   1.835  1.00  0.00     0.104 C 
HETATM    7  C   UNL     1      40.403 -13.242   0.765  1.00  0.00     0.055 C 
HETATM    8  C   UNL     1      39.372 -12.133   0.889  1.00  0.00     0.019 C 
HETATM    9  N   UNL     1      38.516 -11.213   0.991  1.00  0.00    -0.096 N 
HETATM   10  H   UNL     1      40.932 -15.935  -0.968  1.00  0.00     0.166 HD
ENDROOT
BRANCH   1  11
HETATM   11  S   UNL     1      38.941 -14.143  -1.363  1.00  0.00    -0.102 SA
BRANCH  11  12
HETATM   12  C   UNL     1      39.703 -13.082  -2.644  1.00  0.00     0.184 C 
BRANCH  12  13
HETATM   13  C   UNL     1      40.848 -13.796  -3.349  1.00  0.00     0.231 C 
HETATM   14  N   UNL     1      42.115 -13.259  -3.327  1.00  0.00    -0.326 N 
HETATM   15  H   UNL     1      42.658 -13.657  -4.086  1.00  0.00     0.169 HD
HETATM   16  O   UNL     1      40.689 -14.853  -3.965  1.00  0.00    -0.272 OA
BRANCH  14  17
HETATM   17  C   UNL     1      42.465 -11.969  -2.896  1.00  0.00     0.041 A 
HETATM   18  C   UNL     1      42.412 -10.834  -3.725  1.00  0.00    -0.032 A 
HETATM   19  C   UNL     1      42.856  -9.604  -3.202  1.00  0.00     0.009 A 
HETATM   20  C   UNL     1      43.299  -9.500  -1.882  1.00  0.00     0.001 A 
HETATM   21  C   UNL     1      43.281 -10.616  -1.054  1.00  0.00     0.002 A 
HETATM   22  C   UNL     1      42.852 -11.844  -1.555  1.00  0.00     0.030 A 
BRANCH  18  23
HETATM   23  C   UNL     1      41.797 -10.829  -5.107  1.00  0.00     0.036 C 
HETATM   24  C   UNL     1      40.350 -10.353  -5.083  1.00  0.00     0.010 C 
ENDBRANCH  18  23
ENDBRANCH  14  17
ENDBRANCH  12  13
ENDBRANCH  11  12
ENDBRANCH   1  11
BRANCH   6  25
HETATM   25  C   UNL     1      40.995 -12.989   3.223  1.00  0.00    -0.044 A 
HETATM   26  C   UNL     1      41.628 -11.946   3.922  1.00  0.00     0.008 A 
HETATM   27  C   UNL     1      41.186 -11.572   5.191  1.00  0.00     0.001 A 
HETATM   28  C   UNL     1      40.110 -12.232   5.779  1.00  0.00     0.000 A 
HETATM   29  C   UNL     1      39.471 -13.265   5.097  1.00  0.00     0.001 A 
HETATM   30  C   UNL     1      39.905 -13.641   3.826  1.00  0.00     0.008 A 
ENDBRANCH   6  25
BRANCH   5  31
HETATM   31  C   UNL     1      42.852 -15.270   3.021  1.00  0.00     0.255 C 
HETATM   32  N   UNL     1      42.096 -16.156   3.745  1.00  0.00    -0.321 N 
HETATM   33  H   UNL     1      41.148 -16.354   3.444  1.00  0.00     0.169 HD
HETATM   34  O   UNL     1      43.964 -14.833   3.296  1.00  0.00    -0.268 OA
BRANCH  32  35
HETATM   35  C   UNL     1      42.462 -16.806   4.947  1.00  0.00     0.068 A 
HETATM   36  C   UNL     1      42.867 -18.154   4.855  1.00  0.00     0.095 A 
HETATM   37  C   UNL     1      43.238 -18.847   6.013  1.00  0.00     0.039 A 
HETATM   38  C   UNL     1      43.205 -18.212   7.256  1.00  0.00     0.003 A 
HETATM   39  C   UNL     1      42.806 -16.882   7.348  1.00  0.00     0.002 A 
HETATM   40  C   UNL     1      42.438 -16.181   6.198  1.00  0.00     0.032 A 
BRANCH  36  41
HETATM   41  O   UNL     1      42.860 -18.688   3.586  1.00  0.00    -0.354 OA
HETATM   42  C   UNL     1      44.007 -19.438   3.204  1.00  0.00     0.210 C 
ENDBRANCH  36  41
ENDBRANCH  32  35
ENDBRANCH   5  31
TORSDOF 9
ENDMDL
MODEL 9
REMARK VINA RESULT:      -8.6      4.194      8.423
REMARK  9 active torsions:
REMARK  status: ('A' for Active; 'I' for Inactive)
REMARK    1  A    between atoms: C_2  and  C_3 
REMARK    2  A    between atoms: C_4  and  N_5 
REMARK       I    between atoms: N_5  and  C_6 
REMARK    3  A    between atoms: C_6  and  C_7 
REMARK    4  A    between atoms: C_7  and  S_8 
REMARK    5  A    between atoms: S_8  and  C_9 
REMARK    6  A    between atoms: C_13  and  C_14 
REMARK       I    between atoms: C_14  and  N_15 
REMARK    7  A    between atoms: N_15  and  C_16 
REMARK    8  A    between atoms: C_17  and  O_18 
REMARK    9  A    between atoms: C_25  and  C_26 
ROOT
HETATM    1  C   UNL     1      40.022 -14.031   2.007  1.00  0.00     0.087 C 
HETATM    2  N   UNL     1      40.532 -14.684   0.899  1.00  0.00    -0.353 N 
HETATM    3  C   UNL     1      41.557 -15.612   0.956  1.00  0.00     0.019 C 
HETATM    4  C   UNL     1      41.714 -16.498  -0.255  1.00  0.00     0.069 C 
HETATM    5  C   UNL     1      42.311 -15.691   2.075  1.00  0.00     0.046 C 
HETATM    6  C   UNL     1      42.077 -14.753   3.260  1.00  0.00     0.104 C 
HETATM    7  C   UNL     1      40.739 -14.004   3.159  1.00  0.00     0.055 C 
HETATM    8  C   UNL     1      40.148 -13.354   4.398  1.00  0.00     0.019 C 
HETATM    9  N   UNL     1      39.657 -12.815   5.427  1.00  0.00    -0.096 N 
HETATM   10  H   UNL     1      39.879 -14.758   0.121  1.00  0.00     0.166 HD
ENDROOT
BRANCH   1  11
HETATM   11  S   UNL     1      38.412 -13.328   1.892  1.00  0.00    -0.102 SA
BRANCH  11  12
HETATM   12  C   UNL     1      38.007 -13.841   0.182  1.00  0.00     0.184 C 
BRANCH  12  13
HETATM   13  C   UNL     1      37.576 -12.654  -0.667  1.00  0.00     0.231 C 
HETATM   14  N   UNL     1      38.257 -12.347  -1.823  1.00  0.00    -0.326 N 
HETATM   15  H   UNL     1      38.068 -11.383  -2.075  1.00  0.00     0.169 HD
HETATM   16  O   UNL     1      36.627 -11.928  -0.357  1.00  0.00    -0.272 OA
BRANCH  14  17
HETATM   17  C   UNL     1      39.489 -12.886  -2.231  1.00  0.00     0.041 A 
HETATM   18  C   UNL     1      39.606 -14.069  -2.984  1.00  0.00    -0.032 A 
HETATM   19  C   UNL     1      40.897 -14.551  -3.273  1.00  0.00     0.009 A 
HETATM   20  C   UNL     1      42.035 -13.855  -2.861  1.00  0.00     0.001 A 
HETATM   21  C   UNL     1      41.903 -12.652  -2.177  1.00  0.00     0.002 A 
HETATM   22  C   UNL     1      40.634 -12.162  -1.876  1.00  0.00     0.030 A 
BRANCH  18  23
HETATM   23  C   UNL     1      38.429 -14.792  -3.603  1.00  0.00     0.036 C 
HETATM   24  C   UNL     1      38.854 -16.086  -4.285  1.00  0.00     0.010 C 
ENDBRANCH  18  23
ENDBRANCH  14  17
ENDBRANCH  12  13
ENDBRANCH  11  12
ENDBRANCH   1  11
BRANCH   6  25
HETATM   25  C   UNL     1      42.248 -15.443   4.612  1.00  0.00    -0.044 A 
HETATM   26  C   UNL     1      43.312 -15.074   5.453  1.00  0.00     0.008 A 
HETATM   27  C   UNL     1      43.486 -15.693   6.690  1.00  0.00     0.001 A 
HETATM   28  C   UNL     1      42.603 -16.687   7.104  1.00  0.00     0.000 A 
HETATM   29  C   UNL     1      41.542 -17.061   6.282  1.00  0.00     0.001 A 
HETATM   30  C   UNL     1      41.360 -16.442   5.046  1.00  0.00     0.008 A 
ENDBRANCH   6  25
BRANCH   5  31
HETATM   31  C   UNL     1      43.248 -16.834   2.213  1.00  0.00     0.255 C 
HETATM   32  N   UNL     1      42.615 -18.038   2.393  1.00  0.00    -0.321 N 
HETATM   33  H   UNL     1      41.604 -18.056   2.466  1.00  0.00     0.169 HD
HETATM   34  O   UNL     1      44.454 -16.613   2.215  1.00  0.00    -0.268 OA
BRANCH  32  35
HETATM   35  C   UNL     1      43.223 -19.304   2.566  1.00  0.00     0.068 A 
HETATM   36  C   UNL     1      44.036 -19.479   3.705  1.00  0.00     0.095 A 
HETATM   37  C   UNL     1      44.664 -20.711   3.926  1.00  0.00     0.039 A 
HETATM   38  C   UNL     1      44.491 -21.761   3.022  1.00  0.00     0.003 A 
HETATM   39  C   UNL     1      43.689 -21.590   1.899  1.00  0.00     0.002 A 
HETATM   40  C   UNL     1      43.055 -20.366   1.673  1.00  0.00     0.032 A 
BRANCH  36  41
HETATM   41  O   UNL     1      44.145 -18.382   4.529  1.00  0.00    -0.354 OA
HETATM   42  C   UNL     1      45.049 -18.493   5.623  1.00  0.00     0.210 C 
ENDBRANCH  36  41
ENDBRANCH  32  35
ENDBRANCH   5  31
TORSDOF 9
ENDMDL
MODEL 10
REMARK VINA RESULT:      -8.5      4.441      8.727
REMARK  9 active torsions:
REMARK  status: ('A' for Active; 'I' for Inactive)
REMARK    1  A    between atoms: C_2  and  C_3 
REMARK    2  A    between atoms: C_4  and  N_5 
REMARK       I    between atoms: N_5  and  C_6 
REMARK    3  A    between atoms: C_6  and  C_7 
REMARK    4  A    between atoms: C_7  and  S_8 
REMARK    5  A    between atoms: S_8  and  C_9 
REMARK    6  A    between atoms: C_13  and  C_14 
REMARK       I    between atoms: C_14  and  N_15 
REMARK    7  A    between atoms: N_15  and  C_16 
REMARK    8  A    between atoms: C_17  and  O_18 
REMARK    9  A    between atoms: C_25  and  C_26 
ROOT
HETATM    1  C   UNL     1      40.938 -15.858   4.252  1.00  0.00     0.087 C 
HETATM    2  N   UNL     1      41.032 -16.633   3.110  1.00  0.00    -0.353 N 
HETATM    3  C   UNL     1      40.742 -16.170   1.839  1.00  0.00     0.019 C 
HETATM    4  C   UNL     1      41.269 -17.004   0.697  1.00  0.00     0.069 C 
HETATM    5  C   UNL     1      40.056 -15.014   1.700  1.00  0.00     0.046 C 
HETATM    6  C   UNL     1      39.565 -14.230   2.918  1.00  0.00     0.104 C 
HETATM    7  C   UNL     1      40.216 -14.708   4.224  1.00  0.00     0.055 C 
HETATM    8  C   UNL     1      40.173 -13.817   5.454  1.00  0.00     0.019 C 
HETATM    9  N   UNL     1      40.139 -13.077   6.474  1.00  0.00    -0.096 N 
HETATM   10  H   UNL     1      41.688 -17.409   3.186  1.00  0.00     0.166 HD
ENDROOT
BRANCH   1  11
HETATM   11  S   UNL     1      41.836 -16.363   5.679  1.00  0.00    -0.102 SA
BRANCH  11  12
HETATM   12  C   UNL     1      42.595 -17.886   5.005  1.00  0.00     0.184 C 
BRANCH  12  13
HETATM   13  C   UNL     1      44.027 -18.056   5.489  1.00  0.00     0.231 C 
HETATM   14  N   UNL     1      44.875 -18.931   4.849  1.00  0.00    -0.326 N 
HETATM   15  H   UNL     1      45.643 -19.166   5.469  1.00  0.00     0.169 HD
HETATM   16  O   UNL     1      44.475 -17.439   6.460  1.00  0.00    -0.272 OA
BRANCH  14  17
HETATM   17  C   UNL     1      44.510 -19.890   3.889  1.00  0.00     0.041 A 
HETATM   18  C   UNL     1      44.621 -21.277   4.099  1.00  0.00    -0.032 A 
HETATM   19  C   UNL     1      44.291 -22.141   3.036  1.00  0.00     0.009 A 
HETATM   20  C   UNL     1      43.826 -21.641   1.819  1.00  0.00     0.001 A 
HETATM   21  C   UNL     1      43.657 -20.272   1.650  1.00  0.00     0.002 A 
HETATM   22  C   UNL     1      43.984 -19.400   2.688  1.00  0.00     0.030 A 
BRANCH  18  23
HETATM   23  C   UNL     1      44.961 -21.902   5.435  1.00  0.00     0.036 C 
HETATM   24  C   UNL     1      43.918 -21.574   6.496  1.00  0.00     0.010 C 
ENDBRANCH  18  23
ENDBRANCH  14  17
ENDBRANCH  12  13
ENDBRANCH  11  12
ENDBRANCH   1  11
BRANCH   6  25
HETATM   25  C   UNL     1      39.678 -12.717   2.741  1.00  0.00    -0.044 A 
HETATM   26  C   UNL     1      38.546 -11.906   2.932  1.00  0.00     0.008 A 
HETATM   27  C   UNL     1      38.629 -10.523   2.773  1.00  0.00     0.001 A 
HETATM   28  C   UNL     1      39.840  -9.931   2.422  1.00  0.00     0.000 A 
HETATM   29  C   UNL     1      40.971 -10.722   2.233  1.00  0.00     0.001 A 
HETATM   30  C   UNL     1      40.895 -12.106   2.395  1.00  0.00     0.008 A 
ENDBRANCH   6  25
BRANCH   5  31
HETATM   31  C   UNL     1      39.954 -14.415   0.346  1.00  0.00     0.255 C 
HETATM   32  N   UNL     1      38.669 -14.366  -0.132  1.00  0.00    -0.321 N 
HETATM   33  H   UNL     1      37.922 -14.767   0.424  1.00  0.00     0.169 HD
HETATM   34  O   UNL     1      40.983 -14.083  -0.232  1.00  0.00    -0.268 OA
BRANCH  32  35
HETATM   35  C   UNL     1      38.244 -13.866  -1.386  1.00  0.00     0.068 A 
HETATM   36  C   UNL     1      37.552 -12.637  -1.390  1.00  0.00     0.095 A 
HETATM   37  C   UNL     1      37.107 -12.096  -2.602  1.00  0.00     0.039 A 
HETATM   38  C   UNL     1      37.341 -12.770  -3.802  1.00  0.00     0.003 A 
HETATM   39  C   UNL     1      38.024 -13.982  -3.800  1.00  0.00     0.002 A 
HETATM   40  C   UNL     1      38.476 -14.527  -2.596  1.00  0.00     0.032 A 
BRANCH  36  41
HETATM   41  O   UNL     1      37.369 -12.057  -0.155  1.00  0.00    -0.354 OA
HETATM   42  C   UNL     1      36.284 -11.143  -0.034  1.00  0.00     0.210 C 
ENDBRANCH  36  41
ENDBRANCH  32  35
ENDBRANCH   5  31
TORSDOF 9
ENDMDL
