MODEL 1
REMARK VINA RESULT:      -8.4      0.000      0.000
REMARK  3 active torsions:
REMARK  status: ('A' for Active; 'I' for Inactive)
REMARK    1  A    between atoms: C_4  and  N_5 
REMARK       I    between atoms: N_5  and  C_6 
REMARK    2  A    between atoms: C_6  and  C_7 
REMARK    3  A    between atoms: C_7  and  C_8 
ROOT
HETATM    1  C   UNL     1      42.082 -14.674   3.214  1.00  0.00     0.286 C 
HETATM    2  N   UNL     1      40.669 -14.187   2.914  1.00  0.00    -0.056 N 
HETATM    3  H   UNL     1      40.738 -13.713   1.987  1.00  0.00     0.278 HD
HETATM    4  H   UNL     1      40.025 -14.975   2.776  1.00  0.00     0.278 HD
HETATM    5  C   UNL     1      40.117 -13.191   3.896  1.00  0.00     0.209 C 
HETATM    6  C   UNL     1      41.121 -12.025   4.074  1.00  0.00     0.115 C 
HETATM    7  N   UNL     1      42.491 -12.480   4.308  1.00  0.00    -0.353 N 
HETATM    8  C   UNL     1      43.044 -13.546   3.642  1.00  0.00     0.249 C 
HETATM    9  O   UNL     1      44.260 -13.623   3.517  1.00  0.00    -0.271 OA
HETATM   10  C   UNL     1      39.757 -13.894   5.206  1.00  0.00     0.035 C 
HETATM   11  C   UNL     1      39.289 -12.892   6.257  1.00  0.00     0.002 C 
HETATM   12  C   UNL     1      40.330 -11.799   6.484  1.00  0.00     0.002 C 
HETATM   13  C   UNL     1      40.670 -11.070   5.185  1.00  0.00     0.027 C 
HETATM   14  H   UNL     1      43.189 -11.771   4.529  1.00  0.00     0.163 HD
ENDROOT
BRANCH   1  15
HETATM   15  C   UNL     1      42.670 -15.501   2.059  1.00  0.00     0.146 C 
BRANCH  15  16
HETATM   16  C   UNL     1      41.704 -16.546   1.564  1.00  0.00     0.224 C 
HETATM   17  N   UNL     1      41.816 -17.860   1.887  1.00  0.00    -0.327 N 
HETATM   18  H   UNL     1      41.023 -18.393   1.538  1.00  0.00     0.169 HD
HETATM   19  O   UNL     1      40.702 -16.174   0.937  1.00  0.00    -0.273 OA
BRANCH  17  20
HETATM   20  C   UNL     1      42.761 -18.630   2.599  1.00  0.00     0.035 A 
HETATM   21  C   UNL     1      43.329 -18.302   3.828  1.00  0.00     0.036 A 
HETATM   22  C   UNL     1      44.289 -19.135   4.431  1.00  0.00    -0.059 A 
HETATM   23  C   UNL     1      44.952 -18.718   5.714  1.00  0.00     0.048 C 
HETATM   24  C   UNL     1      44.680 -20.314   3.791  1.00  0.00     0.013 A 
HETATM   25  C   UNL     1      44.110 -20.677   2.570  1.00  0.00    -0.059 A 
HETATM   26  C   UNL     1      43.171 -19.821   1.976  1.00  0.00     0.036 A 
HETATM   27  C   UNL     1      44.547 -21.930   1.869  1.00  0.00     0.048 C 
ENDBRANCH  17  20
ENDBRANCH  15  16
ENDBRANCH   1  15
TORSDOF 3
ENDMDL
MODEL 2
REMARK VINA RESULT:      -8.4      1.726      2.196
REMARK  3 active torsions:
REMARK  status: ('A' for Active; 'I' for Inactive)
REMARK    1  A    between atoms: C_4  and  N_5 
REMARK       I    between atoms: N_5  and  C_6 
REMARK    2  A    between atoms: C_6  and  C_7 
REMARK    3  A    between atoms: C_7  and  C_8 
ROOT
HETATM    1  C   UNL     1      40.836 -15.749   2.993  1.00  0.00     0.286 C 
HETATM    2  N   UNL     1      41.021 -16.142   4.454  1.00  0.00    -0.056 N 
HETATM    3  H   UNL     1      40.204 -16.752   4.675  1.00  0.00     0.278 HD
HETATM    4  H   UNL     1      41.852 -16.733   4.578  1.00  0.00     0.278 HD
HETATM    5  C   UNL     1      41.011 -14.996   5.428  1.00  0.00     0.209 C 
HETATM    6  C   UNL     1      39.746 -14.132   5.201  1.00  0.00     0.115 C 
HETATM    7  N   UNL     1      39.527 -13.795   3.796  1.00  0.00    -0.353 N 
HETATM    8  C   UNL     1      39.736 -14.690   2.775  1.00  0.00     0.249 C 
HETATM    9  O   UNL     1      39.143 -14.551   1.711  1.00  0.00    -0.271 OA
HETATM   10  C   UNL     1      42.318 -14.207   5.318  1.00  0.00     0.035 C 
HETATM   11  C   UNL     1      42.295 -12.978   6.222  1.00  0.00     0.002 C 
HETATM   12  C   UNL     1      41.089 -12.092   5.924  1.00  0.00     0.002 C 
HETATM   13  C   UNL     1      39.778 -12.866   6.064  1.00  0.00     0.027 C 
HETATM   14  H   UNL     1      38.767 -13.149   3.581  1.00  0.00     0.163 HD
ENDROOT
BRANCH   1  15
HETATM   15  C   UNL     1      40.622 -16.971   2.085  1.00  0.00     0.146 C 
BRANCH  15  16
HETATM   16  C   UNL     1      41.666 -17.061   1.003  1.00  0.00     0.224 C 
HETATM   17  N   UNL     1      42.798 -17.800   1.136  1.00  0.00    -0.327 N 
HETATM   18  H   UNL     1      43.332 -17.811   0.270  1.00  0.00     0.169 HD
HETATM   19  O   UNL     1      41.427 -16.537  -0.094  1.00  0.00    -0.273 OA
BRANCH  17  20
HETATM   20  C   UNL     1      43.376 -18.552   2.181  1.00  0.00     0.035 A 
HETATM   21  C   UNL     1      43.748 -18.066   3.433  1.00  0.00     0.036 A 
HETATM   22  C   UNL     1      44.347 -18.906   4.389  1.00  0.00    -0.059 A 
HETATM   23  C   UNL     1      44.820 -18.342   5.700  1.00  0.00     0.048 C 
HETATM   24  C   UNL     1      44.572 -20.251   4.084  1.00  0.00     0.013 A 
HETATM   25  C   UNL     1      44.188 -20.767   2.845  1.00  0.00    -0.059 A 
HETATM   26  C   UNL     1      43.613 -19.908   1.898  1.00  0.00     0.036 A 
HETATM   27  C   UNL     1      44.452 -22.205   2.506  1.00  0.00     0.048 C 
ENDBRANCH  17  20
ENDBRANCH  15  16
ENDBRANCH   1  15
TORSDOF 3
ENDMDL
MODEL 3
REMARK VINA RESULT:      -8.3      1.564      1.945
REMARK  3 active torsions:
REMARK  status: ('A' for Active; 'I' for Inactive)
REMARK    1  A    between atoms: C_4  and  N_5 
REMARK       I    between atoms: N_5  and  C_6 
REMARK    2  A    between atoms: C_6  and  C_7 
REMARK    3  A    between atoms: C_7  and  C_8 
ROOT
HETATM    1  C   UNL     1      40.663 -15.725   3.177  1.00  0.00     0.286 C 
HETATM    2  N   UNL     1      41.438 -14.540   2.614  1.00  0.00    -0.056 N 
HETATM    3  H   UNL     1      42.371 -14.927   2.352  1.00  0.00     0.278 HD
HETATM    4  H   UNL     1      41.020 -14.204   1.738  1.00  0.00     0.278 HD
HETATM    5  C   UNL     1      41.669 -13.412   3.581  1.00  0.00     0.209 C 
HETATM    6  C   UNL     1      42.295 -13.965   4.885  1.00  0.00     0.115 C 
HETATM    7  N   UNL     1      41.592 -15.136   5.406  1.00  0.00    -0.353 N 
HETATM    8  C   UNL     1      41.110 -16.135   4.596  1.00  0.00     0.249 C 
HETATM    9  O   UNL     1      40.945 -17.262   5.048  1.00  0.00    -0.271 OA
HETATM   10  C   UNL     1      40.365 -12.644   3.807  1.00  0.00     0.035 C 
HETATM   11  C   UNL     1      40.543 -11.556   4.862  1.00  0.00     0.002 C 
HETATM   12  C   UNL     1      41.077 -12.133   6.169  1.00  0.00     0.002 C 
HETATM   13  C   UNL     1      42.397 -12.874   5.957  1.00  0.00     0.027 C 
HETATM   14  H   UNL     1      41.890 -15.497   6.312  1.00  0.00     0.163 HD
ENDROOT
BRANCH   1  15
HETATM   15  C   UNL     1      40.666 -16.929   2.221  1.00  0.00     0.146 C 
BRANCH  15  16
HETATM   16  C   UNL     1      41.759 -16.828   1.190  1.00  0.00     0.224 C 
HETATM   17  N   UNL     1      42.913 -17.540   1.271  1.00  0.00    -0.327 N 
HETATM   18  H   UNL     1      43.483 -17.409   0.439  1.00  0.00     0.169 HD
HETATM   19  O   UNL     1      41.546 -16.160   0.167  1.00  0.00    -0.273 OA
BRANCH  17  20
HETATM   20  C   UNL     1      43.474 -18.414   2.225  1.00  0.00     0.035 A 
HETATM   21  C   UNL     1      43.876 -18.072   3.516  1.00  0.00     0.036 A 
HETATM   22  C   UNL     1      44.455 -19.026   4.373  1.00  0.00    -0.059 A 
HETATM   23  C   UNL     1      44.959 -18.615   5.728  1.00  0.00     0.048 C 
HETATM   24  C   UNL     1      44.631 -20.338   3.928  1.00  0.00     0.013 A 
HETATM   25  C   UNL     1      44.218 -20.711   2.648  1.00  0.00    -0.059 A 
HETATM   26  C   UNL     1      43.663 -19.741   1.802  1.00  0.00     0.036 A 
HETATM   27  C   UNL     1      44.429 -22.115   2.160  1.00  0.00     0.048 C 
ENDBRANCH  17  20
ENDBRANCH  15  16
ENDBRANCH   1  15
TORSDOF 3
ENDMDL
MODEL 4
REMARK VINA RESULT:      -8.2      2.579      3.468
REMARK  3 active torsions:
REMARK  status: ('A' for Active; 'I' for Inactive)
REMARK    1  A    between atoms: C_4  and  N_5 
REMARK       I    between atoms: N_5  and  C_6 
REMARK    2  A    between atoms: C_6  and  C_7 
REMARK    3  A    between atoms: C_7  and  C_8 
ROOT
HETATM    1  C   UNL     1      43.486 -15.747   6.471  1.00  0.00     0.286 C 
HETATM    2  N   UNL     1      42.794 -15.672   5.115  1.00  0.00    -0.056 N 
HETATM    3  H   UNL     1      43.564 -15.520   4.427  1.00  0.00     0.278 HD
HETATM    4  H   UNL     1      42.369 -16.572   4.864  1.00  0.00     0.278 HD
HETATM    5  C   UNL     1      41.816 -14.540   4.961  1.00  0.00     0.209 C 
HETATM    6  C   UNL     1      42.499 -13.206   5.355  1.00  0.00     0.115 C 
HETATM    7  N   UNL     1      43.213 -13.282   6.628  1.00  0.00    -0.353 N 
HETATM    8  C   UNL     1      43.955 -14.376   7.000  1.00  0.00     0.249 C 
HETATM    9  O   UNL     1      44.866 -14.249   7.810  1.00  0.00    -0.271 OA
HETATM   10  C   UNL     1      40.546 -14.835   5.761  1.00  0.00     0.035 C 
HETATM   11  C   UNL     1      39.576 -13.659   5.707  1.00  0.00     0.002 C 
HETATM   12  C   UNL     1      40.239 -12.370   6.182  1.00  0.00     0.002 C 
HETATM   13  C   UNL     1      41.492 -12.051   5.366  1.00  0.00     0.027 C 
HETATM   14  H   UNL     1      43.605 -12.417   6.998  1.00  0.00     0.163 HD
ENDROOT
BRANCH   1  15
HETATM   15  C   UNL     1      44.633 -16.772   6.483  1.00  0.00     0.146 C 
BRANCH  15  16
HETATM   16  C   UNL     1      44.157 -18.148   6.868  1.00  0.00     0.224 C 
HETATM   17  N   UNL     1      43.962 -19.138   5.959  1.00  0.00    -0.327 N 
HETATM   18  H   UNL     1      43.732 -20.016   6.417  1.00  0.00     0.169 HD
HETATM   19  O   UNL     1      44.053 -18.421   8.072  1.00  0.00    -0.273 OA
BRANCH  17  20
HETATM   20  C   UNL     1      44.025 -19.220   4.551  1.00  0.00     0.035 A 
HETATM   21  C   UNL     1      43.880 -18.158   3.660  1.00  0.00     0.036 A 
HETATM   22  C   UNL     1      43.930 -18.365   2.269  1.00  0.00    -0.059 A 
HETATM   23  C   UNL     1      43.685 -17.221   1.327  1.00  0.00     0.048 C 
HETATM   24  C   UNL     1      44.131 -19.654   1.769  1.00  0.00     0.013 A 
HETATM   25  C   UNL     1      44.301 -20.731   2.640  1.00  0.00    -0.059 A 
HETATM   26  C   UNL     1      44.226 -20.506   4.023  1.00  0.00     0.036 A 
HETATM   27  C   UNL     1      44.492 -22.120   2.105  1.00  0.00     0.048 C 
ENDBRANCH  17  20
ENDBRANCH  15  16
ENDBRANCH   1  15
TORSDOF 3
ENDMDL
MODEL 5
REMARK VINA RESULT:      -8.2      3.139      5.043
REMARK  3 active torsions:
REMARK  status: ('A' for Active; 'I' for Inactive)
REMARK    1  A    between atoms: C_4  and  N_5 
REMARK       I    between atoms: N_5  and  C_6 
REMARK    2  A    between atoms: C_6  and  C_7 
REMARK    3  A    between atoms: C_7  and  C_8 
ROOT
HETATM    1  C   UNL     1      40.717 -16.128   0.785  1.00  0.00     0.286 C 
HETATM    2  N   UNL     1      41.799 -15.604  -0.151  1.00  0.00    -0.056 N 
HETATM    3  H   UNL     1      42.352 -14.931   0.423  1.00  0.00     0.278 HD
HETATM    4  H   UNL     1      42.455 -16.349  -0.415  1.00  0.00     0.278 HD
HETATM    5  C   UNL     1      41.293 -14.864  -1.359  1.00  0.00     0.209 C 
HETATM    6  C   UNL     1      40.306 -13.756  -0.913  1.00  0.00     0.115 C 
HETATM    7  N   UNL     1      39.296 -14.235   0.029  1.00  0.00    -0.353 N 
HETATM    8  C   UNL     1      39.583 -15.114   1.043  1.00  0.00     0.249 C 
HETATM    9  O   UNL     1      38.875 -15.145   2.044  1.00  0.00    -0.271 OA
HETATM   10  C   UNL     1      40.692 -15.851  -2.362  1.00  0.00     0.035 C 
HETATM   11  C   UNL     1      40.078 -15.120  -3.552  1.00  0.00     0.002 C 
HETATM   12  C   UNL     1      39.043 -14.095  -3.100  1.00  0.00     0.002 C 
HETATM   13  C   UNL     1      39.645 -13.085  -2.123  1.00  0.00     0.027 C 
HETATM   14  H   UNL     1      38.555 -13.585   0.291  1.00  0.00     0.163 HD
ENDROOT
BRANCH   1  15
HETATM   15  C   UNL     1      41.299 -16.663   2.104  1.00  0.00     0.146 C 
BRANCH  15  16
HETATM   16  C   UNL     1      42.630 -16.037   2.428  1.00  0.00     0.224 C 
HETATM   17  N   UNL     1      43.707 -16.766   2.820  1.00  0.00    -0.327 N 
HETATM   18  H   UNL     1      44.535 -16.181   2.902  1.00  0.00     0.169 HD
HETATM   19  O   UNL     1      42.781 -14.826   2.214  1.00  0.00    -0.273 OA
BRANCH  17  20
HETATM   20  C   UNL     1      43.930 -18.127   3.116  1.00  0.00     0.035 A 
HETATM   21  C   UNL     1      44.063 -19.158   2.187  1.00  0.00     0.036 A 
HETATM   22  C   UNL     1      44.252 -20.489   2.601  1.00  0.00    -0.059 A 
HETATM   23  C   UNL     1      44.307 -21.595   1.585  1.00  0.00     0.048 C 
HETATM   24  C   UNL     1      44.310 -20.787   3.965  1.00  0.00     0.013 A 
HETATM   25  C   UNL     1      44.200 -19.771   4.915  1.00  0.00    -0.059 A 
HETATM   26  C   UNL     1      43.991 -18.454   4.482  1.00  0.00     0.036 A 
HETATM   27  C   UNL     1      44.237 -20.093   6.381  1.00  0.00     0.048 C 
ENDBRANCH  17  20
ENDBRANCH  15  16
ENDBRANCH   1  15
TORSDOF 3
ENDMDL
MODEL 6
REMARK VINA RESULT:      -8.1      3.380      4.988
REMARK  3 active torsions:
REMARK  status: ('A' for Active; 'I' for Inactive)
REMARK    1  A    between atoms: C_4  and  N_5 
REMARK       I    between atoms: N_5  and  C_6 
REMARK    2  A    between atoms: C_6  and  C_7 
REMARK    3  A    between atoms: C_7  and  C_8 
ROOT
HETATM    1  C   UNL     1      41.475 -14.742   0.252  1.00  0.00     0.286 C 
HETATM    2  N   UNL     1      41.581 -15.460  -1.089  1.00  0.00    -0.056 N 
HETATM    3  H   UNL     1      42.594 -15.687  -1.195  1.00  0.00     0.278 HD
HETATM    4  H   UNL     1      41.094 -16.363  -1.067  1.00  0.00     0.278 HD
HETATM    5  C   UNL     1      41.170 -14.642  -2.283  1.00  0.00     0.209 C 
HETATM    6  C   UNL     1      41.925 -13.290  -2.271  1.00  0.00     0.115 C 
HETATM    7  N   UNL     1      41.877 -12.618  -0.974  1.00  0.00    -0.353 N 
HETATM    8  C   UNL     1      41.998 -13.292   0.217  1.00  0.00     0.249 C 
HETATM    9  O   UNL     1      42.396 -12.701   1.214  1.00  0.00    -0.271 OA
HETATM   10  C   UNL     1      39.648 -14.492  -2.313  1.00  0.00     0.035 C 
HETATM   11  C   UNL     1      39.208 -13.583  -3.457  1.00  0.00     0.002 C 
HETATM   12  C   UNL     1      39.895 -12.223  -3.379  1.00  0.00     0.002 C 
HETATM   13  C   UNL     1      41.417 -12.363  -3.382  1.00  0.00     0.027 C 
HETATM   14  H   UNL     1      42.271 -11.679  -0.918  1.00  0.00     0.163 HD
ENDROOT
BRANCH   1  15
HETATM   15  C   UNL     1      42.125 -15.543   1.392  1.00  0.00     0.146 C 
BRANCH  15  16
HETATM   16  C   UNL     1      41.102 -16.083   2.357  1.00  0.00     0.224 C 
HETATM   17  N   UNL     1      41.344 -17.150   3.162  1.00  0.00    -0.327 N 
HETATM   18  H   UNL     1      40.573 -17.306   3.806  1.00  0.00     0.169 HD
HETATM   19  O   UNL     1      40.043 -15.457   2.507  1.00  0.00    -0.273 OA
BRANCH  17  20
HETATM   20  C   UNL     1      42.413 -18.059   3.310  1.00  0.00     0.035 A 
HETATM   21  C   UNL     1      42.719 -19.114   2.452  1.00  0.00     0.036 A 
HETATM   22  C   UNL     1      43.795 -19.979   2.719  1.00  0.00    -0.059 A 
HETATM   23  C   UNL     1      44.053 -21.161   1.827  1.00  0.00     0.048 C 
HETATM   24  C   UNL     1      44.575 -19.780   3.861  1.00  0.00     0.013 A 
HETATM   25  C   UNL     1      44.304 -18.718   4.725  1.00  0.00    -0.059 A 
HETATM   26  C   UNL     1      43.213 -17.881   4.452  1.00  0.00     0.036 A 
HETATM   27  C   UNL     1      45.125 -18.518   5.965  1.00  0.00     0.048 C 
ENDBRANCH  17  20
ENDBRANCH  15  16
ENDBRANCH   1  15
TORSDOF 3
ENDMDL
MODEL 7
REMARK VINA RESULT:      -8.0      4.876      7.917
REMARK  3 active torsions:
REMARK  status: ('A' for Active; 'I' for Inactive)
REMARK    1  A    between atoms: C_4  and  N_5 
REMARK       I    between atoms: N_5  and  C_6 
REMARK    2  A    between atoms: C_6  and  C_7 
REMARK    3  A    between atoms: C_7  and  C_8 
ROOT
HETATM    1  C   UNL     1      41.437 -15.110  -0.239  1.00  0.00     0.286 C 
HETATM    2  N   UNL     1      41.153 -16.606  -0.162  1.00  0.00    -0.056 N 
HETATM    3  H   UNL     1      40.112 -16.683  -0.154  1.00  0.00     0.278 HD
HETATM    4  H   UNL     1      41.461 -17.087  -1.015  1.00  0.00     0.278 HD
HETATM    5  C   UNL     1      41.671 -17.290   1.073  1.00  0.00     0.209 C 
HETATM    6  C   UNL     1      41.185 -16.528   2.331  1.00  0.00     0.115 C 
HETATM    7  N   UNL     1      41.403 -15.085   2.247  1.00  0.00    -0.353 N 
HETATM    8  C   UNL     1      41.197 -14.369   1.093  1.00  0.00     0.249 C 
HETATM    9  O   UNL     1      40.951 -13.170   1.155  1.00  0.00    -0.271 OA
HETATM   10  C   UNL     1      43.192 -17.431   0.993  1.00  0.00     0.035 C 
HETATM   11  C   UNL     1      43.757 -18.030   2.276  1.00  0.00     0.002 C 
HETATM   12  C   UNL     1      43.343 -17.216   3.498  1.00  0.00     0.002 C 
HETATM   13  C   UNL     1      41.822 -17.099   3.604  1.00  0.00     0.027 C 
HETATM   14  H   UNL     1      41.196 -14.531   3.076  1.00  0.00     0.163 HD
ENDROOT
BRANCH   1  15
HETATM   15  C   UNL     1      40.686 -14.434  -1.397  1.00  0.00     0.146 C 
BRANCH  15  16
HETATM   16  C   UNL     1      41.339 -14.704  -2.727  1.00  0.00     0.224 C 
HETATM   17  N   UNL     1      42.076 -13.773  -3.386  1.00  0.00    -0.327 N 
HETATM   18  H   UNL     1      42.511 -14.168  -4.216  1.00  0.00     0.169 HD
HETATM   19  O   UNL     1      41.302 -15.858  -3.180  1.00  0.00    -0.273 OA
BRANCH  17  20
HETATM   20  C   UNL     1      42.379 -12.412  -3.169  1.00  0.00     0.035 A 
HETATM   21  C   UNL     1      42.758 -11.838  -1.956  1.00  0.00     0.036 A 
HETATM   22  C   UNL     1      43.005 -10.457  -1.851  1.00  0.00    -0.059 A 
HETATM   23  C   UNL     1      43.328  -9.847  -0.516  1.00  0.00     0.048 C 
HETATM   24  C   UNL     1      42.872  -9.644  -2.979  1.00  0.00     0.013 A 
HETATM   25  C   UNL     1      42.514 -10.196  -4.210  1.00  0.00    -0.059 A 
HETATM   26  C   UNL     1      42.251 -11.571  -4.288  1.00  0.00     0.036 A 
HETATM   27  C   UNL     1      42.346  -9.320  -5.417  1.00  0.00     0.048 C 
ENDBRANCH  17  20
ENDBRANCH  15  16
ENDBRANCH   1  15
TORSDOF 3
ENDMDL
MODEL 8
REMARK VINA RESULT:      -8.0      5.043      7.239
REMARK  3 active torsions:
REMARK  status: ('A' for Active; 'I' for Inactive)
REMARK    1  A    between atoms: C_4  and  N_5 
REMARK       I    between atoms: N_5  and  C_6 
REMARK    2  A    between atoms: C_6  and  C_7 
REMARK    3  A    between atoms: C_7  and  C_8 
ROOT
HETATM    1  C   UNL     1      43.323 -11.025   9.469  1.00  0.00     0.286 C 
HETATM    2  N   UNL     1      43.039 -11.829  10.732  1.00  0.00    -0.056 N 
HETATM    3  H   UNL     1      42.266 -12.479  10.471  1.00  0.00     0.278 HD
HETATM    4  H   UNL     1      43.835 -12.429  10.978  1.00  0.00     0.278 HD
HETATM    5  C   UNL     1      42.575 -11.019  11.912  1.00  0.00     0.209 C 
HETATM    6  C   UNL     1      41.379 -10.129  11.493  1.00  0.00     0.115 C 
HETATM    7  N   UNL     1      41.618  -9.395  10.252  1.00  0.00    -0.353 N 
HETATM    8  C   UNL     1      42.257  -9.950   9.171  1.00  0.00     0.249 C 
HETATM    9  O   UNL     1      42.052  -9.507   8.047  1.00  0.00    -0.271 OA
HETATM   10  C   UNL     1      43.748 -10.231  12.497  1.00  0.00     0.035 C 
HETATM   11  C   UNL     1      43.288  -9.322  13.632  1.00  0.00     0.002 C 
HETATM   12  C   UNL     1      42.169  -8.390  13.177  1.00  0.00     0.002 C 
HETATM   13  C   UNL     1      40.979  -9.172  12.622  1.00  0.00     0.027 C 
HETATM   14  H   UNL     1      40.913  -8.716   9.966  1.00  0.00     0.163 HD
ENDROOT
BRANCH   1  15
HETATM   15  C   UNL     1      43.563 -11.927   8.247  1.00  0.00     0.146 C 
BRANCH  15  16
HETATM   16  C   UNL     1      44.736 -12.850   8.449  1.00  0.00     0.224 C 
HETATM   17  N   UNL     1      44.990 -13.904   7.631  1.00  0.00    -0.327 N 
HETATM   18  H   UNL     1      45.872 -14.349   7.870  1.00  0.00     0.169 HD
HETATM   19  O   UNL     1      45.568 -12.565   9.323  1.00  0.00    -0.273 OA
BRANCH  17  20
HETATM   20  C   UNL     1      44.323 -14.493   6.535  1.00  0.00     0.035 A 
HETATM   21  C   UNL     1      44.052 -13.880   5.313  1.00  0.00     0.036 A 
HETATM   22  C   UNL     1      43.349 -14.559   4.301  1.00  0.00    -0.059 A 
HETATM   23  C   UNL     1      42.992 -13.850   3.024  1.00  0.00     0.048 C 
HETATM   24  C   UNL     1      42.916 -15.869   4.519  1.00  0.00     0.013 A 
HETATM   25  C   UNL     1      43.193 -16.512   5.726  1.00  0.00    -0.059 A 
HETATM   26  C   UNL     1      43.876 -15.811   6.730  1.00  0.00     0.036 A 
HETATM   27  C   UNL     1      42.707 -17.911   5.972  1.00  0.00     0.048 C 
ENDBRANCH  17  20
ENDBRANCH  15  16
ENDBRANCH   1  15
TORSDOF 3
ENDMDL
MODEL 9
REMARK VINA RESULT:      -7.8      2.411      7.493
REMARK  3 active torsions:
REMARK  status: ('A' for Active; 'I' for Inactive)
REMARK    1  A    between atoms: C_4  and  N_5 
REMARK       I    between atoms: N_5  and  C_6 
REMARK    2  A    between atoms: C_6  and  C_7 
REMARK    3  A    between atoms: C_7  and  C_8 
ROOT
HETATM    1  C   UNL     1      42.622 -18.189   6.051  1.00  0.00     0.286 C 
HETATM    2  N   UNL     1      44.136 -18.341   6.135  1.00  0.00    -0.056 N 
HETATM    3  H   UNL     1      44.516 -17.395   5.916  1.00  0.00     0.278 HD
HETATM    4  H   UNL     1      44.437 -18.546   7.095  1.00  0.00     0.278 HD
HETATM    5  C   UNL     1      44.734 -19.311   5.153  1.00  0.00     0.209 C 
HETATM    6  C   UNL     1      44.250 -18.967   3.722  1.00  0.00     0.115 C 
HETATM    7  N   UNL     1      42.805 -18.764   3.640  1.00  0.00    -0.353 N 
HETATM    8  C   UNL     1      42.092 -18.096   4.605  1.00  0.00     0.249 C 
HETATM    9  O   UNL     1      41.026 -17.563   4.318  1.00  0.00    -0.271 OA
HETATM   10  C   UNL     1      44.415 -20.746   5.577  1.00  0.00     0.035 C 
HETATM   11  C   UNL     1      44.922 -21.750   4.546  1.00  0.00     0.002 C 
HETATM   12  C   UNL     1      44.365 -21.448   3.158  1.00  0.00     0.002 C 
HETATM   13  C   UNL     1      44.708 -20.026   2.713  1.00  0.00     0.027 C 
HETATM   14  H   UNL     1      42.403 -18.628   2.713  1.00  0.00     0.163 HD
ENDROOT
BRANCH   1  15
HETATM   15  C   UNL     1      42.106 -17.023   6.910  1.00  0.00     0.146 C 
BRANCH  15  16
HETATM   16  C   UNL     1      43.139 -15.939   7.069  1.00  0.00     0.224 C 
HETATM   17  N   UNL     1      43.106 -14.783   6.356  1.00  0.00    -0.327 N 
HETATM   18  H   UNL     1      43.829 -14.139   6.667  1.00  0.00     0.169 HD
HETATM   19  O   UNL     1      43.984 -16.055   7.969  1.00  0.00    -0.273 OA
BRANCH  17  20
HETATM   20  C   UNL     1      42.297 -14.283   5.314  1.00  0.00     0.035 A 
HETATM   21  C   UNL     1      42.537 -14.426   3.948  1.00  0.00     0.036 A 
HETATM   22  C   UNL     1      41.673 -13.855   2.995  1.00  0.00    -0.059 A 
HETATM   23  C   UNL     1      41.998 -13.947   1.531  1.00  0.00     0.048 C 
HETATM   24  C   UNL     1      40.554 -13.134   3.420  1.00  0.00     0.013 A 
HETATM   25  C   UNL     1      40.280 -12.996   4.782  1.00  0.00    -0.059 A 
HETATM   26  C   UNL     1      41.165 -13.554   5.715  1.00  0.00     0.036 A 
HETATM   27  C   UNL     1      39.092 -12.201   5.241  1.00  0.00     0.048 C 
ENDBRANCH  17  20
ENDBRANCH  15  16
ENDBRANCH   1  15
TORSDOF 3
ENDMDL
MODEL 10
REMARK VINA RESULT:      -7.4      1.694      2.715
REMARK  3 active torsions:
REMARK  status: ('A' for Active; 'I' for Inactive)
REMARK    1  A    between atoms: C_4  and  N_5 
REMARK       I    between atoms: N_5  and  C_6 
REMARK    2  A    between atoms: C_6  and  C_7 
REMARK    3  A    between atoms: C_7  and  C_8 
ROOT
HETATM    1  C   UNL     1      43.025 -15.009   3.036  1.00  0.00     0.286 C 
HETATM    2  N   UNL     1      42.375 -15.650   4.257  1.00  0.00    -0.056 N 
HETATM    3  H   UNL     1      41.360 -15.708   4.024  1.00  0.00     0.278 HD
HETATM    4  H   UNL     1      42.689 -16.620   4.380  1.00  0.00     0.278 HD
HETATM    5  C   UNL     1      42.505 -14.865   5.533  1.00  0.00     0.209 C 
HETATM    6  C   UNL     1      42.026 -13.410   5.300  1.00  0.00     0.115 C 
HETATM    7  N   UNL     1      42.600 -12.804   4.100  1.00  0.00    -0.353 N 
HETATM    8  C   UNL     1      42.762 -13.493   2.924  1.00  0.00     0.249 C 
HETATM    9  O   UNL     1      42.810 -12.884   1.861  1.00  0.00    -0.271 OA
HETATM   10  C   UNL     1      43.939 -14.958   6.060  1.00  0.00     0.035 C 
HETATM   11  C   UNL     1      44.128 -14.089   7.299  1.00  0.00     0.002 C 
HETATM   12  C   UNL     1      43.734 -12.640   7.025  1.00  0.00     0.002 C 
HETATM   13  C   UNL     1      42.292 -12.535   6.530  1.00  0.00     0.027 C 
HETATM   14  H   UNL     1      42.404 -11.817   3.935  1.00  0.00     0.163 HD
ENDROOT
BRANCH   1  15
HETATM   15  C   UNL     1      42.657 -15.738   1.733  1.00  0.00     0.146 C 
BRANCH  15  16
HETATM   16  C   UNL     1      41.443 -16.614   1.899  1.00  0.00     0.224 C 
HETATM   17  N   UNL     1      41.519 -17.899   2.331  1.00  0.00    -0.327 N 
HETATM   18  H   UNL     1      40.593 -18.296   2.468  1.00  0.00     0.169 HD
HETATM   19  O   UNL     1      40.322 -16.105   1.751  1.00  0.00    -0.273 OA
BRANCH  17  20
HETATM   20  C   UNL     1      42.577 -18.781   2.640  1.00  0.00     0.035 A 
HETATM   21  C   UNL     1      42.979 -19.879   1.880  1.00  0.00     0.036 A 
HETATM   22  C   UNL     1      44.031 -20.710   2.305  1.00  0.00    -0.059 A 
HETATM   23  C   UNL     1      44.391 -21.936   1.514  1.00  0.00     0.048 C 
HETATM   24  C   UNL     1      44.688 -20.433   3.506  1.00  0.00     0.013 A 
HETATM   25  C   UNL     1      44.319 -19.328   4.275  1.00  0.00    -0.059 A 
HETATM   26  C   UNL     1      43.253 -18.525   3.844  1.00  0.00     0.036 A 
HETATM   27  C   UNL     1      45.007 -19.045   5.578  1.00  0.00     0.048 C 
ENDBRANCH  17  20
ENDBRANCH  15  16
ENDBRANCH   1  15
TORSDOF 3
ENDMDL
