MODEL 1
REMARK VINA RESULT:     -10.4      0.000      0.000
REMARK  5 active torsions:
REMARK  status: ('A' for Active; 'I' for Inactive)
REMARK    1  A    between atoms: C_4  and  C_5 
REMARK    2  A    between atoms: C_5  and  N_6 
REMARK       I    between atoms: N_6  and  C_7 
REMARK    3  A    between atoms: C_7  and  C_8 
REMARK    4  A    between atoms: C_20  and  N_21 
REMARK       I    between atoms: N_21  and  C_22 
REMARK    5  A    between atoms: C_22  and  C_23 
ROOT
HETATM    1  C   UNL     1      40.760 -14.936   0.370  1.00  0.00     0.079 A 
HETATM    2  C   UNL     1      40.362 -14.191   1.414  1.00  0.00     0.131 A 
HETATM    3  N   UNL     1      40.515 -14.686   2.714  1.00  0.00    -0.259 N 
HETATM    4  C   UNL     1      39.944 -13.741   3.595  1.00  0.00     0.071 A 
HETATM    5  C   UNL     1      39.442 -12.692   2.789  1.00  0.00     0.061 A 
HETATM    6  C   UNL     1      38.842 -11.588   3.351  1.00  0.00     0.032 A 
HETATM    7  C   UNL     1      38.706 -11.566   4.744  1.00  0.00     0.002 A 
HETATM    8  C   UNL     1      39.183 -12.628   5.542  1.00  0.00     0.002 A 
HETATM    9  C   UNL     1      39.815 -13.736   4.967  1.00  0.00     0.032 A 
HETATM   10  N   UNL     1      39.786 -12.929   1.449  1.00  0.00    -0.339 N 
HETATM   11  C   UNL     1      41.092 -15.893   3.038  1.00  0.00     0.281 A 
HETATM   12  O   UNL     1      41.256 -16.354   4.169  1.00  0.00    -0.265 OA
HETATM   13  C   UNL     1      41.554 -16.719   1.849  1.00  0.00     0.105 A 
HETATM   14  C   UNL     1      41.344 -16.244   0.611  1.00  0.00     0.056 A 
HETATM   15  H   UNL     1      39.202 -12.641   0.671  1.00  0.00     0.167 HD
ENDROOT
BRANCH   1  16
HETATM   16  C   UNL     1      40.603 -14.389  -1.008  1.00  0.00     0.255 C 
HETATM   17  N   UNL     1      41.795 -14.197  -1.660  1.00  0.00    -0.353 N 
HETATM   18  H   UNL     1      42.670 -14.389  -1.190  1.00  0.00     0.163 HD
HETATM   19  O   UNL     1      39.505 -14.120  -1.482  1.00  0.00    -0.268 OA
BRANCH  17  20
HETATM   20  C   UNL     1      41.857 -13.754  -3.031  1.00  0.00     0.161 C 
BRANCH  20  21
HETATM   21  C   UNL     1      42.247 -12.301  -3.094  1.00  0.00    -0.041 A 
HETATM   22  C   UNL     1      42.801 -11.662  -1.972  1.00  0.00     0.009 A 
HETATM   23  C   UNL     1      43.114 -10.303  -2.013  1.00  0.00     0.001 A 
HETATM   24  C   UNL     1      42.882  -9.569  -3.174  1.00  0.00     0.000 A 
HETATM   25  C   UNL     1      42.335 -10.192  -4.295  1.00  0.00     0.001 A 
HETATM   26  C   UNL     1      42.014 -11.550  -4.254  1.00  0.00     0.009 A 
ENDBRANCH  20  21
ENDBRANCH  17  20
ENDBRANCH   1  16
BRANCH  13  27
HETATM   27  N   UNL     1      42.165 -17.921   2.167  1.00  0.00    -0.318 N 
HETATM   28  C   UNL     1      43.504 -18.240   2.076  1.00  0.00     0.256 C 
HETATM   29  O   UNL     1      44.386 -17.487   1.675  1.00  0.00    -0.267 OA
HETATM   30  H   UNL     1      41.527 -18.581   2.606  1.00  0.00     0.169 HD
BRANCH  28  31
HETATM   31  C   UNL     1      43.894 -19.596   2.563  1.00  0.00     0.032 A 
HETATM   32  C   UNL     1      44.479 -19.812   3.820  1.00  0.00     0.020 A 
HETATM   33  C   UNL     1      44.831 -21.108   4.210  1.00  0.00     0.043 A 
HETATM   34  C   UNL     1      44.590 -22.178   3.355  1.00  0.00     0.116 A 
HETATM   35  F   UNL     1      44.931 -23.416   3.735  1.00  0.00    -0.206 F 
HETATM   36  C   UNL     1      43.995 -21.984   2.115  1.00  0.00     0.043 A 
HETATM   37  C   UNL     1      43.643 -20.692   1.719  1.00  0.00     0.020 A 
ENDBRANCH  28  31
ENDBRANCH  13  27
TORSDOF 5
ENDMDL
MODEL 2
REMARK VINA RESULT:      -9.8      4.636      7.421
REMARK  5 active torsions:
REMARK  status: ('A' for Active; 'I' for Inactive)
REMARK    1  A    between atoms: C_4  and  C_5 
REMARK    2  A    between atoms: C_5  and  N_6 
REMARK       I    between atoms: N_6  and  C_7 
REMARK    3  A    between atoms: C_7  and  C_8 
REMARK    4  A    between atoms: C_20  and  N_21 
REMARK       I    between atoms: N_21  and  C_22 
REMARK    5  A    between atoms: C_22  and  C_23 
ROOT
HETATM    1  C   UNL     1      42.161 -15.230   3.699  1.00  0.00     0.079 A 
HETATM    2  C   UNL     1      42.676 -16.469   3.710  1.00  0.00     0.131 A 
HETATM    3  N   UNL     1      43.483 -16.872   4.781  1.00  0.00    -0.259 N 
HETATM    4  C   UNL     1      43.948 -18.175   4.492  1.00  0.00     0.071 A 
HETATM    5  C   UNL     1      43.413 -18.522   3.229  1.00  0.00     0.061 A 
HETATM    6  C   UNL     1      43.657 -19.754   2.669  1.00  0.00     0.032 A 
HETATM    7  C   UNL     1      44.492 -20.630   3.372  1.00  0.00     0.002 A 
HETATM    8  C   UNL     1      45.046 -20.268   4.618  1.00  0.00     0.002 A 
HETATM    9  C   UNL     1      44.774 -19.024   5.196  1.00  0.00     0.032 A 
HETATM   10  N   UNL     1      42.551 -17.502   2.793  1.00  0.00    -0.339 N 
HETATM   11  C   UNL     1      43.776 -16.102   5.884  1.00  0.00     0.281 A 
HETATM   12  O   UNL     1      44.468 -16.428   6.850  1.00  0.00    -0.265 OA
HETATM   13  C   UNL     1      43.172 -14.708   5.867  1.00  0.00     0.105 A 
HETATM   14  C   UNL     1      42.449 -14.329   4.801  1.00  0.00     0.056 A 
HETATM   15  H   UNL     1      42.427 -17.269   1.813  1.00  0.00     0.167 HD
ENDROOT
BRANCH   1  16
HETATM   16  C   UNL     1      41.292 -14.821   2.558  1.00  0.00     0.255 C 
HETATM   17  N   UNL     1      41.992 -14.511   1.420  1.00  0.00    -0.353 N 
HETATM   18  H   UNL     1      43.004 -14.538   1.420  1.00  0.00     0.163 HD
HETATM   19  O   UNL     1      40.073 -14.751   2.660  1.00  0.00    -0.268 OA
BRANCH  17  20
HETATM   20  C   UNL     1      41.334 -14.172   0.182  1.00  0.00     0.161 C 
BRANCH  20  21
HETATM   21  C   UNL     1      41.932 -12.920  -0.403  1.00  0.00    -0.041 A 
HETATM   22  C   UNL     1      42.069 -11.763   0.381  1.00  0.00     0.009 A 
HETATM   23  C   UNL     1      42.574 -10.586  -0.173  1.00  0.00     0.001 A 
HETATM   24  C   UNL     1      42.953 -10.554  -1.514  1.00  0.00     0.000 A 
HETATM   25  C   UNL     1      42.824 -11.697  -2.301  1.00  0.00     0.001 A 
HETATM   26  C   UNL     1      42.312 -12.873  -1.751  1.00  0.00     0.009 A 
ENDBRANCH  20  21
ENDBRANCH  17  20
ENDBRANCH   1  16
BRANCH  13  27
HETATM   27  N   UNL     1      43.435 -13.937   6.988  1.00  0.00    -0.318 N 
HETATM   28  C   UNL     1      44.608 -13.286   7.311  1.00  0.00     0.256 C 
HETATM   29  O   UNL     1      45.635 -13.300   6.639  1.00  0.00    -0.267 OA
HETATM   30  H   UNL     1      42.608 -13.782   7.560  1.00  0.00     0.169 HD
BRANCH  28  31
HETATM   31  C   UNL     1      44.583 -12.459   8.554  1.00  0.00     0.032 A 
HETATM   32  C   UNL     1      45.587 -12.528   9.531  1.00  0.00     0.020 A 
HETATM   33  C   UNL     1      45.497 -11.733  10.678  1.00  0.00     0.043 A 
HETATM   34  C   UNL     1      44.417 -10.871  10.840  1.00  0.00     0.116 A 
HETATM   35  F   UNL     1      44.337 -10.113  11.942  1.00  0.00    -0.206 F 
HETATM   36  C   UNL     1      43.424 -10.778   9.873  1.00  0.00     0.043 A 
HETATM   37  C   UNL     1      43.508 -11.570   8.726  1.00  0.00     0.020 A 
ENDBRANCH  28  31
ENDBRANCH  13  27
TORSDOF 5
ENDMDL
MODEL 3
REMARK VINA RESULT:      -9.8      1.671      2.693
REMARK  5 active torsions:
REMARK  status: ('A' for Active; 'I' for Inactive)
REMARK    1  A    between atoms: C_4  and  C_5 
REMARK    2  A    between atoms: C_5  and  N_6 
REMARK       I    between atoms: N_6  and  C_7 
REMARK    3  A    between atoms: C_7  and  C_8 
REMARK    4  A    between atoms: C_20  and  N_21 
REMARK       I    between atoms: N_21  and  C_22 
REMARK    5  A    between atoms: C_22  and  C_23 
ROOT
HETATM    1  C   UNL     1      41.034 -14.508   1.149  1.00  0.00     0.079 A 
HETATM    2  C   UNL     1      40.693 -13.867   2.277  1.00  0.00     0.131 A 
HETATM    3  N   UNL     1      40.834 -14.514   3.510  1.00  0.00    -0.259 N 
HETATM    4  C   UNL     1      40.328 -13.647   4.504  1.00  0.00     0.071 A 
HETATM    5  C   UNL     1      39.875 -12.487   3.831  1.00  0.00     0.061 A 
HETATM    6  C   UNL     1      39.345 -11.424   4.526  1.00  0.00     0.032 A 
HETATM    7  C   UNL     1      39.228 -11.554   5.915  1.00  0.00     0.002 A 
HETATM    8  C   UNL     1      39.656 -12.724   6.577  1.00  0.00     0.002 A 
HETATM    9  C   UNL     1      40.218 -13.792   5.869  1.00  0.00     0.032 A 
HETATM   10  N   UNL     1      40.188 -12.588   2.466  1.00  0.00    -0.339 N 
HETATM   11  C   UNL     1      41.347 -15.780   3.684  1.00  0.00     0.281 A 
HETATM   12  O   UNL     1      41.501 -16.375   4.752  1.00  0.00    -0.265 OA
HETATM   13  C   UNL     1      41.747 -16.489   2.400  1.00  0.00     0.105 A 
HETATM   14  C   UNL     1      41.548 -15.865   1.228  1.00  0.00     0.056 A 
HETATM   15  H   UNL     1      39.611 -12.182   1.737  1.00  0.00     0.167 HD
ENDROOT
BRANCH   1  16
HETATM   16  C   UNL     1      40.890 -13.800  -0.155  1.00  0.00     0.255 C 
HETATM   17  N   UNL     1      41.505 -14.443  -1.199  1.00  0.00    -0.353 N 
HETATM   18  H   UNL     1      42.026 -15.295  -1.037  1.00  0.00     0.163 HD
HETATM   19  O   UNL     1      40.296 -12.732  -0.255  1.00  0.00    -0.268 OA
BRANCH  17  20
HETATM   20  C   UNL     1      41.413 -13.965  -2.557  1.00  0.00     0.161 C 
BRANCH  20  21
HETATM   21  C   UNL     1      40.107 -14.389  -3.174  1.00  0.00    -0.041 A 
HETATM   22  C   UNL     1      39.042 -13.479  -3.284  1.00  0.00     0.009 A 
HETATM   23  C   UNL     1      37.814 -13.885  -3.807  1.00  0.00     0.001 A 
HETATM   24  C   UNL     1      37.638 -15.201  -4.231  1.00  0.00     0.000 A 
HETATM   25  C   UNL     1      38.687 -16.112  -4.129  1.00  0.00     0.001 A 
HETATM   26  C   UNL     1      39.915 -15.710  -3.599  1.00  0.00     0.009 A 
ENDBRANCH  20  21
ENDBRANCH  17  20
ENDBRANCH   1  16
BRANCH  13  27
HETATM   27  N   UNL     1      42.294 -17.750   2.568  1.00  0.00    -0.318 N 
HETATM   28  C   UNL     1      43.566 -18.173   2.237  1.00  0.00     0.256 C 
HETATM   29  O   UNL     1      44.430 -17.475   1.714  1.00  0.00    -0.267 OA
HETATM   30  H   UNL     1      41.684 -18.376   3.089  1.00  0.00     0.169 HD
BRANCH  28  31
HETATM   31  C   UNL     1      43.911 -19.578   2.604  1.00  0.00     0.032 A 
HETATM   32  C   UNL     1      43.690 -20.663   1.743  1.00  0.00     0.020 A 
HETATM   33  C   UNL     1      44.026 -21.957   2.154  1.00  0.00     0.043 A 
HETATM   34  C   UNL     1      44.588 -22.160   3.411  1.00  0.00     0.116 A 
HETATM   35  F   UNL     1      44.907 -23.402   3.798  1.00  0.00    -0.206 F 
HETATM   36  C   UNL     1      44.829 -21.094   4.268  1.00  0.00     0.043 A 
HETATM   37  C   UNL     1      44.494 -19.800   3.863  1.00  0.00     0.020 A 
ENDBRANCH  28  31
ENDBRANCH  13  27
TORSDOF 5
ENDMDL
MODEL 4
REMARK VINA RESULT:      -9.8      3.647      6.673
REMARK  5 active torsions:
REMARK  status: ('A' for Active; 'I' for Inactive)
REMARK    1  A    between atoms: C_4  and  C_5 
REMARK    2  A    between atoms: C_5  and  N_6 
REMARK       I    between atoms: N_6  and  C_7 
REMARK    3  A    between atoms: C_7  and  C_8 
REMARK    4  A    between atoms: C_20  and  N_21 
REMARK       I    between atoms: N_21  and  C_22 
REMARK    5  A    between atoms: C_22  and  C_23 
ROOT
HETATM    1  C   UNL     1      41.208 -12.879   4.844  1.00  0.00     0.079 A 
HETATM    2  C   UNL     1      40.240 -12.844   3.916  1.00  0.00     0.131 A 
HETATM    3  N   UNL     1      39.944 -13.998   3.181  1.00  0.00    -0.259 N 
HETATM    4  C   UNL     1      38.956 -13.654   2.232  1.00  0.00     0.071 A 
HETATM    5  C   UNL     1      38.689 -12.276   2.413  1.00  0.00     0.061 A 
HETATM    6  C   UNL     1      37.740 -11.631   1.653  1.00  0.00     0.032 A 
HETATM    7  C   UNL     1      37.087 -12.376   0.665  1.00  0.00     0.002 A 
HETATM    8  C   UNL     1      37.378 -13.743   0.470  1.00  0.00     0.002 A 
HETATM    9  C   UNL     1      38.324 -14.401   1.262  1.00  0.00     0.032 A 
HETATM   10  N   UNL     1      39.416 -11.801   3.517  1.00  0.00    -0.339 N 
HETATM   11  C   UNL     1      40.549 -15.223   3.356  1.00  0.00     0.281 A 
HETATM   12  O   UNL     1      40.304 -16.262   2.740  1.00  0.00    -0.265 OA
HETATM   13  C   UNL     1      41.631 -15.254   4.422  1.00  0.00     0.105 A 
HETATM   14  C   UNL     1      41.932 -14.118   5.072  1.00  0.00     0.056 A 
HETATM   15  H   UNL     1      39.771 -10.853   3.576  1.00  0.00     0.167 HD
ENDROOT
BRANCH   1  16
HETATM   16  C   UNL     1      41.502 -11.645   5.628  1.00  0.00     0.255 C 
HETATM   17  N   UNL     1      41.612 -11.866   6.977  1.00  0.00    -0.353 N 
HETATM   18  H   UNL     1      41.462 -12.792   7.356  1.00  0.00     0.163 HD
HETATM   19  O   UNL     1      41.605 -10.545   5.096  1.00  0.00    -0.268 OA
BRANCH  17  20
HETATM   20  C   UNL     1      41.975 -10.818   7.900  1.00  0.00     0.161 C 
BRANCH  20  21
HETATM   21  C   UNL     1      43.172 -11.230   8.715  1.00  0.00    -0.041 A 
HETATM   22  C   UNL     1      43.437 -10.616   9.950  1.00  0.00     0.009 A 
HETATM   23  C   UNL     1      44.575 -10.960  10.682  1.00  0.00     0.001 A 
HETATM   24  C   UNL     1      45.455 -11.922  10.191  1.00  0.00     0.000 A 
HETATM   25  C   UNL     1      45.201 -12.539   8.968  1.00  0.00     0.001 A 
HETATM   26  C   UNL     1      44.067 -12.192   8.230  1.00  0.00     0.009 A 
ENDBRANCH  20  21
ENDBRANCH  17  20
ENDBRANCH   1  16
BRANCH  13  27
HETATM   27  N   UNL     1      42.222 -16.490   4.627  1.00  0.00    -0.318 N 
HETATM   28  C   UNL     1      43.218 -17.086   3.881  1.00  0.00     0.256 C 
HETATM   29  O   UNL     1      43.741 -16.601   2.882  1.00  0.00    -0.267 OA
HETATM   30  H   UNL     1      41.924 -16.929   5.496  1.00  0.00     0.169 HD
BRANCH  28  31
HETATM   31  C   UNL     1      43.722 -18.399   4.381  1.00  0.00     0.032 A 
HETATM   32  C   UNL     1      43.658 -18.771   5.732  1.00  0.00     0.020 A 
HETATM   33  C   UNL     1      44.159 -20.013   6.137  1.00  0.00     0.043 A 
HETATM   34  C   UNL     1      44.708 -20.878   5.195  1.00  0.00     0.116 A 
HETATM   35  F   UNL     1      45.186 -22.065   5.589  1.00  0.00    -0.206 F 
HETATM   36  C   UNL     1      44.762 -20.532   3.851  1.00  0.00     0.043 A 
HETATM   37  C   UNL     1      44.265 -19.293   3.442  1.00  0.00     0.020 A 
ENDBRANCH  28  31
ENDBRANCH  13  27
TORSDOF 5
ENDMDL
MODEL 5
REMARK VINA RESULT:      -9.4      3.532      7.838
REMARK  5 active torsions:
REMARK  status: ('A' for Active; 'I' for Inactive)
REMARK    1  A    between atoms: C_4  and  C_5 
REMARK    2  A    between atoms: C_5  and  N_6 
REMARK       I    between atoms: N_6  and  C_7 
REMARK    3  A    between atoms: C_7  and  C_8 
REMARK    4  A    between atoms: C_20  and  N_21 
REMARK       I    between atoms: N_21  and  C_22 
REMARK    5  A    between atoms: C_22  and  C_23 
ROOT
HETATM    1  C   UNL     1      41.999 -15.137   4.289  1.00  0.00     0.079 A 
HETATM    2  C   UNL     1      41.788 -13.948   4.875  1.00  0.00     0.131 A 
HETATM    3  N   UNL     1      41.135 -12.934   4.164  1.00  0.00    -0.259 N 
HETATM    4  C   UNL     1      41.124 -11.783   4.984  1.00  0.00     0.071 A 
HETATM    5  C   UNL     1      41.793 -12.136   6.180  1.00  0.00     0.061 A 
HETATM    6  C   UNL     1      41.930 -11.234   7.210  1.00  0.00     0.032 A 
HETATM    7  C   UNL     1      41.424  -9.944   7.011  1.00  0.00     0.002 A 
HETATM    8  C   UNL     1      40.782  -9.589   5.805  1.00  0.00     0.002 A 
HETATM    9  C   UNL     1      40.623 -10.517   4.771  1.00  0.00     0.032 A 
HETATM   10  N   UNL     1      42.119 -13.501   6.146  1.00  0.00    -0.339 N 
HETATM   11  C   UNL     1      40.635 -13.059   2.888  1.00  0.00     0.281 A 
HETATM   12  O   UNL     1      40.043 -12.195   2.239  1.00  0.00    -0.265 OA
HETATM   13  C   UNL     1      40.865 -14.415   2.242  1.00  0.00     0.105 A 
HETATM   14  C   UNL     1      41.544 -15.350   2.926  1.00  0.00     0.056 A 
HETATM   15  H   UNL     1      42.947 -13.881   6.593  1.00  0.00     0.167 HD
ENDROOT
BRANCH   1  16
HETATM   16  C   UNL     1      42.684 -16.211   5.064  1.00  0.00     0.255 C 
HETATM   17  N   UNL     1      43.373 -17.099   4.278  1.00  0.00    -0.353 N 
HETATM   18  H   UNL     1      43.355 -17.009   3.270  1.00  0.00     0.163 HD
HETATM   19  O   UNL     1      42.603 -16.286   6.285  1.00  0.00    -0.268 OA
BRANCH  17  20
HETATM   20  C   UNL     1      44.171 -18.162   4.838  1.00  0.00     0.161 C 
BRANCH  20  21
HETATM   21  C   UNL     1      44.129 -19.374   3.946  1.00  0.00    -0.041 A 
HETATM   22  C   UNL     1      44.698 -20.588   4.366  1.00  0.00     0.009 A 
HETATM   23  C   UNL     1      44.706 -21.697   3.519  1.00  0.00     0.001 A 
HETATM   24  C   UNL     1      44.141 -21.608   2.248  1.00  0.00     0.000 A 
HETATM   25  C   UNL     1      43.571 -20.410   1.822  1.00  0.00     0.001 A 
HETATM   26  C   UNL     1      43.569 -19.296   2.664  1.00  0.00     0.009 A 
ENDBRANCH  20  21
ENDBRANCH  17  20
ENDBRANCH   1  16
BRANCH  13  27
HETATM   27  N   UNL     1      40.337 -14.560   0.970  1.00  0.00    -0.318 N 
HETATM   28  C   UNL     1      40.967 -14.339  -0.239  1.00  0.00     0.256 C 
HETATM   29  O   UNL     1      42.125 -13.956  -0.374  1.00  0.00    -0.267 OA
HETATM   30  H   UNL     1      39.407 -14.974   0.975  1.00  0.00     0.169 HD
BRANCH  28  31
HETATM   31  C   UNL     1      40.173 -14.652  -1.464  1.00  0.00     0.032 A 
HETATM   32  C   UNL     1      40.642 -15.504  -2.474  1.00  0.00     0.020 A 
HETATM   33  C   UNL     1      39.852 -15.746  -3.603  1.00  0.00     0.043 A 
HETATM   34  C   UNL     1      38.600 -15.149  -3.712  1.00  0.00     0.116 A 
HETATM   35  F   UNL     1      37.850 -15.385  -4.796  1.00  0.00    -0.206 F 
HETATM   36  C   UNL     1      38.114 -14.317  -2.712  1.00  0.00     0.043 A 
HETATM   37  C   UNL     1      38.899 -14.070  -1.584  1.00  0.00     0.020 A 
ENDBRANCH  28  31
ENDBRANCH  13  27
TORSDOF 5
ENDMDL
MODEL 6
REMARK VINA RESULT:      -9.4      3.818      7.259
REMARK  5 active torsions:
REMARK  status: ('A' for Active; 'I' for Inactive)
REMARK    1  A    between atoms: C_4  and  C_5 
REMARK    2  A    between atoms: C_5  and  N_6 
REMARK       I    between atoms: N_6  and  C_7 
REMARK    3  A    between atoms: C_7  and  C_8 
REMARK    4  A    between atoms: C_20  and  N_21 
REMARK       I    between atoms: N_21  and  C_22 
REMARK    5  A    between atoms: C_22  and  C_23 
ROOT
HETATM    1  C   UNL     1      40.317 -12.472   5.681  1.00  0.00     0.079 A 
HETATM    2  C   UNL     1      39.579 -12.257   4.581  1.00  0.00     0.131 A 
HETATM    3  N   UNL     1      39.672 -13.144   3.502  1.00  0.00    -0.259 N 
HETATM    4  C   UNL     1      38.859 -12.634   2.464  1.00  0.00     0.071 A 
HETATM    5  C   UNL     1      38.301 -11.427   2.948  1.00  0.00     0.061 A 
HETATM    6  C   UNL     1      37.429 -10.690   2.180  1.00  0.00     0.032 A 
HETATM    7  C   UNL     1      37.155 -11.154   0.888  1.00  0.00     0.002 A 
HETATM    8  C   UNL     1      37.737 -12.344   0.401  1.00  0.00     0.002 A 
HETATM    9  C   UNL     1      38.602 -13.104   1.194  1.00  0.00     0.032 A 
HETATM   10  N   UNL     1      38.673 -11.247   4.290  1.00  0.00    -0.339 N 
HETATM   11  C   UNL     1      40.449 -14.281   3.477  1.00  0.00     0.281 A 
HETATM   12  O   UNL     1      40.544 -15.090   2.553  1.00  0.00    -0.265 OA
HETATM   13  C   UNL     1      41.266 -14.522   4.735  1.00  0.00     0.105 A 
HETATM   14  C   UNL     1      41.200 -13.625   5.732  1.00  0.00     0.056 A 
HETATM   15  H   UNL     1      38.819 -10.332   4.702  1.00  0.00     0.167 HD
ENDROOT
BRANCH   1  16
HETATM   16  C   UNL     1      40.196 -11.526   6.826  1.00  0.00     0.255 C 
HETATM   17  N   UNL     1      41.331 -11.445   7.593  1.00  0.00    -0.353 N 
HETATM   18  H   UNL     1      42.133 -12.024   7.378  1.00  0.00     0.163 HD
HETATM   19  O   UNL     1      39.162 -10.909   7.056  1.00  0.00    -0.268 OA
BRANCH  17  20
HETATM   20  C   UNL     1      41.448 -10.526   8.699  1.00  0.00     0.161 C 
BRANCH  20  21
HETATM   21  C   UNL     1      42.763 -10.721   9.404  1.00  0.00    -0.041 A 
HETATM   22  C   UNL     1      43.782 -11.486   8.813  1.00  0.00     0.009 A 
HETATM   23  C   UNL     1      44.983 -11.711   9.488  1.00  0.00     0.001 A 
HETATM   24  C   UNL     1      45.180 -11.169  10.757  1.00  0.00     0.000 A 
HETATM   25  C   UNL     1      44.178 -10.406  11.353  1.00  0.00     0.001 A 
HETATM   26  C   UNL     1      42.973 -10.186  10.682  1.00  0.00     0.009 A 
ENDBRANCH  20  21
ENDBRANCH  17  20
ENDBRANCH   1  16
BRANCH  13  27
HETATM   27  N   UNL     1      42.026 -15.680   4.732  1.00  0.00    -0.318 N 
HETATM   28  C   UNL     1      41.744 -16.881   5.351  1.00  0.00     0.256 C 
HETATM   29  O   UNL     1      40.748 -17.109   6.033  1.00  0.00    -0.267 OA
HETATM   30  H   UNL     1      42.827 -15.622   4.106  1.00  0.00     0.169 HD
BRANCH  28  31
HETATM   31  C   UNL     1      42.712 -17.991   5.113  1.00  0.00     0.032 A 
HETATM   32  C   UNL     1      43.253 -18.762   6.152  1.00  0.00     0.020 A 
HETATM   33  C   UNL     1      44.165 -19.781   5.861  1.00  0.00     0.043 A 
HETATM   34  C   UNL     1      44.525 -20.032   4.540  1.00  0.00     0.116 A 
HETATM   35  F   UNL     1      45.399 -21.009   4.268  1.00  0.00    -0.206 F 
HETATM   36  C   UNL     1      43.984 -19.289   3.498  1.00  0.00     0.043 A 
HETATM   37  C   UNL     1      43.074 -18.269   3.784  1.00  0.00     0.020 A 
ENDBRANCH  28  31
ENDBRANCH  13  27
TORSDOF 5
ENDMDL
MODEL 7
REMARK VINA RESULT:      -9.3      4.560      8.810
REMARK  5 active torsions:
REMARK  status: ('A' for Active; 'I' for Inactive)
REMARK    1  A    between atoms: C_4  and  C_5 
REMARK    2  A    between atoms: C_5  and  N_6 
REMARK       I    between atoms: N_6  and  C_7 
REMARK    3  A    between atoms: C_7  and  C_8 
REMARK    4  A    between atoms: C_20  and  N_21 
REMARK       I    between atoms: N_21  and  C_22 
REMARK    5  A    between atoms: C_22  and  C_23 
ROOT
HETATM    1  C   UNL     1      42.784 -15.314   3.661  1.00  0.00     0.079 A 
HETATM    2  C   UNL     1      41.759 -14.738   3.013  1.00  0.00     0.131 A 
HETATM    3  N   UNL     1      41.095 -13.654   3.598  1.00  0.00    -0.259 N 
HETATM    4  C   UNL     1      40.023 -13.306   2.746  1.00  0.00     0.071 A 
HETATM    5  C   UNL     1      40.061 -14.214   1.661  1.00  0.00     0.061 A 
HETATM    6  C   UNL     1      39.156 -14.126   0.629  1.00  0.00     0.032 A 
HETATM    7  C   UNL     1      38.169 -13.138   0.717  1.00  0.00     0.002 A 
HETATM    8  C   UNL     1      38.118 -12.253   1.815  1.00  0.00     0.002 A 
HETATM    9  C   UNL     1      39.057 -12.329   2.850  1.00  0.00     0.032 A 
HETATM   10  N   UNL     1      41.192 -15.037   1.783  1.00  0.00    -0.339 N 
HETATM   11  C   UNL     1      41.432 -13.075   4.801  1.00  0.00     0.281 A 
HETATM   12  O   UNL     1      40.881 -12.113   5.338  1.00  0.00    -0.265 OA
HETATM   13  C   UNL     1      42.605 -13.725   5.515  1.00  0.00     0.105 A 
HETATM   14  C   UNL     1      43.187 -14.799   4.958  1.00  0.00     0.056 A 
HETATM   15  H   UNL     1      41.210 -15.999   1.462  1.00  0.00     0.167 HD
ENDROOT
BRANCH   1  16
HETATM   16  C   UNL     1      43.490 -16.460   3.018  1.00  0.00     0.255 C 
HETATM   17  N   UNL     1      43.623 -17.551   3.838  1.00  0.00    -0.353 N 
HETATM   18  H   UNL     1      43.289 -17.515   4.793  1.00  0.00     0.163 HD
HETATM   19  O   UNL     1      43.924 -16.399   1.873  1.00  0.00    -0.268 OA
BRANCH  17  20
HETATM   20  C   UNL     1      44.203 -18.790   3.381  1.00  0.00     0.161 C 
BRANCH  20  21
HETATM   21  C   UNL     1      44.250 -19.792   4.504  1.00  0.00    -0.041 A 
HETATM   22  C   UNL     1      44.789 -21.072   4.294  1.00  0.00     0.009 A 
HETATM   23  C   UNL     1      44.787 -22.019   5.319  1.00  0.00     0.001 A 
HETATM   24  C   UNL     1      44.252 -21.696   6.564  1.00  0.00     0.000 A 
HETATM   25  C   UNL     1      43.717 -20.428   6.785  1.00  0.00     0.001 A 
HETATM   26  C   UNL     1      43.711 -19.481   5.759  1.00  0.00     0.009 A 
ENDBRANCH  20  21
ENDBRANCH  17  20
ENDBRANCH   1  16
BRANCH  13  27
HETATM   27  N   UNL     1      42.971 -13.130   6.711  1.00  0.00    -0.318 N 
HETATM   28  C   UNL     1      44.214 -13.128   7.311  1.00  0.00     0.256 C 
HETATM   29  O   UNL     1      45.216 -13.682   6.866  1.00  0.00    -0.267 OA
HETATM   30  H   UNL     1      42.229 -12.558   7.108  1.00  0.00     0.169 HD
BRANCH  28  31
HETATM   31  C   UNL     1      44.339 -12.335   8.569  1.00  0.00     0.032 A 
HETATM   32  C   UNL     1      45.421 -12.477   9.451  1.00  0.00     0.020 A 
HETATM   33  C   UNL     1      45.471 -11.711  10.620  1.00  0.00     0.043 A 
HETATM   34  C   UNL     1      44.453 -10.804  10.898  1.00  0.00     0.116 A 
HETATM   35  F   UNL     1      44.507 -10.075  12.019  1.00  0.00    -0.206 F 
HETATM   36  C   UNL     1      43.384 -10.639  10.026  1.00  0.00     0.043 A 
HETATM   37  C   UNL     1      43.328 -11.402   8.858  1.00  0.00     0.020 A 
ENDBRANCH  28  31
ENDBRANCH  13  27
TORSDOF 5
ENDMDL
MODEL 8
REMARK VINA RESULT:      -9.1      3.593      6.698
REMARK  5 active torsions:
REMARK  status: ('A' for Active; 'I' for Inactive)
REMARK    1  A    between atoms: C_4  and  C_5 
REMARK    2  A    between atoms: C_5  and  N_6 
REMARK       I    between atoms: N_6  and  C_7 
REMARK    3  A    between atoms: C_7  and  C_8 
REMARK    4  A    between atoms: C_20  and  N_21 
REMARK       I    between atoms: N_21  and  C_22 
REMARK    5  A    between atoms: C_22  and  C_23 
ROOT
HETATM    1  C   UNL     1      41.284 -12.981   4.686  1.00  0.00     0.079 A 
HETATM    2  C   UNL     1      40.286 -12.929   3.790  1.00  0.00     0.131 A 
HETATM    3  N   UNL     1      39.969 -14.068   3.041  1.00  0.00    -0.259 N 
HETATM    4  C   UNL     1      38.950 -13.706   2.132  1.00  0.00     0.071 A 
HETATM    5  C   UNL     1      38.686 -12.333   2.351  1.00  0.00     0.061 A 
HETATM    6  C   UNL     1      37.712 -11.675   1.637  1.00  0.00     0.032 A 
HETATM    7  C   UNL     1      37.029 -12.401   0.654  1.00  0.00     0.002 A 
HETATM    8  C   UNL     1      37.316 -13.763   0.420  1.00  0.00     0.002 A 
HETATM    9  C   UNL     1      38.289 -14.435   1.168  1.00  0.00     0.032 A 
HETATM   10  N   UNL     1      39.447 -11.880   3.441  1.00  0.00    -0.339 N 
HETATM   11  C   UNL     1      40.582 -15.295   3.170  1.00  0.00     0.281 A 
HETATM   12  O   UNL     1      40.320 -16.321   2.540  1.00  0.00    -0.265 OA
HETATM   13  C   UNL     1      41.698 -15.346   4.200  1.00  0.00     0.105 A 
HETATM   14  C   UNL     1      42.017 -14.223   4.864  1.00  0.00     0.056 A 
HETATM   15  H   UNL     1      39.802 -10.933   3.508  1.00  0.00     0.167 HD
ENDROOT
BRANCH   1  16
HETATM   16  C   UNL     1      41.600 -11.763   5.486  1.00  0.00     0.255 C 
HETATM   17  N   UNL     1      41.780 -12.016   6.822  1.00  0.00    -0.353 N 
HETATM   18  H   UNL     1      41.660 -12.954   7.184  1.00  0.00     0.163 HD
HETATM   19  O   UNL     1      41.663 -10.649   4.979  1.00  0.00    -0.268 OA
BRANCH  17  20
HETATM   20  C   UNL     1      42.173 -10.987   7.753  1.00  0.00     0.161 C 
BRANCH  20  21
HETATM   21  C   UNL     1      41.018 -10.617   8.644  1.00  0.00    -0.041 A 
HETATM   22  C   UNL     1      39.788 -10.225   8.089  1.00  0.00     0.009 A 
HETATM   23  C   UNL     1      38.732  -9.832   8.912  1.00  0.00     0.001 A 
HETATM   24  C   UNL     1      38.891  -9.831  10.297  1.00  0.00     0.000 A 
HETATM   25  C   UNL     1      40.106 -10.219  10.859  1.00  0.00     0.001 A 
HETATM   26  C   UNL     1      41.166 -10.607  10.037  1.00  0.00     0.009 A 
ENDBRANCH  20  21
ENDBRANCH  17  20
ENDBRANCH   1  16
BRANCH  13  27
HETATM   27  N   UNL     1      42.298 -16.584   4.359  1.00  0.00    -0.318 N 
HETATM   28  C   UNL     1      43.301 -17.144   3.593  1.00  0.00     0.256 C 
HETATM   29  O   UNL     1      43.821 -16.617   2.614  1.00  0.00    -0.267 OA
HETATM   30  H   UNL     1      42.002 -17.057   5.210  1.00  0.00     0.169 HD
BRANCH  28  31
HETATM   31  C   UNL     1      43.813 -18.471   4.044  1.00  0.00     0.032 A 
HETATM   32  C   UNL     1      43.880 -18.839   5.396  1.00  0.00     0.020 A 
HETATM   33  C   UNL     1      44.382 -20.094   5.752  1.00  0.00     0.043 A 
HETATM   34  C   UNL     1      44.803 -20.977   4.762  1.00  0.00     0.116 A 
HETATM   35  F   UNL     1      45.283 -22.178   5.110  1.00  0.00    -0.206 F 
HETATM   36  C   UNL     1      44.726 -20.635   3.418  1.00  0.00     0.043 A 
HETATM   37  C   UNL     1      44.228 -19.382   3.057  1.00  0.00     0.020 A 
ENDBRANCH  28  31
ENDBRANCH  13  27
TORSDOF 5
ENDMDL
MODEL 9
REMARK VINA RESULT:      -9.1      4.009      8.315
REMARK  5 active torsions:
REMARK  status: ('A' for Active; 'I' for Inactive)
REMARK    1  A    between atoms: C_4  and  C_5 
REMARK    2  A    between atoms: C_5  and  N_6 
REMARK       I    between atoms: N_6  and  C_7 
REMARK    3  A    between atoms: C_7  and  C_8 
REMARK    4  A    between atoms: C_20  and  N_21 
REMARK       I    between atoms: N_21  and  C_22 
REMARK    5  A    between atoms: C_22  and  C_23 
ROOT
HETATM    1  C   UNL     1      43.142 -16.138   1.922  1.00  0.00     0.079 A 
HETATM    2  C   UNL     1      42.324 -15.410   1.146  1.00  0.00     0.131 A 
HETATM    3  N   UNL     1      41.924 -14.136   1.567  1.00  0.00    -0.259 N 
HETATM    4  C   UNL     1      41.012 -13.642   0.608  1.00  0.00     0.071 A 
HETATM    5  C   UNL     1      40.873 -14.652  -0.373  1.00  0.00     0.061 A 
HETATM    6  C   UNL     1      40.067 -14.468  -1.473  1.00  0.00     0.032 A 
HETATM    7  C   UNL     1      39.355 -13.267  -1.558  1.00  0.00     0.002 A 
HETATM    8  C   UNL     1      39.475 -12.274  -0.563  1.00  0.00     0.002 A 
HETATM    9  C   UNL     1      40.316 -12.454   0.540  1.00  0.00     0.032 A 
HETATM   10  N   UNL     1      41.757 -15.705  -0.086  1.00  0.00    -0.339 N 
HETATM   11  C   UNL     1      42.338 -13.521   2.726  1.00  0.00     0.281 A 
HETATM   12  O   UNL     1      42.020 -12.398   3.121  1.00  0.00    -0.265 OA
HETATM   13  C   UNL     1      43.278 -14.348   3.588  1.00  0.00     0.105 A 
HETATM   14  C   UNL     1      43.600 -15.588   3.186  1.00  0.00     0.056 A 
HETATM   15  H   UNL     1      41.550 -16.673  -0.305  1.00  0.00     0.167 HD
ENDROOT
BRANCH   1  16
HETATM   16  C   UNL     1      43.569 -17.487   1.454  1.00  0.00     0.255 C 
HETATM   17  N   UNL     1      43.796 -18.376   2.474  1.00  0.00    -0.353 N 
HETATM   18  H   UNL     1      43.704 -18.080   3.437  1.00  0.00     0.163 HD
HETATM   19  O   UNL     1      43.721 -17.747   0.265  1.00  0.00    -0.268 OA
BRANCH  17  20
HETATM   20  C   UNL     1      44.137 -19.756   2.229  1.00  0.00     0.161 C 
BRANCH  20  21
HETATM   21  C   UNL     1      44.326 -20.487   3.532  1.00  0.00    -0.041 A 
HETATM   22  C   UNL     1      44.569 -21.870   3.544  1.00  0.00     0.009 A 
HETATM   23  C   UNL     1      44.693 -22.558   4.752  1.00  0.00     0.001 A 
HETATM   24  C   UNL     1      44.579 -21.871   5.959  1.00  0.00     0.000 A 
HETATM   25  C   UNL     1      44.340 -20.499   5.960  1.00  0.00     0.001 A 
HETATM   26  C   UNL     1      44.209 -19.809   4.753  1.00  0.00     0.009 A 
ENDBRANCH  20  21
ENDBRANCH  17  20
ENDBRANCH   1  16
BRANCH  13  27
HETATM   27  N   UNL     1      43.725 -13.724   4.740  1.00  0.00    -0.318 N 
HETATM   28  C   UNL     1      43.540 -14.126   6.048  1.00  0.00     0.256 C 
HETATM   29  O   UNL     1      42.919 -15.125   6.400  1.00  0.00    -0.267 OA
HETATM   30  H   UNL     1      44.340 -12.936   4.547  1.00  0.00     0.169 HD
BRANCH  28  31
HETATM   31  C   UNL     1      44.204 -13.294   7.095  1.00  0.00     0.032 A 
HETATM   32  C   UNL     1      43.486 -12.490   7.993  1.00  0.00     0.020 A 
HETATM   33  C   UNL     1      44.170 -11.726   8.943  1.00  0.00     0.043 A 
HETATM   34  C   UNL     1      45.560 -11.775   9.000  1.00  0.00     0.116 A 
HETATM   35  F   UNL     1      46.209 -11.041   9.912  1.00  0.00    -0.206 F 
HETATM   36  C   UNL     1      46.284 -12.581   8.130  1.00  0.00     0.043 A 
HETATM   37  C   UNL     1      45.606 -13.344   7.178  1.00  0.00     0.020 A 
ENDBRANCH  28  31
ENDBRANCH  13  27
TORSDOF 5
ENDMDL
MODEL 10
REMARK VINA RESULT:      -9.1      3.872      7.115
REMARK  5 active torsions:
REMARK  status: ('A' for Active; 'I' for Inactive)
REMARK    1  A    between atoms: C_4  and  C_5 
REMARK    2  A    between atoms: C_5  and  N_6 
REMARK       I    between atoms: N_6  and  C_7 
REMARK    3  A    between atoms: C_7  and  C_8 
REMARK    4  A    between atoms: C_20  and  N_21 
REMARK       I    between atoms: N_21  and  C_22 
REMARK    5  A    between atoms: C_22  and  C_23 
ROOT
HETATM    1  C   UNL     1      41.418 -12.525   5.013  1.00  0.00     0.079 A 
HETATM    2  C   UNL     1      41.187 -11.862   3.869  1.00  0.00     0.131 A 
HETATM    3  N   UNL     1      41.528 -12.454   2.647  1.00  0.00    -0.259 N 
HETATM    4  C   UNL     1      41.254 -11.511   1.630  1.00  0.00     0.071 A 
HETATM    5  C   UNL     1      40.760 -10.354   2.278  1.00  0.00     0.061 A 
HETATM    6  C   UNL     1      40.369  -9.249   1.558  1.00  0.00     0.032 A 
HETATM    7  C   UNL     1      40.522  -9.297   0.168  1.00  0.00     0.002 A 
HETATM    8  C   UNL     1      41.041 -10.443  -0.471  1.00  0.00     0.002 A 
HETATM    9  C   UNL     1      41.414 -11.574   0.263  1.00  0.00     0.032 A 
HETATM   10  N   UNL     1      40.632 -10.609   3.653  1.00  0.00    -0.339 N 
HETATM   11  C   UNL     1      42.062 -13.714   2.500  1.00  0.00     0.281 A 
HETATM   12  O   UNL     1      42.360 -14.272   1.442  1.00  0.00    -0.265 OA
HETATM   13  C   UNL     1      42.303 -14.461   3.802  1.00  0.00     0.105 A 
HETATM   14  C   UNL     1      42.018 -13.847   4.961  1.00  0.00     0.056 A 
HETATM   15  H   UNL     1      40.762  -9.893   4.360  1.00  0.00     0.167 HD
ENDROOT
BRANCH   1  16
HETATM   16  C   UNL     1      41.036 -11.887   6.305  1.00  0.00     0.255 C 
HETATM   17  N   UNL     1      42.110 -11.572   7.099  1.00  0.00    -0.353 N 
HETATM   18  H   UNL     1      43.049 -11.806   6.804  1.00  0.00     0.163 HD
HETATM   19  O   UNL     1      39.866 -11.697   6.617  1.00  0.00    -0.268 OA
BRANCH  17  20
HETATM   20  C   UNL     1      41.959 -10.874   8.353  1.00  0.00     0.161 C 
BRANCH  20  21
HETATM   21  C   UNL     1      43.185 -11.063   9.207  1.00  0.00    -0.041 A 
HETATM   22  C   UNL     1      43.314 -10.381  10.428  1.00  0.00     0.009 A 
HETATM   23  C   UNL     1      44.471 -10.515  11.196  1.00  0.00     0.001 A 
HETATM   24  C   UNL     1      45.508 -11.335  10.756  1.00  0.00     0.000 A 
HETATM   25  C   UNL     1      45.391 -12.018   9.547  1.00  0.00     0.001 A 
HETATM   26  C   UNL     1      44.237 -11.880   8.773  1.00  0.00     0.009 A 
ENDBRANCH  20  21
ENDBRANCH  17  20
ENDBRANCH   1  16
BRANCH  13  27
HETATM   27  N   UNL     1      42.810 -15.742   3.662  1.00  0.00    -0.318 N 
HETATM   28  C   UNL     1      42.138 -16.939   3.801  1.00  0.00     0.256 C 
HETATM   29  O   UNL     1      40.951 -17.055   4.092  1.00  0.00    -0.267 OA
HETATM   30  H   UNL     1      43.769 -15.749   3.320  1.00  0.00     0.169 HD
BRANCH  28  31
HETATM   31  C   UNL     1      42.924 -18.175   3.516  1.00  0.00     0.032 A 
HETATM   32  C   UNL     1      43.770 -18.772   4.463  1.00  0.00     0.020 A 
HETATM   33  C   UNL     1      44.488 -19.924   4.127  1.00  0.00     0.043 A 
HETATM   34  C   UNL     1      44.352 -20.479   2.858  1.00  0.00     0.116 A 
HETATM   35  F   UNL     1      45.043 -21.582   2.543  1.00  0.00    -0.206 F 
HETATM   36  C   UNL     1      43.505 -19.910   1.915  1.00  0.00     0.043 A 
HETATM   37  C   UNL     1      42.787 -18.759   2.245  1.00  0.00     0.020 A 
ENDBRANCH  28  31
ENDBRANCH  13  27
TORSDOF 5
ENDMDL
