MODEL 1
REMARK VINA RESULT:      -8.6      0.000      0.000
REMARK  2 active torsions:
REMARK  status: ('A' for Active; 'I' for Inactive)
REMARK    1  A    between atoms: N_20  and  C_21 
REMARK    2  A    between atoms: C_24  and  O_25 
ROOT
HETATM    1  C   UNL     1      38.356 -11.053   4.082  1.00  0.00     0.048 C 
HETATM    2  C   UNL     1      39.568 -11.597   4.786  1.00  0.00    -0.061 A 
HETATM    3  C   UNL     1      40.255 -12.711   4.275  1.00  0.00     0.019 A 
HETATM    4  C   UNL     1      41.405 -13.141   4.924  1.00  0.00     0.016 A 
HETATM    5  C   UNL     1      41.837 -12.477   6.078  1.00  0.00     0.044 A 
HETATM    6  N   UNL     1      42.971 -13.083   6.594  1.00  0.00    -0.324 N 
HETATM    7  C   UNL     1      43.356 -14.159   5.820  1.00  0.00     0.264 A 
HETATM    8  O   UNL     1      44.289 -14.914   6.040  1.00  0.00    -0.270 OA
HETATM    9  C   UNL     1      42.326 -14.297   4.638  1.00  0.00     0.250 A 
HETATM   10  N   UNL     1      41.602 -15.630   4.653  1.00  0.00    -0.043 N 
HETATM   11  H   UNL     1      40.785 -15.536   4.032  1.00  0.00     0.282 HD
HETATM   12  C   UNL     1      42.582 -16.620   4.078  1.00  0.00     0.204 C 
HETATM   13  C   UNL     1      41.716 -17.857   4.042  1.00  0.00     0.036 C 
HETATM   14  C   UNL     1      40.971 -17.773   5.395  1.00  0.00     0.030 C 
HETATM   15  C   UNL     1      41.076 -16.311   5.873  1.00  0.00     0.237 C 
HETATM   16  C   UNL     1      43.198 -15.868   2.919  1.00  0.00     0.126 C 
HETATM   17  C   UNL     1      43.142 -14.388   3.321  1.00  0.00     0.145 C 
HETATM   18  C   UNL     1      42.471 -13.737   2.151  1.00  0.00     0.239 C 
HETATM   19  O   UNL     1      42.445 -12.521   2.045  1.00  0.00    -0.272 OA
HETATM   20  N   UNL     1      41.931 -14.703   1.326  1.00  0.00    -0.252 N 
HETATM   21  C   UNL     1      42.373 -15.958   1.677  1.00  0.00     0.238 C 
HETATM   22  O   UNL     1      42.132 -17.048   1.179  1.00  0.00    -0.272 OA
HETATM   23  C   UNL     1      41.186 -11.385   6.606  1.00  0.00     0.031 A 
HETATM   24  C   UNL     1      40.042 -10.942   5.943  1.00  0.00     0.009 A 
HETATM   25  H   UNL     1      43.469 -12.779   7.423  1.00  0.00     0.169 HD
ENDROOT
BRANCH  20  26
HETATM   26  C   UNL     1      41.015 -14.442   0.252  1.00  0.00     0.045 A 
HETATM   27  C   UNL     1      39.661 -14.165   0.490  1.00  0.00     0.033 A 
HETATM   28  C   UNL     1      38.749 -14.009  -0.566  1.00  0.00     0.039 A 
HETATM   29  C   UNL     1      39.160 -14.119  -1.891  1.00  0.00     0.068 A 
HETATM   30  C   UNL     1      40.501 -14.358  -2.151  1.00  0.00     0.039 A 
HETATM   31  C   UNL     1      41.413 -14.513  -1.094  1.00  0.00     0.033 A 
BRANCH  29  32
HETATM   32  O   UNL     1      38.170 -13.976  -2.819  1.00  0.00    -0.356 OA
HETATM   33  C   UNL     1      37.759 -15.151  -3.511  1.00  0.00     0.210 C 
ENDBRANCH  29  32
ENDBRANCH  20  26
TORSDOF 2
ENDMDL
MODEL 2
REMARK VINA RESULT:      -8.6      2.483      5.429
REMARK  2 active torsions:
REMARK  status: ('A' for Active; 'I' for Inactive)
REMARK    1  A    between atoms: N_20  and  C_21 
REMARK    2  A    between atoms: C_24  and  O_25 
ROOT
HETATM    1  C   UNL     1      44.421 -19.636   1.777  1.00  0.00     0.048 C 
HETATM    2  C   UNL     1      44.267 -19.494   3.266  1.00  0.00    -0.061 A 
HETATM    3  C   UNL     1      43.689 -18.340   3.821  1.00  0.00     0.019 A 
HETATM    4  C   UNL     1      43.512 -18.278   5.197  1.00  0.00     0.016 A 
HETATM    5  C   UNL     1      43.931 -19.348   5.996  1.00  0.00     0.044 A 
HETATM    6  N   UNL     1      43.705 -19.074   7.335  1.00  0.00    -0.324 N 
HETATM    7  C   UNL     1      43.122 -17.833   7.498  1.00  0.00     0.264 A 
HETATM    8  O   UNL     1      42.842 -17.296   8.557  1.00  0.00    -0.270 OA
HETATM    9  C   UNL     1      42.955 -17.188   6.072  1.00  0.00     0.250 A 
HETATM   10  N   UNL     1      43.723 -15.886   5.931  1.00  0.00    -0.043 N 
HETATM   11  H   UNL     1      43.778 -15.676   4.924  1.00  0.00     0.282 HD
HETATM   12  C   UNL     1      42.882 -14.852   6.634  1.00  0.00     0.204 C 
HETATM   13  C   UNL     1      43.683 -13.609   6.328  1.00  0.00     0.036 C 
HETATM   14  C   UNL     1      45.136 -14.101   6.527  1.00  0.00     0.030 C 
HETATM   15  C   UNL     1      45.102 -15.640   6.447  1.00  0.00     0.237 C 
HETATM   16  C   UNL     1      41.474 -15.194   6.200  1.00  0.00     0.126 C 
HETATM   17  C   UNL     1      41.484 -16.709   5.949  1.00  0.00     0.145 C 
HETATM   18  C   UNL     1      40.923 -16.834   4.566  1.00  0.00     0.239 C 
HETATM   19  O   UNL     1      40.600 -17.924   4.122  1.00  0.00    -0.272 OA
HETATM   20  N   UNL     1      40.878 -15.592   3.967  1.00  0.00    -0.252 N 
HETATM   21  C   UNL     1      41.120 -14.591   4.880  1.00  0.00     0.238 C 
HETATM   22  O   UNL     1      41.147 -13.378   4.734  1.00  0.00    -0.272 OA
HETATM   23  C   UNL     1      44.503 -20.491   5.485  1.00  0.00     0.031 A 
HETATM   24  C   UNL     1      44.664 -20.560   4.102  1.00  0.00     0.009 A 
HETATM   25  H   UNL     1      43.922 -19.698   8.104  1.00  0.00     0.169 HD
ENDROOT
BRANCH  20  26
HETATM   26  C   UNL     1      40.631 -15.366   2.571  1.00  0.00     0.045 A 
HETATM   27  C   UNL     1      41.605 -15.632   1.598  1.00  0.00     0.033 A 
HETATM   28  C   UNL     1      41.395 -15.317   0.246  1.00  0.00     0.039 A 
HETATM   29  C   UNL     1      40.205 -14.732  -0.177  1.00  0.00     0.068 A 
HETATM   30  C   UNL     1      39.214 -14.492   0.762  1.00  0.00     0.039 A 
HETATM   31  C   UNL     1      39.425 -14.808   2.114  1.00  0.00     0.033 A 
BRANCH  29  32
HETATM   32  O   UNL     1      40.141 -14.449  -1.511  1.00  0.00    -0.356 OA
HETATM   33  C   UNL     1      40.857 -15.310  -2.390  1.00  0.00     0.210 C 
ENDBRANCH  29  32
ENDBRANCH  20  26
TORSDOF 2
ENDMDL
MODEL 3
REMARK VINA RESULT:      -8.4      2.436      5.768
REMARK  2 active torsions:
REMARK  status: ('A' for Active; 'I' for Inactive)
REMARK    1  A    between atoms: N_20  and  C_21 
REMARK    2  A    between atoms: C_24  and  O_25 
ROOT
HETATM    1  C   UNL     1      44.080 -13.925   6.517  1.00  0.00     0.048 C 
HETATM    2  C   UNL     1      42.871 -13.305   5.871  1.00  0.00    -0.061 A 
HETATM    3  C   UNL     1      42.404 -13.767   4.630  1.00  0.00     0.019 A 
HETATM    4  C   UNL     1      41.250 -13.206   4.100  1.00  0.00     0.016 A 
HETATM    5  C   UNL     1      40.596 -12.183   4.797  1.00  0.00     0.044 A 
HETATM    6  N   UNL     1      39.497 -11.733   4.084  1.00  0.00    -0.324 N 
HETATM    7  C   UNL     1      39.354 -12.427   2.899  1.00  0.00     0.264 A 
HETATM    8  O   UNL     1      38.507 -12.232   2.042  1.00  0.00    -0.270 OA
HETATM    9  C   UNL     1      40.530 -13.469   2.805  1.00  0.00     0.250 A 
HETATM   10  N   UNL     1      41.415 -13.235   1.594  1.00  0.00    -0.043 N 
HETATM   11  H   UNL     1      42.282 -13.769   1.748  1.00  0.00     0.282 HD
HETATM   12  C   UNL     1      40.650 -13.806   0.428  1.00  0.00     0.204 C 
HETATM   13  C   UNL     1      41.669 -13.616  -0.671  1.00  0.00     0.036 C 
HETATM   14  C   UNL     1      42.224 -12.206  -0.362  1.00  0.00     0.030 C 
HETATM   15  C   UNL     1      41.872 -11.899   1.106  1.00  0.00     0.237 C 
HETATM   16  C   UNL     1      40.089 -15.097   0.978  1.00  0.00     0.126 C 
HETATM   17  C   UNL     1      39.901 -14.850   2.482  1.00  0.00     0.145 C 
HETATM   18  C   UNL     1      40.619 -16.002   3.114  1.00  0.00     0.239 C 
HETATM   19  O   UNL     1      40.499 -16.231   4.307  1.00  0.00    -0.272 OA
HETATM   20  N   UNL     1      41.377 -16.656   2.165  1.00  0.00    -0.252 N 
HETATM   21  C   UNL     1      41.065 -16.226   0.896  1.00  0.00     0.238 C 
HETATM   22  O   UNL     1      41.505 -16.577  -0.188  1.00  0.00    -0.272 OA
HETATM   23  C   UNL     1      41.029 -11.705   6.013  1.00  0.00     0.031 A 
HETATM   24  C   UNL     1      42.178 -12.281   6.553  1.00  0.00     0.009 A 
HETATM   25  H   UNL     1      38.865 -11.000   4.386  1.00  0.00     0.169 HD
ENDROOT
BRANCH  20  26
HETATM   26  C   UNL     1      42.377 -17.646   2.457  1.00  0.00     0.045 A 
HETATM   27  C   UNL     1      42.457 -18.846   1.736  1.00  0.00     0.033 A 
HETATM   28  C   UNL     1      43.370 -19.852   2.089  1.00  0.00     0.039 A 
HETATM   29  C   UNL     1      44.234 -19.690   3.168  1.00  0.00     0.068 A 
HETATM   30  C   UNL     1      44.197 -18.497   3.874  1.00  0.00     0.039 A 
HETATM   31  C   UNL     1      43.283 -17.491   3.519  1.00  0.00     0.033 A 
BRANCH  29  32
HETATM   32  O   UNL     1      45.049 -20.754   3.423  1.00  0.00    -0.356 OA
HETATM   33  C   UNL     1      45.001 -21.305   4.735  1.00  0.00     0.210 C 
ENDBRANCH  29  32
ENDBRANCH  20  26
TORSDOF 2
ENDMDL
MODEL 4
REMARK VINA RESULT:      -8.0      2.572      5.571
REMARK  2 active torsions:
REMARK  status: ('A' for Active; 'I' for Inactive)
REMARK    1  A    between atoms: N_20  and  C_21 
REMARK    2  A    between atoms: C_24  and  O_25 
ROOT
HETATM    1  C   UNL     1      43.799 -13.975   5.903  1.00  0.00     0.048 C 
HETATM    2  C   UNL     1      42.680 -13.200   5.266  1.00  0.00    -0.061 A 
HETATM    3  C   UNL     1      42.258 -13.491   3.958  1.00  0.00     0.019 A 
HETATM    4  C   UNL     1      41.180 -12.790   3.433  1.00  0.00     0.016 A 
HETATM    5  C   UNL     1      40.559 -11.800   4.202  1.00  0.00     0.044 A 
HETATM    6  N   UNL     1      39.539 -11.194   3.487  1.00  0.00    -0.324 N 
HETATM    7  C   UNL     1      39.421 -11.746   2.226  1.00  0.00     0.264 A 
HETATM    8  O   UNL     1      38.644 -11.397   1.352  1.00  0.00    -0.270 OA
HETATM    9  C   UNL     1      40.524 -12.858   2.080  1.00  0.00     0.250 A 
HETATM   10  N   UNL     1      41.496 -12.566   0.952  1.00  0.00    -0.043 N 
HETATM   11  H   UNL     1      42.313 -13.178   1.092  1.00  0.00     0.282 HD
HETATM   12  C   UNL     1      40.766 -12.949  -0.309  1.00  0.00     0.204 C 
HETATM   13  C   UNL     1      41.860 -12.723  -1.325  1.00  0.00     0.036 C 
HETATM   14  C   UNL     1      42.494 -11.400  -0.833  1.00  0.00     0.030 C 
HETATM   15  C   UNL     1      42.074 -11.225   0.639  1.00  0.00     0.237 C 
HETATM   16  C   UNL     1      40.082 -14.245   0.065  1.00  0.00     0.126 C 
HETATM   17  C   UNL     1      39.820 -14.145   1.574  1.00  0.00     0.145 C 
HETATM   18  C   UNL     1      40.416 -15.409   2.113  1.00  0.00     0.239 C 
HETATM   19  O   UNL     1      40.207 -15.754   3.265  1.00  0.00    -0.272 OA
HETATM   20  N   UNL     1      41.183 -16.016   1.139  1.00  0.00    -0.252 N 
HETATM   21  C   UNL     1      40.980 -15.430  -0.089  1.00  0.00     0.238 C 
HETATM   22  O   UNL     1      41.459 -15.697  -1.181  1.00  0.00    -0.272 OA
HETATM   23  C   UNL     1      40.949 -11.488   5.485  1.00  0.00     0.031 A 
HETATM   24  C   UNL     1      42.019 -12.204   6.019  1.00  0.00     0.009 A 
HETATM   25  H   UNL     1      38.944 -10.451   3.834  1.00  0.00     0.169 HD
ENDROOT
BRANCH  20  26
HETATM   26  C   UNL     1      42.091 -17.104   1.373  1.00  0.00     0.045 A 
HETATM   27  C   UNL     1      41.631 -18.407   1.613  1.00  0.00     0.033 A 
HETATM   28  C   UNL     1      42.516 -19.446   1.940  1.00  0.00     0.039 A 
HETATM   29  C   UNL     1      43.886 -19.219   2.031  1.00  0.00     0.068 A 
HETATM   30  C   UNL     1      44.367 -17.947   1.764  1.00  0.00     0.039 A 
HETATM   31  C   UNL     1      43.481 -16.908   1.436  1.00  0.00     0.033 A 
BRANCH  29  32
HETATM   32  O   UNL     1      44.632 -20.306   2.386  1.00  0.00    -0.356 OA
HETATM   33  C   UNL     1      44.167 -21.579   1.948  1.00  0.00     0.210 C 
ENDBRANCH  29  32
ENDBRANCH  20  26
TORSDOF 2
ENDMDL
MODEL 5
REMARK VINA RESULT:      -8.0      2.407      7.026
REMARK  2 active torsions:
REMARK  status: ('A' for Active; 'I' for Inactive)
REMARK    1  A    between atoms: N_20  and  C_21 
REMARK    2  A    between atoms: C_24  and  O_25 
ROOT
HETATM    1  C   UNL     1      41.032 -17.112   6.511  1.00  0.00     0.048 C 
HETATM    2  C   UNL     1      41.338 -16.886   5.057  1.00  0.00    -0.061 A 
HETATM    3  C   UNL     1      41.025 -15.663   4.440  1.00  0.00     0.019 A 
HETATM    4  C   UNL     1      41.381 -15.476   3.110  1.00  0.00     0.016 A 
HETATM    5  C   UNL     1      42.014 -16.511   2.413  1.00  0.00     0.044 A 
HETATM    6  N   UNL     1      42.246 -16.143   1.098  1.00  0.00    -0.324 N 
HETATM    7  C   UNL     1      41.796 -14.860   0.854  1.00  0.00     0.264 A 
HETATM    8  O   UNL     1      41.821 -14.274  -0.216  1.00  0.00    -0.270 OA
HETATM    9  C   UNL     1      41.165 -14.308   2.186  1.00  0.00     0.250 A 
HETATM   10  N   UNL     1      39.695 -13.960   2.030  1.00  0.00    -0.043 N 
HETATM   11  H   UNL     1      39.306 -13.866   2.979  1.00  0.00     0.282 HD
HETATM   12  C   UNL     1      39.677 -12.629   1.323  1.00  0.00     0.204 C 
HETATM   13  C   UNL     1      38.193 -12.348   1.333  1.00  0.00     0.036 C 
HETATM   14  C   UNL     1      37.596 -13.733   0.989  1.00  0.00     0.030 C 
HETATM   15  C   UNL     1      38.691 -14.777   1.285  1.00  0.00     0.237 C 
HETATM   16  C   UNL     1      40.785 -11.858   2.005  1.00  0.00     0.126 C 
HETATM   17  C   UNL     1      41.798 -12.919   2.458  1.00  0.00     0.145 C 
HETATM   18  C   UNL     1      41.986 -12.617   3.913  1.00  0.00     0.239 C 
HETATM   19  O   UNL     1      42.886 -13.146   4.547  1.00  0.00    -0.272 OA
HETATM   20  N   UNL     1      41.017 -11.730   4.335  1.00  0.00    -0.252 N 
HETATM   21  C   UNL     1      40.331 -11.200   3.267  1.00  0.00     0.238 C 
HETATM   22  O   UNL     1      39.426 -10.380   3.239  1.00  0.00    -0.272 OA
HETATM   23  C   UNL     1      42.332 -17.722   2.986  1.00  0.00     0.031 A 
HETATM   24  C   UNL     1      41.991 -17.902   4.326  1.00  0.00     0.009 A 
HETATM   25  H   UNL     1      42.695 -16.723   0.399  1.00  0.00     0.169 HD
ENDROOT
BRANCH  20  26
HETATM   26  C   UNL     1      40.742 -11.412   5.708  1.00  0.00     0.045 A 
HETATM   27  C   UNL     1      39.809 -12.140   6.461  1.00  0.00     0.033 A 
HETATM   28  C   UNL     1      39.471 -11.763   7.770  1.00  0.00     0.039 A 
HETATM   29  C   UNL     1      40.057 -10.653   8.371  1.00  0.00     0.068 A 
HETATM   30  C   UNL     1      41.008  -9.938   7.658  1.00  0.00     0.039 A 
HETATM   31  C   UNL     1      41.346 -10.316   6.349  1.00  0.00     0.033 A 
BRANCH  29  32
HETATM   32  O   UNL     1      39.619 -10.378   9.634  1.00  0.00    -0.356 OA
HETATM   33  C   UNL     1      40.294 -11.025  10.707  1.00  0.00     0.210 C 
ENDBRANCH  29  32
ENDBRANCH  20  26
TORSDOF 2
ENDMDL
MODEL 6
REMARK VINA RESULT:      -7.9      2.111      4.979
REMARK  2 active torsions:
REMARK  status: ('A' for Active; 'I' for Inactive)
REMARK    1  A    between atoms: N_20  and  C_21 
REMARK    2  A    between atoms: C_24  and  O_25 
ROOT
HETATM    1  C   UNL     1      44.169 -18.195   0.660  1.00  0.00     0.048 C 
HETATM    2  C   UNL     1      43.971 -18.384   2.138  1.00  0.00    -0.061 A 
HETATM    3  C   UNL     1      43.374 -17.378   2.917  1.00  0.00     0.019 A 
HETATM    4  C   UNL     1      43.156 -17.621   4.266  1.00  0.00     0.016 A 
HETATM    5  C   UNL     1      43.554 -18.842   4.822  1.00  0.00     0.044 A 
HETATM    6  N   UNL     1      43.287 -18.869   6.181  1.00  0.00    -0.324 N 
HETATM    7  C   UNL     1      42.697 -17.692   6.596  1.00  0.00     0.264 A 
HETATM    8  O   UNL     1      42.383 -17.401   7.739  1.00  0.00    -0.270 OA
HETATM    9  C   UNL     1      42.570 -16.748   5.343  1.00  0.00     0.250 A 
HETATM   10  N   UNL     1      43.339 -15.450   5.516  1.00  0.00    -0.043 N 
HETATM   11  H   UNL     1      43.424 -15.024   4.582  1.00  0.00     0.282 HD
HETATM   12  C   UNL     1      42.475 -14.593   6.405  1.00  0.00     0.204 C 
HETATM   13  C   UNL     1      43.282 -13.317   6.404  1.00  0.00     0.036 C 
HETATM   14  C   UNL     1      44.730 -13.846   6.533  1.00  0.00     0.030 C 
HETATM   15  C   UNL     1      44.702 -15.330   6.115  1.00  0.00     0.237 C 
HETATM   16  C   UNL     1      41.082 -14.826   5.865  1.00  0.00     0.126 C 
HETATM   17  C   UNL     1      41.103 -16.248   5.286  1.00  0.00     0.145 C 
HETATM   18  C   UNL     1      40.584 -16.062   3.894  1.00  0.00     0.239 C 
HETATM   19  O   UNL     1      40.277 -17.026   3.210  1.00  0.00    -0.272 OA
HETATM   20  N   UNL     1      40.554 -14.718   3.582  1.00  0.00    -0.252 N 
HETATM   21  C   UNL     1      40.765 -13.944   4.700  1.00  0.00     0.238 C 
HETATM   22  O   UNL     1      40.794 -12.730   4.826  1.00  0.00    -0.272 OA
HETATM   23  C   UNL     1      44.143 -19.847   4.089  1.00  0.00     0.031 A 
HETATM   24  C   UNL     1      44.346 -19.610   2.729  1.00  0.00     0.009 A 
HETATM   25  H   UNL     1      43.483 -19.648   6.799  1.00  0.00     0.169 HD
ENDROOT
BRANCH  20  26
HETATM   26  C   UNL     1      40.347 -14.189   2.263  1.00  0.00     0.045 A 
HETATM   27  C   UNL     1      39.060 -14.002   1.738  1.00  0.00     0.033 A 
HETATM   28  C   UNL     1      38.864 -13.579   0.414  1.00  0.00     0.039 A 
HETATM   29  C   UNL     1      39.945 -13.325  -0.425  1.00  0.00     0.068 A 
HETATM   30  C   UNL     1      41.227 -13.470   0.083  1.00  0.00     0.039 A 
HETATM   31  C   UNL     1      41.422 -13.892   1.408  1.00  0.00     0.033 A 
BRANCH  29  32
HETATM   32  O   UNL     1      39.617 -12.951  -1.696  1.00  0.00    -0.356 OA
HETATM   33  C   UNL     1      39.192 -13.980  -2.583  1.00  0.00     0.210 C 
ENDBRANCH  29  32
ENDBRANCH  20  26
TORSDOF 2
ENDMDL
MODEL 7
REMARK VINA RESULT:      -7.7      2.513      5.714
REMARK  2 active torsions:
REMARK  status: ('A' for Active; 'I' for Inactive)
REMARK    1  A    between atoms: N_20  and  C_21 
REMARK    2  A    between atoms: C_24  and  O_25 
ROOT
HETATM    1  C   UNL     1      43.250 -13.422   6.339  1.00  0.00     0.048 C 
HETATM    2  C   UNL     1      42.171 -12.779   5.512  1.00  0.00    -0.061 A 
HETATM    3  C   UNL     1      41.877 -13.252   4.222  1.00  0.00     0.019 A 
HETATM    4  C   UNL     1      40.832 -12.667   3.520  1.00  0.00     0.016 A 
HETATM    5  C   UNL     1      40.117 -11.611   4.096  1.00  0.00     0.044 A 
HETATM    6  N   UNL     1      39.150 -11.143   3.222  1.00  0.00    -0.324 N 
HETATM    7  C   UNL     1      39.160 -11.856   2.040  1.00  0.00     0.264 A 
HETATM    8  O   UNL     1      38.456 -11.652   1.064  1.00  0.00    -0.270 OA
HETATM    9  C   UNL     1      40.302 -12.934   2.136  1.00  0.00     0.250 A 
HETATM   10  N   UNL     1      41.364 -12.751   1.066  1.00  0.00    -0.043 N 
HETATM   11  H   UNL     1      42.181 -13.307   1.355  1.00  0.00     0.282 HD
HETATM   12  C   UNL     1      40.761 -13.321  -0.191  1.00  0.00     0.204 C 
HETATM   13  C   UNL     1      41.936 -13.185  -1.131  1.00  0.00     0.036 C 
HETATM   14  C   UNL     1      42.486 -11.786  -0.764  1.00  0.00     0.030 C 
HETATM   15  C   UNL     1      41.931 -11.440   0.631  1.00  0.00     0.237 C 
HETATM   16  C   UNL     1      40.082 -14.584   0.290  1.00  0.00     0.126 C 
HETATM   17  C   UNL     1      39.683 -14.302   1.745  1.00  0.00     0.145 C 
HETATM   18  C   UNL     1      40.263 -15.462   2.494  1.00  0.00     0.239 C 
HETATM   19  O   UNL     1      39.960 -15.664   3.659  1.00  0.00    -0.272 OA
HETATM   20  N   UNL     1      41.131 -16.158   1.678  1.00  0.00    -0.252 N 
HETATM   21  C   UNL     1      41.022 -15.743   0.370  1.00  0.00     0.238 C 
HETATM   22  O   UNL     1      41.606 -16.129  -0.632  1.00  0.00    -0.272 OA
HETATM   23  C   UNL     1      40.381 -11.122   5.355  1.00  0.00     0.031 A 
HETATM   24  C   UNL     1      41.418 -11.722   6.069  1.00  0.00     0.009 A 
HETATM   25  H   UNL     1      38.505 -10.385   3.416  1.00  0.00     0.169 HD
ENDROOT
BRANCH  20  26
HETATM   26  C   UNL     1      42.043 -17.170   2.129  1.00  0.00     0.045 A 
HETATM   27  C   UNL     1      43.082 -16.879   3.025  1.00  0.00     0.033 A 
HETATM   28  C   UNL     1      44.031 -17.848   3.386  1.00  0.00     0.039 A 
HETATM   29  C   UNL     1      43.970 -19.139   2.869  1.00  0.00     0.068 A 
HETATM   30  C   UNL     1      42.930 -19.460   2.009  1.00  0.00     0.039 A 
HETATM   31  C   UNL     1      41.981 -18.489   1.649  1.00  0.00     0.033 A 
BRANCH  29  32
HETATM   32  O   UNL     1      44.969 -19.975   3.276  1.00  0.00    -0.356 OA
HETATM   33  C   UNL     1      44.710 -20.782   4.420  1.00  0.00     0.210 C 
ENDBRANCH  29  32
ENDBRANCH  20  26
TORSDOF 2
ENDMDL
MODEL 8
REMARK VINA RESULT:      -7.6      1.960      4.734
REMARK  2 active torsions:
REMARK  status: ('A' for Active; 'I' for Inactive)
REMARK    1  A    between atoms: N_20  and  C_21 
REMARK    2  A    between atoms: C_24  and  O_25 
ROOT
HETATM    1  C   UNL     1      44.447 -17.771   1.094  1.00  0.00     0.048 C 
HETATM    2  C   UNL     1      43.689 -17.657   2.387  1.00  0.00    -0.061 A 
HETATM    3  C   UNL     1      42.826 -16.572   2.620  1.00  0.00     0.019 A 
HETATM    4  C   UNL     1      42.100 -16.539   3.803  1.00  0.00     0.016 A 
HETATM    5  C   UNL     1      42.260 -17.565   4.741  1.00  0.00     0.044 A 
HETATM    6  N   UNL     1      41.484 -17.326   5.863  1.00  0.00    -0.324 N 
HETATM    7  C   UNL     1      40.768 -16.153   5.731  1.00  0.00     0.264 A 
HETATM    8  O   UNL     1      40.030 -15.655   6.567  1.00  0.00    -0.270 OA
HETATM    9  C   UNL     1      41.133 -15.518   4.338  1.00  0.00     0.250 A 
HETATM   10  N   UNL     1      41.762 -14.143   4.475  1.00  0.00    -0.043 N 
HETATM   11  H   UNL     1      42.201 -13.922   3.570  1.00  0.00     0.282 HD
HETATM   12  C   UNL     1      40.612 -13.206   4.740  1.00  0.00     0.204 C 
HETATM   13  C   UNL     1      41.344 -11.885   4.741  1.00  0.00     0.036 C 
HETATM   14  C   UNL     1      42.631 -12.226   5.529  1.00  0.00     0.030 C 
HETATM   15  C   UNL     1      42.781 -13.760   5.496  1.00  0.00     0.237 C 
HETATM   16  C   UNL     1      39.542 -13.689   3.786  1.00  0.00     0.126 C 
HETATM   17  C   UNL     1      39.800 -15.192   3.614  1.00  0.00     0.145 C 
HETATM   18  C   UNL     1      39.865 -15.364   2.127  1.00  0.00     0.239 C 
HETATM   19  O   UNL     1      39.858 -16.479   1.629  1.00  0.00    -0.272 OA
HETATM   20  N   UNL     1      39.947 -14.129   1.518  1.00  0.00    -0.252 N 
HETATM   21  C   UNL     1      39.698 -13.115   2.415  1.00  0.00     0.238 C 
HETATM   22  O   UNL     1      39.665 -11.905   2.250  1.00  0.00    -0.272 OA
HETATM   23  C   UNL     1      43.098 -18.640   4.546  1.00  0.00     0.031 A 
HETATM   24  C   UNL     1      43.814 -18.682   3.349  1.00  0.00     0.009 A 
HETATM   25  H   UNL     1      41.429 -17.930   6.675  1.00  0.00     0.169 HD
ENDROOT
BRANCH  20  26
HETATM   26  C   UNL     1      40.268 -13.920   0.134  1.00  0.00     0.045 A 
HETATM   27  C   UNL     1      41.590 -13.738  -0.296  1.00  0.00     0.033 A 
HETATM   28  C   UNL     1      41.890 -13.435  -1.634  1.00  0.00     0.039 A 
HETATM   29  C   UNL     1      40.881 -13.310  -2.584  1.00  0.00     0.068 A 
HETATM   30  C   UNL     1      39.568 -13.519  -2.189  1.00  0.00     0.039 A 
HETATM   31  C   UNL     1      39.270 -13.823  -0.850  1.00  0.00     0.033 A 
BRANCH  29  32
HETATM   32  O   UNL     1      41.304 -12.983  -3.839  1.00  0.00    -0.356 OA
HETATM   33  C   UNL     1      42.158 -11.850  -3.959  1.00  0.00     0.210 C 
ENDBRANCH  29  32
ENDBRANCH  20  26
TORSDOF 2
ENDMDL
MODEL 9
REMARK VINA RESULT:      -7.5      2.415      6.192
REMARK  2 active torsions:
REMARK  status: ('A' for Active; 'I' for Inactive)
REMARK    1  A    between atoms: N_20  and  C_21 
REMARK    2  A    between atoms: C_24  and  O_25 
ROOT
HETATM    1  C   UNL     1      41.991 -11.136   7.339  1.00  0.00     0.048 C 
HETATM    2  C   UNL     1      40.954 -11.017   6.257  1.00  0.00    -0.061 A 
HETATM    3  C   UNL     1      40.960 -11.894   5.159  1.00  0.00     0.019 A 
HETATM    4  C   UNL     1      39.947 -11.787   4.214  1.00  0.00     0.016 A 
HETATM    5  C   UNL     1      38.966 -10.800   4.363  1.00  0.00     0.044 A 
HETATM    6  N   UNL     1      38.077 -10.832   3.300  1.00  0.00    -0.324 N 
HETATM    7  C   UNL     1      38.406 -11.833   2.407  1.00  0.00     0.264 A 
HETATM    8  O   UNL     1      37.839 -12.082   1.356  1.00  0.00    -0.270 OA
HETATM    9  C   UNL     1      39.701 -12.551   2.941  1.00  0.00     0.250 A 
HETATM   10  N   UNL     1      40.863 -12.447   1.971  1.00  0.00    -0.043 N 
HETATM   11  H   UNL     1      41.715 -12.698   2.494  1.00  0.00     0.282 HD
HETATM   12  C   UNL     1      40.583 -13.474   0.905  1.00  0.00     0.204 C 
HETATM   13  C   UNL     1      41.844 -13.351   0.083  1.00  0.00     0.036 C 
HETATM   14  C   UNL     1      42.058 -11.819   0.043  1.00  0.00     0.030 C 
HETATM   15  C   UNL     1      41.236 -11.222   1.202  1.00  0.00     0.237 C 
HETATM   16  C   UNL     1      40.086 -14.666   1.693  1.00  0.00     0.126 C 
HETATM   17  C   UNL     1      39.417 -14.076   2.942  1.00  0.00     0.145 C 
HETATM   18  C   UNL     1      40.079 -14.811   4.067  1.00  0.00     0.239 C 
HETATM   19  O   UNL     1      39.641 -14.733   5.204  1.00  0.00    -0.272 OA
HETATM   20  N   UNL     1      41.179 -15.497   3.594  1.00  0.00    -0.252 N 
HETATM   21  C   UNL     1      41.201 -15.510   2.218  1.00  0.00     0.238 C 
HETATM   22  O   UNL     1      41.996 -16.024   1.447  1.00  0.00    -0.272 OA
HETATM   23  C   UNL     1      38.933  -9.924   5.424  1.00  0.00     0.031 A 
HETATM   24  C   UNL     1      39.939 -10.044   6.382  1.00  0.00     0.009 A 
HETATM   25  H   UNL     1      37.280 -10.217   3.187  1.00  0.00     0.169 HD
ENDROOT
BRANCH  20  26
HETATM   26  C   UNL     1      42.182 -16.104   4.422  1.00  0.00     0.045 A 
HETATM   27  C   UNL     1      42.348 -17.496   4.478  1.00  0.00     0.033 A 
HETATM   28  C   UNL     1      43.261 -18.089   5.363  1.00  0.00     0.039 A 
HETATM   29  C   UNL     1      44.041 -17.314   6.215  1.00  0.00     0.068 A 
HETATM   30  C   UNL     1      43.920 -15.934   6.153  1.00  0.00     0.039 A 
HETATM   31  C   UNL     1      43.006 -15.341   5.267  1.00  0.00     0.033 A 
BRANCH  29  32
HETATM   32  O   UNL     1      44.866 -18.016   7.046  1.00  0.00    -0.356 OA
HETATM   33  C   UNL     1      44.268 -18.630   8.182  1.00  0.00     0.210 C 
ENDBRANCH  29  32
ENDBRANCH  20  26
TORSDOF 2
ENDMDL
MODEL 10
REMARK VINA RESULT:      -7.5      2.914      7.615
REMARK  2 active torsions:
REMARK  status: ('A' for Active; 'I' for Inactive)
REMARK    1  A    between atoms: N_20  and  C_21 
REMARK    2  A    between atoms: C_24  and  O_25 
ROOT
HETATM    1  C   UNL     1      35.586 -10.298  -0.327  1.00  0.00     0.048 C 
HETATM    2  C   UNL     1      36.335 -11.113  -1.344  1.00  0.00    -0.061 A 
HETATM    3  C   UNL     1      37.610 -11.629  -1.053  1.00  0.00     0.019 A 
HETATM    4  C   UNL     1      38.238 -12.427  -1.999  1.00  0.00     0.016 A 
HETATM    5  C   UNL     1      37.605 -12.678  -3.222  1.00  0.00     0.044 A 
HETATM    6  N   UNL     1      38.411 -13.456  -4.038  1.00  0.00    -0.324 N 
HETATM    7  C   UNL     1      39.600 -13.768  -3.409  1.00  0.00     0.264 A 
HETATM    8  O   UNL     1      40.528 -14.402  -3.886  1.00  0.00    -0.270 OA
HETATM    9  C   UNL     1      39.589 -13.091  -1.989  1.00  0.00     0.250 A 
HETATM   10  N   UNL     1      40.721 -12.095  -1.813  1.00  0.00    -0.043 N 
HETATM   11  H   UNL     1      40.491 -11.521  -0.989  1.00  0.00     0.282 HD
HETATM   12  C   UNL     1      41.945 -12.931  -1.541  1.00  0.00     0.204 C 
HETATM   13  C   UNL     1      42.954 -11.839  -1.276  1.00  0.00     0.036 C 
HETATM   14  C   UNL     1      42.607 -10.801  -2.369  1.00  0.00     0.030 C 
HETATM   15  C   UNL     1      41.175 -11.116  -2.845  1.00  0.00     0.237 C 
HETATM   16  C   UNL     1      41.438 -13.994  -0.593  1.00  0.00     0.126 C 
HETATM   17  C   UNL     1      39.957 -14.184  -0.951  1.00  0.00     0.145 C 
HETATM   18  C   UNL     1      39.260 -14.024   0.365  1.00  0.00     0.239 C 
HETATM   19  O   UNL     1      38.080 -14.316   0.483  1.00  0.00    -0.272 OA
HETATM   20  N   UNL     1      40.137 -13.513   1.299  1.00  0.00    -0.252 N 
HETATM   21  C   UNL     1      41.431 -13.535   0.829  1.00  0.00     0.238 C 
HETATM   22  O   UNL     1      42.471 -13.186   1.366  1.00  0.00    -0.272 OA
HETATM   23  C   UNL     1      36.360 -12.187  -3.540  1.00  0.00     0.031 A 
HETATM   24  C   UNL     1      35.720 -11.401  -2.582  1.00  0.00     0.009 A 
HETATM   25  H   UNL     1      38.168 -13.771  -4.970  1.00  0.00     0.169 HD
ENDROOT
BRANCH  20  26
HETATM   26  C   UNL     1      39.756 -13.007   2.587  1.00  0.00     0.045 A 
HETATM   27  C   UNL     1      39.107 -11.772   2.731  1.00  0.00     0.033 A 
HETATM   28  C   UNL     1      38.826 -11.235   3.997  1.00  0.00     0.039 A 
HETATM   29  C   UNL     1      39.178 -11.916   5.158  1.00  0.00     0.068 A 
HETATM   30  C   UNL     1      39.789 -13.155   5.041  1.00  0.00     0.039 A 
HETATM   31  C   UNL     1      40.069 -13.691   3.774  1.00  0.00     0.033 A 
BRANCH  29  32
HETATM   32  O   UNL     1      38.876 -11.271   6.323  1.00  0.00    -0.356 OA
HETATM   33  C   UNL     1      39.471 -11.775   7.514  1.00  0.00     0.210 C 
ENDBRANCH  29  32
ENDBRANCH  20  26
TORSDOF 2
ENDMDL
