MODEL 1
REMARK VINA RESULT:     -10.9      0.000      0.000
REMARK  6 active torsions:
REMARK  status: ('A' for Active; 'I' for Inactive)
REMARK    1  A    between atoms: C_4  and  C_5 
REMARK    2  A    between atoms: C_5  and  N_6 
REMARK       I    between atoms: N_6  and  C_7 
REMARK    3  A    between atoms: C_7  and  C_8 
REMARK    4  A    between atoms: C_9  and  N_10 
REMARK    5  A    between atoms: N_11  and  N_12 
REMARK    6  A    between atoms: C_13  and  C_14 
ROOT
HETATM    1  C   UNL     1      43.695 -14.589   6.609  1.00  0.00     0.104 C 
HETATM    2  C   UNL     1      43.336 -15.800   7.190  1.00  0.00     0.123 C 
HETATM    3  N   UNL     1      42.763 -16.570   6.178  1.00  0.00    -0.202 N 
HETATM    4  C   UNL     1      42.207 -15.689   5.274  1.00  0.00     0.183 A 
HETATM    5  C   UNL     1      42.851 -14.465   5.468  1.00  0.00     0.124 A 
HETATM    6  N   UNL     1      42.647 -13.430   4.613  1.00  0.00    -0.242 NA
HETATM    7  C   UNL     1      41.735 -13.660   3.653  1.00  0.00     0.086 A 
HETATM    8  C   UNL     1      41.067 -14.907   3.507  1.00  0.00     0.088 A 
HETATM    9  N   UNL     1      41.317 -15.964   4.294  1.00  0.00    -0.225 NA
HETATM   10  C   UNL     1      41.427 -12.631   2.773  1.00  0.00     0.034 A 
HETATM   11  C   UNL     1      40.466 -12.787   1.772  1.00  0.00     0.002 A 
HETATM   12  C   UNL     1      39.800 -13.996   1.643  1.00  0.00     0.002 A 
HETATM   13  C   UNL     1      40.111 -15.045   2.508  1.00  0.00     0.034 A 
ENDROOT
BRANCH   3  14
HETATM   14  N   UNL     1      42.836 -17.939   6.042  1.00  0.00    -0.176 NA
HETATM   15  C   UNL     1      43.950 -18.301   5.485  1.00  0.00     0.153 C 
BRANCH  15  16
HETATM   16  C   UNL     1      44.265 -19.671   5.173  1.00  0.00     0.011 A 
HETATM   17  C   UNL     1      44.256 -20.249   3.863  1.00  0.00     0.004 A 
HETATM   18  C   UNL     1      44.490 -21.614   4.011  1.00  0.00     0.043 A 
HETATM   19  C   UNL     1      44.048 -19.736   2.562  1.00  0.00     0.014 A 
HETATM   20  C   UNL     1      44.505 -22.498   2.924  1.00  0.00     0.030 A 
HETATM   21  N   UNL     1      44.673 -21.850   5.355  1.00  0.00    -0.364 N 
HETATM   22  C   UNL     1      44.292 -21.966   1.649  1.00  0.00     0.002 A 
HETATM   23  C   UNL     1      44.074 -20.604   1.466  1.00  0.00     0.001 A 
HETATM   24  H   UNL     1      44.847 -22.760   5.759  1.00  0.00     0.165 HD
HETATM   25  C   UNL     1      44.559 -20.683   6.064  1.00  0.00     0.102 A 
ENDBRANCH  15  16
ENDBRANCH   3  14
BRANCH   2  26
HETATM   26  N   UNL     1      43.599 -16.319   8.431  1.00  0.00    -0.286 NA
HETATM   27  H   UNL     1      44.361 -17.000   8.483  1.00  0.00     0.125 HD
HETATM   28  H   UNL     1      43.710 -15.636   9.189  1.00  0.00     0.125 HD
ENDBRANCH   2  26
BRANCH   1  29
HETATM   29  C   UNL     1      44.738 -13.693   7.101  1.00  0.00     0.257 C 
HETATM   30  N   UNL     1      44.324 -12.969   8.202  1.00  0.00    -0.352 N 
HETATM   31  H   UNL     1      43.438 -13.258   8.593  1.00  0.00     0.163 HD
HETATM   32  O   UNL     1      45.878 -13.652   6.660  1.00  0.00    -0.267 OA
BRANCH  30  33
HETATM   33  C   UNL     1      45.232 -12.294   9.095  1.00  0.00     0.161 C 
BRANCH  33  34
HETATM   34  C   UNL     1      44.556 -11.658  10.295  1.00  0.00    -0.041 A 
HETATM   35  C   UNL     1      44.343 -10.276  10.440  1.00  0.00     0.009 A 
HETATM   36  C   UNL     1      43.699  -9.757  11.568  1.00  0.00     0.001 A 
HETATM   37  C   UNL     1      43.246 -10.613  12.567  1.00  0.00     0.000 A 
HETATM   38  C   UNL     1      43.428 -11.987  12.434  1.00  0.00     0.001 A 
HETATM   39  C   UNL     1      44.073 -12.505  11.307  1.00  0.00     0.009 A 
ENDBRANCH  33  34
ENDBRANCH  30  33
ENDBRANCH   1  29
TORSDOF 6
ENDMDL
MODEL 2
REMARK VINA RESULT:     -10.3      2.367      8.907
REMARK  6 active torsions:
REMARK  status: ('A' for Active; 'I' for Inactive)
REMARK    1  A    between atoms: C_4  and  C_5 
REMARK    2  A    between atoms: C_5  and  N_6 
REMARK       I    between atoms: N_6  and  C_7 
REMARK    3  A    between atoms: C_7  and  C_8 
REMARK    4  A    between atoms: C_9  and  N_10 
REMARK    5  A    between atoms: N_11  and  N_12 
REMARK    6  A    between atoms: C_13  and  C_14 
ROOT
HETATM    1  C   UNL     1      41.426 -15.663   4.121  1.00  0.00     0.104 C 
HETATM    2  C   UNL     1      41.593 -15.295   5.451  1.00  0.00     0.123 C 
HETATM    3  N   UNL     1      42.810 -15.837   5.862  1.00  0.00    -0.202 N 
HETATM    4  C   UNL     1      43.018 -16.970   5.103  1.00  0.00     0.183 A 
HETATM    5  C   UNL     1      42.227 -16.829   3.960  1.00  0.00     0.124 A 
HETATM    6  N   UNL     1      42.338 -17.705   2.928  1.00  0.00    -0.242 NA
HETATM    7  C   UNL     1      43.184 -18.727   3.141  1.00  0.00     0.086 A 
HETATM    8  C   UNL     1      43.945 -18.863   4.334  1.00  0.00     0.088 A 
HETATM    9  N   UNL     1      43.906 -17.963   5.329  1.00  0.00    -0.225 NA
HETATM   10  C   UNL     1      43.310 -19.698   2.156  1.00  0.00     0.034 A 
HETATM   11  C   UNL     1      44.143 -20.806   2.322  1.00  0.00     0.002 A 
HETATM   12  C   UNL     1      44.869 -20.948   3.495  1.00  0.00     0.002 A 
HETATM   13  C   UNL     1      44.767 -19.972   4.486  1.00  0.00     0.034 A 
ENDROOT
BRANCH   3  14
HETATM   14  N   UNL     1      43.693 -15.289   6.767  1.00  0.00    -0.176 NA
HETATM   15  C   UNL     1      44.199 -14.181   6.323  1.00  0.00     0.153 C 
BRANCH  15  16
HETATM   16  C   UNL     1      45.193 -13.426   7.043  1.00  0.00     0.011 A 
HETATM   17  C   UNL     1      44.955 -12.653   8.224  1.00  0.00     0.004 A 
HETATM   18  C   UNL     1      46.139 -11.983   8.526  1.00  0.00     0.043 A 
HETATM   19  C   UNL     1      43.830 -12.443   9.054  1.00  0.00     0.014 A 
HETATM   20  C   UNL     1      46.249 -11.098   9.606  1.00  0.00     0.030 A 
HETATM   21  N   UNL     1      47.071 -12.368   7.588  1.00  0.00    -0.364 N 
HETATM   22  C   UNL     1      45.121 -10.904  10.408  1.00  0.00     0.002 A 
HETATM   23  C   UNL     1      43.929 -11.571  10.143  1.00  0.00     0.001 A 
HETATM   24  H   UNL     1      48.022 -12.027   7.552  1.00  0.00     0.165 HD
HETATM   25  C   UNL     1      46.517 -13.253   6.700  1.00  0.00     0.102 A 
ENDBRANCH  15  16
ENDBRANCH   3  14
BRANCH   2  26
HETATM   26  N   UNL     1      40.879 -14.435   6.246  1.00  0.00    -0.286 NA
HETATM   27  H   UNL     1      39.860 -14.518   6.199  1.00  0.00     0.125 HD
HETATM   28  H   UNL     1      41.165 -14.392   7.230  1.00  0.00     0.125 HD
ENDBRANCH   2  26
BRANCH   1  29
HETATM   29  C   UNL     1      40.606 -14.951   3.145  1.00  0.00     0.257 C 
HETATM   30  N   UNL     1      41.071 -15.116   1.855  1.00  0.00    -0.352 N 
HETATM   31  H   UNL     1      41.803 -15.806   1.752  1.00  0.00     0.163 HD
HETATM   32  O   UNL     1      39.571 -14.355   3.415  1.00  0.00    -0.267 OA
BRANCH  30  33
HETATM   33  C   UNL     1      40.280 -14.837   0.684  1.00  0.00     0.161 C 
BRANCH  33  34
HETATM   34  C   UNL     1      41.043 -14.130  -0.421  1.00  0.00    -0.041 A 
HETATM   35  C   UNL     1      41.822 -12.976  -0.228  1.00  0.00     0.009 A 
HETATM   36  C   UNL     1      42.512 -12.383  -1.290  1.00  0.00     0.001 A 
HETATM   37  C   UNL     1      42.445 -12.940  -2.562  1.00  0.00     0.000 A 
HETATM   38  C   UNL     1      41.695 -14.095  -2.772  1.00  0.00     0.001 A 
HETATM   39  C   UNL     1      41.004 -14.686  -1.711  1.00  0.00     0.009 A 
ENDBRANCH  33  34
ENDBRANCH  30  33
ENDBRANCH   1  29
TORSDOF 6
ENDMDL
MODEL 3
REMARK VINA RESULT:     -10.2      4.075      8.904
REMARK  6 active torsions:
REMARK  status: ('A' for Active; 'I' for Inactive)
REMARK    1  A    between atoms: C_4  and  C_5 
REMARK    2  A    between atoms: C_5  and  N_6 
REMARK       I    between atoms: N_6  and  C_7 
REMARK    3  A    between atoms: C_7  and  C_8 
REMARK    4  A    between atoms: C_9  and  N_10 
REMARK    5  A    between atoms: N_11  and  N_12 
REMARK    6  A    between atoms: C_13  and  C_14 
ROOT
HETATM    1  C   UNL     1      41.084 -16.604   3.062  1.00  0.00     0.104 C 
HETATM    2  C   UNL     1      40.603 -16.782   1.769  1.00  0.00     0.123 C 
HETATM    3  N   UNL     1      40.384 -15.507   1.250  1.00  0.00    -0.202 N 
HETATM    4  C   UNL     1      40.100 -14.684   2.321  1.00  0.00     0.183 A 
HETATM    5  C   UNL     1      40.619 -15.316   3.452  1.00  0.00     0.124 A 
HETATM    6  N   UNL     1      40.652 -14.677   4.650  1.00  0.00    -0.242 NA
HETATM    7  C   UNL     1      40.079 -13.462   4.659  1.00  0.00     0.086 A 
HETATM    8  C   UNL     1      39.522 -12.862   3.496  1.00  0.00     0.088 A 
HETATM    9  N   UNL     1      39.555 -13.447   2.289  1.00  0.00    -0.225 NA
HETATM   10  C   UNL     1      40.020 -12.767   5.861  1.00  0.00     0.034 A 
HETATM   11  C   UNL     1      39.410 -11.514   5.953  1.00  0.00     0.002 A 
HETATM   12  C   UNL     1      38.849 -10.941   4.822  1.00  0.00     0.002 A 
HETATM   13  C   UNL     1      38.916 -11.617   3.604  1.00  0.00     0.034 A 
ENDROOT
BRANCH   3  14
HETATM   14  N   UNL     1      40.534 -15.114  -0.062  1.00  0.00    -0.176 NA
HETATM   15  C   UNL     1      41.465 -14.219  -0.185  1.00  0.00     0.153 C 
BRANCH  15  16
HETATM   16  C   UNL     1      41.794 -13.594  -1.440  1.00  0.00     0.011 A 
HETATM   17  C   UNL     1      42.263 -12.251  -1.602  1.00  0.00     0.004 A 
HETATM   18  C   UNL     1      42.339 -12.001  -2.970  1.00  0.00     0.043 A 
HETATM   19  C   UNL     1      42.610 -11.215  -0.705  1.00  0.00     0.014 A 
HETATM   20  C   UNL     1      42.725 -10.758  -3.488  1.00  0.00     0.030 A 
HETATM   21  N   UNL     1      41.968 -13.161  -3.614  1.00  0.00    -0.364 N 
HETATM   22  C   UNL     1      43.058  -9.749  -2.581  1.00  0.00     0.002 A 
HETATM   23  C   UNL     1      43.010  -9.973  -1.208  1.00  0.00     0.001 A 
HETATM   24  H   UNL     1      41.917 -13.267  -4.618  1.00  0.00     0.165 HD
HETATM   25  C   UNL     1      41.657 -14.134  -2.702  1.00  0.00     0.102 A 
ENDBRANCH  15  16
ENDBRANCH   3  14
BRANCH   2  26
HETATM   26  N   UNL     1      40.495 -17.906   0.993  1.00  0.00    -0.286 NA
HETATM   27  H   UNL     1      39.572 -18.090   0.589  1.00  0.00     0.125 HD
HETATM   28  H   UNL     1      41.207 -18.019   0.263  1.00  0.00     0.125 HD
ENDBRANCH   2  26
BRANCH   1  29
HETATM   29  C   UNL     1      41.904 -17.564   3.796  1.00  0.00     0.257 C 
HETATM   30  N   UNL     1      43.124 -17.780   3.185  1.00  0.00    -0.352 N 
HETATM   31  H   UNL     1      43.334 -17.153   2.420  1.00  0.00     0.163 HD
HETATM   32  O   UNL     1      41.598 -18.051   4.875  1.00  0.00    -0.267 OA
BRANCH  30  33
HETATM   33  C   UNL     1      44.251 -18.382   3.853  1.00  0.00     0.161 C 
BRANCH  33  34
HETATM   34  C   UNL     1      44.352 -19.883   3.657  1.00  0.00    -0.041 A 
HETATM   35  C   UNL     1      44.152 -20.534   2.427  1.00  0.00     0.009 A 
HETATM   36  C   UNL     1      44.276 -21.922   2.314  1.00  0.00     0.001 A 
HETATM   37  C   UNL     1      44.613 -22.684   3.428  1.00  0.00     0.000 A 
HETATM   38  C   UNL     1      44.836 -22.058   4.652  1.00  0.00     0.001 A 
HETATM   39  C   UNL     1      44.710 -20.671   4.764  1.00  0.00     0.009 A 
ENDBRANCH  33  34
ENDBRANCH  30  33
ENDBRANCH   1  29
TORSDOF 6
ENDMDL
MODEL 4
REMARK VINA RESULT:     -10.1      2.192      3.061
REMARK  6 active torsions:
REMARK  status: ('A' for Active; 'I' for Inactive)
REMARK    1  A    between atoms: C_4  and  C_5 
REMARK    2  A    between atoms: C_5  and  N_6 
REMARK       I    between atoms: N_6  and  C_7 
REMARK    3  A    between atoms: C_7  and  C_8 
REMARK    4  A    between atoms: C_9  and  N_10 
REMARK    5  A    between atoms: N_11  and  N_12 
REMARK    6  A    between atoms: C_13  and  C_14 
ROOT
HETATM    1  C   UNL     1      40.929 -12.649   5.044  1.00  0.00     0.104 C 
HETATM    2  C   UNL     1      40.576 -13.928   5.456  1.00  0.00     0.123 C 
HETATM    3  N   UNL     1      41.158 -14.812   4.549  1.00  0.00    -0.202 N 
HETATM    4  C   UNL     1      41.263 -14.139   3.348  1.00  0.00     0.183 A 
HETATM    5  C   UNL     1      41.216 -12.777   3.655  1.00  0.00     0.124 A 
HETATM    6  N   UNL     1      41.465 -11.842   2.702  1.00  0.00    -0.242 NA
HETATM    7  C   UNL     1      41.665 -12.333   1.467  1.00  0.00     0.086 A 
HETATM    8  C   UNL     1      41.666 -13.725   1.181  1.00  0.00     0.088 A 
HETATM    9  N   UNL     1      41.502 -14.663   2.126  1.00  0.00    -0.225 NA
HETATM   10  C   UNL     1      41.869 -11.438   0.424  1.00  0.00     0.034 A 
HETATM   11  C   UNL     1      42.050 -11.873  -0.889  1.00  0.00     0.002 A 
HETATM   12  C   UNL     1      42.030 -13.231  -1.170  1.00  0.00     0.002 A 
HETATM   13  C   UNL     1      41.844 -14.143  -0.132  1.00  0.00     0.034 A 
ENDROOT
BRANCH   3  14
HETATM   14  N   UNL     1      41.645 -16.072   4.820  1.00  0.00    -0.176 NA
HETATM   15  C   UNL     1      42.941 -16.081   4.856  1.00  0.00     0.153 C 
BRANCH  15  16
HETATM   16  C   UNL     1      43.713 -17.279   5.067  1.00  0.00     0.011 A 
HETATM   17  C   UNL     1      43.876 -18.341   4.121  1.00  0.00     0.004 A 
HETATM   18  C   UNL     1      44.582 -19.359   4.757  1.00  0.00     0.043 A 
HETATM   19  C   UNL     1      43.464 -18.538   2.783  1.00  0.00     0.014 A 
HETATM   20  C   UNL     1      44.882 -20.575   4.129  1.00  0.00     0.030 A 
HETATM   21  N   UNL     1      44.873 -18.915   6.028  1.00  0.00    -0.364 N 
HETATM   22  C   UNL     1      44.460 -20.747   2.808  1.00  0.00     0.002 A 
HETATM   23  C   UNL     1      43.767 -19.742   2.139  1.00  0.00     0.001 A 
HETATM   24  H   UNL     1      45.370 -19.454   6.724  1.00  0.00     0.165 HD
HETATM   25  C   UNL     1      44.371 -17.655   6.220  1.00  0.00     0.102 A 
ENDBRANCH  15  16
ENDBRANCH   3  14
BRANCH   2  26
HETATM   26  N   UNL     1      39.949 -14.370   6.593  1.00  0.00    -0.286 NA
HETATM   27  H   UNL     1      38.933 -14.482   6.533  1.00  0.00     0.125 HD
HETATM   28  H   UNL     1      40.351 -15.204   7.033  1.00  0.00     0.125 HD
ENDBRANCH   2  26
BRANCH   1  29
HETATM   29  C   UNL     1      40.993 -11.472   5.907  1.00  0.00     0.257 C 
HETATM   30  N   UNL     1      41.687 -11.721   7.075  1.00  0.00    -0.352 N 
HETATM   31  H   UNL     1      42.167 -12.610   7.104  1.00  0.00     0.163 HD
HETATM   32  O   UNL     1      40.570 -10.366   5.599  1.00  0.00    -0.267 OA
BRANCH  30  33
HETATM   33  C   UNL     1      42.207 -10.681   7.926  1.00  0.00     0.161 C 
BRANCH  33  34
HETATM   34  C   UNL     1      43.318 -11.140   8.851  1.00  0.00    -0.041 A 
HETATM   35  C   UNL     1      44.321 -12.055   8.486  1.00  0.00     0.009 A 
HETATM   36  C   UNL     1      45.325 -12.424   9.386  1.00  0.00     0.001 A 
HETATM   37  C   UNL     1      45.352 -11.877  10.664  1.00  0.00     0.000 A 
HETATM   38  C   UNL     1      44.380 -10.954  11.040  1.00  0.00     0.001 A 
HETATM   39  C   UNL     1      43.375 -10.586  10.141  1.00  0.00     0.009 A 
ENDBRANCH  33  34
ENDBRANCH  30  33
ENDBRANCH   1  29
TORSDOF 6
ENDMDL
MODEL 5
REMARK VINA RESULT:      -9.9      4.106      7.576
REMARK  6 active torsions:
REMARK  status: ('A' for Active; 'I' for Inactive)
REMARK    1  A    between atoms: C_4  and  C_5 
REMARK    2  A    between atoms: C_5  and  N_6 
REMARK       I    between atoms: N_6  and  C_7 
REMARK    3  A    between atoms: C_7  and  C_8 
REMARK    4  A    between atoms: C_9  and  N_10 
REMARK    5  A    between atoms: N_11  and  N_12 
REMARK    6  A    between atoms: C_13  and  C_14 
ROOT
HETATM    1  C   UNL     1      41.236 -15.258   0.784  1.00  0.00     0.104 C 
HETATM    2  C   UNL     1      42.216 -16.145   1.214  1.00  0.00     0.123 C 
HETATM    3  N   UNL     1      41.968 -16.385   2.565  1.00  0.00    -0.202 N 
HETATM    4  C   UNL     1      41.348 -15.257   3.063  1.00  0.00     0.183 A 
HETATM    5  C   UNL     1      40.802 -14.589   1.964  1.00  0.00     0.124 A 
HETATM    6  N   UNL     1      39.979 -13.524   2.139  1.00  0.00    -0.242 NA
HETATM    7  C   UNL     1      39.818 -13.136   3.416  1.00  0.00     0.086 A 
HETATM    8  C   UNL     1      40.422 -13.814   4.510  1.00  0.00     0.088 A 
HETATM    9  N   UNL     1      41.173 -14.916   4.359  1.00  0.00    -0.225 NA
HETATM   10  C   UNL     1      39.036 -12.017   3.674  1.00  0.00     0.034 A 
HETATM   11  C   UNL     1      38.852 -11.537   4.972  1.00  0.00     0.002 A 
HETATM   12  C   UNL     1      39.459 -12.187   6.036  1.00  0.00     0.002 A 
HETATM   13  C   UNL     1      40.233 -13.322   5.795  1.00  0.00     0.034 A 
ENDROOT
BRANCH   3  14
HETATM   14  N   UNL     1      42.188 -17.561   3.247  1.00  0.00    -0.176 NA
HETATM   15  C   UNL     1      43.385 -17.604   3.743  1.00  0.00     0.153 C 
BRANCH  15  16
HETATM   16  C   UNL     1      43.901 -18.744   4.458  1.00  0.00     0.011 A 
HETATM   17  C   UNL     1      44.166 -20.030   3.891  1.00  0.00     0.004 A 
HETATM   18  C   UNL     1      44.528 -20.878   4.936  1.00  0.00     0.043 A 
HETATM   19  C   UNL     1      44.110 -20.560   2.581  1.00  0.00     0.014 A 
HETATM   20  C   UNL     1      44.818 -22.234   4.741  1.00  0.00     0.030 A 
HETATM   21  N   UNL     1      44.522 -20.123   6.088  1.00  0.00    -0.364 N 
HETATM   22  C   UNL     1      44.750 -22.734   3.438  1.00  0.00     0.002 A 
HETATM   23  C   UNL     1      44.409 -21.909   2.369  1.00  0.00     0.001 A 
HETATM   24  H   UNL     1      44.732 -20.481   7.009  1.00  0.00     0.165 HD
HETATM   25  C   UNL     1      44.163 -18.830   5.809  1.00  0.00     0.102 A 
ENDBRANCH  15  16
ENDBRANCH   3  14
BRANCH   2  26
HETATM   26  N   UNL     1      43.167 -16.846   0.519  1.00  0.00    -0.286 NA
HETATM   27  H   UNL     1      43.678 -17.559   1.046  1.00  0.00     0.125 HD
HETATM   28  H   UNL     1      42.865 -17.246  -0.376  1.00  0.00     0.125 HD
ENDBRANCH   2  26
BRANCH   1  29
HETATM   29  C   UNL     1      40.780 -15.109  -0.595  1.00  0.00     0.257 C 
HETATM   30  N   UNL     1      39.979 -13.996  -0.761  1.00  0.00    -0.352 N 
HETATM   31  H   UNL     1      39.942 -13.376   0.036  1.00  0.00     0.163 HD
HETATM   32  O   UNL     1      41.137 -15.824  -1.522  1.00  0.00    -0.267 OA
BRANCH  30  33
HETATM   33  C   UNL     1      39.689 -13.411  -2.046  1.00  0.00     0.161 C 
BRANCH  33  34
HETATM   34  C   UNL     1      40.745 -12.436  -2.531  1.00  0.00    -0.041 A 
HETATM   35  C   UNL     1      41.224 -12.384  -3.852  1.00  0.00     0.009 A 
HETATM   36  C   UNL     1      42.191 -11.449  -4.235  1.00  0.00     0.001 A 
HETATM   37  C   UNL     1      42.688 -10.541  -3.307  1.00  0.00     0.000 A 
HETATM   38  C   UNL     1      42.214 -10.562  -1.997  1.00  0.00     0.001 A 
HETATM   39  C   UNL     1      41.249 -11.497  -1.615  1.00  0.00     0.009 A 
ENDBRANCH  33  34
ENDBRANCH  30  33
ENDBRANCH   1  29
TORSDOF 6
ENDMDL
MODEL 6
REMARK VINA RESULT:      -9.7      2.820      3.683
REMARK  6 active torsions:
REMARK  status: ('A' for Active; 'I' for Inactive)
REMARK    1  A    between atoms: C_4  and  C_5 
REMARK    2  A    between atoms: C_5  and  N_6 
REMARK       I    between atoms: N_6  and  C_7 
REMARK    3  A    between atoms: C_7  and  C_8 
REMARK    4  A    between atoms: C_9  and  N_10 
REMARK    5  A    between atoms: N_11  and  N_12 
REMARK    6  A    between atoms: C_13  and  C_14 
ROOT
HETATM    1  C   UNL     1      39.795 -13.279   4.483  1.00  0.00     0.104 C 
HETATM    2  C   UNL     1      40.335 -14.440   5.025  1.00  0.00     0.123 C 
HETATM    3  N   UNL     1      41.188 -14.969   4.057  1.00  0.00    -0.202 N 
HETATM    4  C   UNL     1      40.696 -14.570   2.831  1.00  0.00     0.183 A 
HETATM    5  C   UNL     1      39.895 -13.451   3.073  1.00  0.00     0.124 A 
HETATM    6  N   UNL     1      39.398 -12.719   2.043  1.00  0.00    -0.242 NA
HETATM    7  C   UNL     1      39.668 -13.206   0.820  1.00  0.00     0.086 A 
HETATM    8  C   UNL     1      40.453 -14.372   0.610  1.00  0.00     0.088 A 
HETATM    9  N   UNL     1      41.018 -15.060   1.614  1.00  0.00    -0.225 NA
HETATM   10  C   UNL     1      39.145 -12.546  -0.285  1.00  0.00     0.034 A 
HETATM   11  C   UNL     1      39.355 -13.013  -1.583  1.00  0.00     0.002 A 
HETATM   12  C   UNL     1      40.104 -14.162  -1.786  1.00  0.00     0.002 A 
HETATM   13  C   UNL     1      40.650 -14.827  -0.688  1.00  0.00     0.034 A 
ENDROOT
BRANCH   3  14
HETATM   14  N   UNL     1      42.361 -15.657   4.279  1.00  0.00    -0.176 NA
HETATM   15  C   UNL     1      42.183 -16.938   4.187  1.00  0.00     0.153 C 
BRANCH  15  16
HETATM   16  C   UNL     1      43.231 -17.897   4.426  1.00  0.00     0.011 A 
HETATM   17  C   UNL     1      43.539 -19.018   3.592  1.00  0.00     0.004 A 
HETATM   18  C   UNL     1      44.525 -19.759   4.239  1.00  0.00     0.043 A 
HETATM   19  C   UNL     1      43.051 -19.484   2.349  1.00  0.00     0.014 A 
HETATM   20  C   UNL     1      45.034 -20.955   3.717  1.00  0.00     0.030 A 
HETATM   21  N   UNL     1      44.833 -19.091   5.404  1.00  0.00    -0.364 N 
HETATM   22  C   UNL     1      44.532 -21.396   2.491  1.00  0.00     0.002 A 
HETATM   23  C   UNL     1      43.559 -20.670   1.810  1.00  0.00     0.001 A 
HETATM   24  H   UNL     1      45.510 -19.407   6.084  1.00  0.00     0.165 HD
HETATM   25  C   UNL     1      44.073 -17.956   5.518  1.00  0.00     0.102 A 
ENDBRANCH  15  16
ENDBRANCH   3  14
BRANCH   2  26
HETATM   26  N   UNL     1      40.267 -14.962   6.291  1.00  0.00    -0.286 NA
HETATM   27  H   UNL     1      40.660 -14.383   7.039  1.00  0.00     0.125 HD
HETATM   28  H   UNL     1      39.348 -15.309   6.585  1.00  0.00     0.125 HD
ENDBRANCH   2  26
BRANCH   1  29
HETATM   29  C   UNL     1      39.273 -12.153   5.252  1.00  0.00     0.257 C 
HETATM   30  N   UNL     1      40.050 -11.875   6.360  1.00  0.00    -0.352 N 
HETATM   31  H   UNL     1      40.926 -12.377   6.402  1.00  0.00     0.163 HD
HETATM   32  O   UNL     1      38.317 -11.468   4.913  1.00  0.00    -0.267 OA
BRANCH  30  33
HETATM   33  C   UNL     1      39.986 -10.629   7.081  1.00  0.00     0.161 C 
BRANCH  33  34
HETATM   34  C   UNL     1      40.581 -10.694   8.475  1.00  0.00    -0.041 A 
HETATM   35  C   UNL     1      39.851 -11.024   9.631  1.00  0.00     0.009 A 
HETATM   36  C   UNL     1      40.467 -11.080  10.885  1.00  0.00     0.001 A 
HETATM   37  C   UNL     1      41.827 -10.817  11.005  1.00  0.00     0.000 A 
HETATM   38  C   UNL     1      42.574 -10.507   9.871  1.00  0.00     0.001 A 
HETATM   39  C   UNL     1      41.958 -10.450   8.618  1.00  0.00     0.009 A 
ENDBRANCH  33  34
ENDBRANCH  30  33
ENDBRANCH   1  29
TORSDOF 6
ENDMDL
MODEL 7
REMARK VINA RESULT:      -9.7      2.115      3.076
REMARK  6 active torsions:
REMARK  status: ('A' for Active; 'I' for Inactive)
REMARK    1  A    between atoms: C_4  and  C_5 
REMARK    2  A    between atoms: C_5  and  N_6 
REMARK       I    between atoms: N_6  and  C_7 
REMARK    3  A    between atoms: C_7  and  C_8 
REMARK    4  A    between atoms: C_9  and  N_10 
REMARK    5  A    between atoms: N_11  and  N_12 
REMARK    6  A    between atoms: C_13  and  C_14 
ROOT
HETATM    1  C   UNL     1      41.037 -13.324   4.497  1.00  0.00     0.104 C 
HETATM    2  C   UNL     1      40.736 -14.546   5.090  1.00  0.00     0.123 C 
HETATM    3  N   UNL     1      41.167 -15.532   4.204  1.00  0.00    -0.202 N 
HETATM    4  C   UNL     1      41.097 -14.988   2.937  1.00  0.00     0.183 A 
HETATM    5  C   UNL     1      41.111 -13.601   3.103  1.00  0.00     0.124 A 
HETATM    6  N   UNL     1      41.224 -12.776   2.030  1.00  0.00    -0.242 NA
HETATM    7  C   UNL     1      41.232 -13.395   0.837  1.00  0.00     0.086 A 
HETATM    8  C   UNL     1      41.176 -14.809   0.702  1.00  0.00     0.088 A 
HETATM    9  N   UNL     1      41.145 -15.641   1.755  1.00  0.00    -0.225 NA
HETATM   10  C   UNL     1      41.287 -12.617  -0.312  1.00  0.00     0.034 A 
HETATM   11  C   UNL     1      41.264 -13.189  -1.585  1.00  0.00     0.002 A 
HETATM   12  C   UNL     1      41.188 -14.568  -1.716  1.00  0.00     0.002 A 
HETATM   13  C   UNL     1      41.150 -15.364  -0.571  1.00  0.00     0.034 A 
ENDROOT
BRANCH   3  14
HETATM   14  N   UNL     1      41.676 -16.770   4.531  1.00  0.00    -0.176 NA
HETATM   15  C   UNL     1      42.962 -16.810   4.374  1.00  0.00     0.153 C 
BRANCH  15  16
HETATM   16  C   UNL     1      43.745 -17.999   4.591  1.00  0.00     0.011 A 
HETATM   17  C   UNL     1      43.815 -19.122   3.707  1.00  0.00     0.004 A 
HETATM   18  C   UNL     1      44.572 -20.104   4.342  1.00  0.00     0.043 A 
HETATM   19  C   UNL     1      43.282 -19.403   2.428  1.00  0.00     0.014 A 
HETATM   20  C   UNL     1      44.807 -21.361   3.771  1.00  0.00     0.030 A 
HETATM   21  N   UNL     1      44.980 -19.582   5.549  1.00  0.00    -0.364 N 
HETATM   22  C   UNL     1      44.265 -21.615   2.508  1.00  0.00     0.002 A 
HETATM   23  C   UNL     1      43.519 -20.649   1.840  1.00  0.00     0.001 A 
HETATM   24  H   UNL     1      45.536 -20.079   6.231  1.00  0.00     0.165 HD
HETATM   25  C   UNL     1      44.504 -18.306   5.702  1.00  0.00     0.102 A 
ENDBRANCH  15  16
ENDBRANCH   3  14
BRANCH   2  26
HETATM   26  N   UNL     1      40.282 -14.852   6.346  1.00  0.00    -0.286 NA
HETATM   27  H   UNL     1      40.984 -14.855   7.092  1.00  0.00     0.125 HD
HETATM   28  H   UNL     1      39.458 -14.331   6.666  1.00  0.00     0.125 HD
ENDBRANCH   2  26
BRANCH   1  29
HETATM   29  C   UNL     1      41.241 -12.068   5.213  1.00  0.00     0.257 C 
HETATM   30  N   UNL     1      41.238 -12.243   6.583  1.00  0.00    -0.352 N 
HETATM   31  H   UNL     1      41.244 -13.207   6.889  1.00  0.00     0.163 HD
HETATM   32  O   UNL     1      41.483 -10.997   4.673  1.00  0.00    -0.267 OA
BRANCH  30  33
HETATM   33  C   UNL     1      41.761 -11.271   7.509  1.00  0.00     0.161 C 
BRANCH  33  34
HETATM   34  C   UNL     1      43.117 -11.635   8.084  1.00  0.00    -0.041 A 
HETATM   35  C   UNL     1      43.692 -11.013   9.206  1.00  0.00     0.009 A 
HETATM   36  C   UNL     1      44.941 -11.410   9.693  1.00  0.00     0.001 A 
HETATM   37  C   UNL     1      45.634 -12.443   9.073  1.00  0.00     0.000 A 
HETATM   38  C   UNL     1      45.075 -13.087   7.971  1.00  0.00     0.001 A 
HETATM   39  C   UNL     1      43.827 -12.690   7.485  1.00  0.00     0.009 A 
ENDBRANCH  33  34
ENDBRANCH  30  33
ENDBRANCH   1  29
TORSDOF 6
ENDMDL
MODEL 8
REMARK VINA RESULT:      -9.6      3.911      7.396
REMARK  6 active torsions:
REMARK  status: ('A' for Active; 'I' for Inactive)
REMARK    1  A    between atoms: C_4  and  C_5 
REMARK    2  A    between atoms: C_5  and  N_6 
REMARK       I    between atoms: N_6  and  C_7 
REMARK    3  A    between atoms: C_7  and  C_8 
REMARK    4  A    between atoms: C_9  and  N_10 
REMARK    5  A    between atoms: N_11  and  N_12 
REMARK    6  A    between atoms: C_13  and  C_14 
ROOT
HETATM    1  C   UNL     1      41.034 -14.938   0.902  1.00  0.00     0.104 C 
HETATM    2  C   UNL     1      42.041 -15.843   1.219  1.00  0.00     0.123 C 
HETATM    3  N   UNL     1      41.915 -16.113   2.581  1.00  0.00    -0.202 N 
HETATM    4  C   UNL     1      41.357 -14.992   3.160  1.00  0.00     0.183 A 
HETATM    5  C   UNL     1      40.718 -14.294   2.133  1.00  0.00     0.124 A 
HETATM    6  N   UNL     1      39.926 -13.227   2.407  1.00  0.00    -0.242 NA
HETATM    7  C   UNL     1      39.888 -12.868   3.702  1.00  0.00     0.086 A 
HETATM    8  C   UNL     1      40.583 -13.577   4.719  1.00  0.00     0.088 A 
HETATM    9  N   UNL     1      41.305 -14.681   4.475  1.00  0.00    -0.225 NA
HETATM   10  C   UNL     1      39.145 -11.749   4.057  1.00  0.00     0.034 A 
HETATM   11  C   UNL     1      39.087 -11.298   5.377  1.00  0.00     0.002 A 
HETATM   12  C   UNL     1      39.783 -11.978   6.365  1.00  0.00     0.002 A 
HETATM   13  C   UNL     1      40.519 -13.113   6.028  1.00  0.00     0.034 A 
ENDROOT
BRANCH   3  14
HETATM   14  N   UNL     1      42.186 -17.307   3.213  1.00  0.00    -0.176 NA
HETATM   15  C   UNL     1      43.425 -17.375   3.589  1.00  0.00     0.153 C 
BRANCH  15  16
HETATM   16  C   UNL     1      43.992 -18.536   4.225  1.00  0.00     0.011 A 
HETATM   17  C   UNL     1      44.142 -19.825   3.622  1.00  0.00     0.004 A 
HETATM   18  C   UNL     1      44.609 -20.692   4.607  1.00  0.00     0.043 A 
HETATM   19  C   UNL     1      43.900 -20.341   2.328  1.00  0.00     0.014 A 
HETATM   20  C   UNL     1      44.828 -22.055   4.369  1.00  0.00     0.030 A 
HETATM   21  N   UNL     1      44.775 -19.948   5.755  1.00  0.00    -0.364 N 
HETATM   22  C   UNL     1      44.577 -22.541   3.083  1.00  0.00     0.002 A 
HETATM   23  C   UNL     1      44.126 -21.697   2.072  1.00  0.00     0.001 A 
HETATM   24  H   UNL     1      45.092 -20.321   6.638  1.00  0.00     0.165 HD
HETATM   25  C   UNL     1      44.425 -18.642   5.531  1.00  0.00     0.102 A 
ENDBRANCH  15  16
ENDBRANCH   3  14
BRANCH   2  26
HETATM   26  N   UNL     1      42.915 -16.536   0.423  1.00  0.00    -0.286 NA
HETATM   27  H   UNL     1      43.633 -15.979  -0.051  1.00  0.00     0.125 HD
HETATM   28  H   UNL     1      43.358 -17.357   0.850  1.00  0.00     0.125 HD
ENDBRANCH   2  26
BRANCH   1  29
HETATM   29  C   UNL     1      40.454 -14.753  -0.425  1.00  0.00     0.257 C 
HETATM   30  N   UNL     1      39.103 -14.472  -0.368  1.00  0.00    -0.352 N 
HETATM   31  H   UNL     1      38.744 -14.293   0.560  1.00  0.00     0.163 HD
HETATM   32  O   UNL     1      41.097 -14.748  -1.466  1.00  0.00    -0.267 OA
BRANCH  30  33
HETATM   33  C   UNL     1      38.363 -13.902  -1.465  1.00  0.00     0.161 C 
BRANCH  33  34
HETATM   34  C   UNL     1      37.630 -12.621  -1.114  1.00  0.00    -0.041 A 
HETATM   35  C   UNL     1      37.341 -11.599  -2.035  1.00  0.00     0.009 A 
HETATM   36  C   UNL     1      36.647 -10.449  -1.645  1.00  0.00     0.001 A 
HETATM   37  C   UNL     1      36.219 -10.305  -0.329  1.00  0.00     0.000 A 
HETATM   38  C   UNL     1      36.477 -11.315   0.595  1.00  0.00     0.001 A 
HETATM   39  C   UNL     1      37.172 -12.463   0.206  1.00  0.00     0.009 A 
ENDBRANCH  33  34
ENDBRANCH  30  33
ENDBRANCH   1  29
TORSDOF 6
ENDMDL
MODEL 9
REMARK VINA RESULT:      -9.6      2.695      3.721
REMARK  6 active torsions:
REMARK  status: ('A' for Active; 'I' for Inactive)
REMARK    1  A    between atoms: C_4  and  C_5 
REMARK    2  A    between atoms: C_5  and  N_6 
REMARK       I    between atoms: N_6  and  C_7 
REMARK    3  A    between atoms: C_7  and  C_8 
REMARK    4  A    between atoms: C_9  and  N_10 
REMARK    5  A    between atoms: N_11  and  N_12 
REMARK    6  A    between atoms: C_13  and  C_14 
ROOT
HETATM    1  C   UNL     1      40.102 -12.917   5.441  1.00  0.00     0.104 C 
HETATM    2  C   UNL     1      40.599 -14.216   5.449  1.00  0.00     0.123 C 
HETATM    3  N   UNL     1      40.784 -14.577   4.115  1.00  0.00    -0.202 N 
HETATM    4  C   UNL     1      39.863 -13.860   3.377  1.00  0.00     0.183 A 
HETATM    5  C   UNL     1      39.498 -12.763   4.160  1.00  0.00     0.124 A 
HETATM    6  N   UNL     1      38.729 -11.769   3.647  1.00  0.00    -0.242 NA
HETATM    7  C   UNL     1      38.298 -11.978   2.391  1.00  0.00     0.086 A 
HETATM    8  C   UNL     1      38.656 -13.127   1.634  1.00  0.00     0.088 A 
HETATM    9  N   UNL     1      39.480 -14.078   2.099  1.00  0.00    -0.225 NA
HETATM   10  C   UNL     1      37.459 -11.034   1.813  1.00  0.00     0.034 A 
HETATM   11  C   UNL     1      36.946 -11.201   0.526  1.00  0.00     0.002 A 
HETATM   12  C   UNL     1      37.278 -12.333  -0.203  1.00  0.00     0.002 A 
HETATM   13  C   UNL     1      38.134 -13.281   0.356  1.00  0.00     0.034 A 
ENDROOT
BRANCH   3  14
HETATM   14  N   UNL     1      41.768 -15.398   3.611  1.00  0.00    -0.176 NA
HETATM   15  C   UNL     1      41.353 -16.622   3.500  1.00  0.00     0.153 C 
BRANCH  15  16
HETATM   16  C   UNL     1      42.196 -17.701   3.051  1.00  0.00     0.011 A 
HETATM   17  C   UNL     1      42.981 -18.549   3.895  1.00  0.00     0.004 A 
HETATM   18  C   UNL     1      43.741 -19.370   3.066  1.00  0.00     0.043 A 
HETATM   19  C   UNL     1      43.131 -18.678   5.295  1.00  0.00     0.014 A 
HETATM   20  C   UNL     1      44.660 -20.302   3.565  1.00  0.00     0.030 A 
HETATM   21  N   UNL     1      43.400 -19.060   1.768  1.00  0.00    -0.364 N 
HETATM   22  C   UNL     1      44.794 -20.407   4.952  1.00  0.00     0.002 A 
HETATM   23  C   UNL     1      44.036 -19.613   5.808  1.00  0.00     0.001 A 
HETATM   24  H   UNL     1      43.807 -19.492   0.949  1.00  0.00     0.165 HD
HETATM   25  C   UNL     1      42.455 -18.068   1.747  1.00  0.00     0.102 A 
ENDBRANCH  15  16
ENDBRANCH   3  14
BRANCH   2  26
HETATM   26  N   UNL     1      41.030 -15.011   6.478  1.00  0.00    -0.286 NA
HETATM   27  H   UNL     1      40.502 -15.875   6.634  1.00  0.00     0.125 HD
HETATM   28  H   UNL     1      42.033 -15.227   6.490  1.00  0.00     0.125 HD
ENDBRANCH   2  26
BRANCH   1  29
HETATM   29  C   UNL     1      40.225 -11.961   6.538  1.00  0.00     0.257 C 
HETATM   30  N   UNL     1      41.537 -11.789   6.933  1.00  0.00    -0.352 N 
HETATM   31  H   UNL     1      42.223 -12.221   6.330  1.00  0.00     0.163 HD
HETATM   32  O   UNL     1      39.294 -11.311   6.995  1.00  0.00    -0.267 OA
BRANCH  30  33
HETATM   33  C   UNL     1      41.987 -10.671   7.723  1.00  0.00     0.161 C 
BRANCH  33  34
HETATM   34  C   UNL     1      42.824 -11.065   8.925  1.00  0.00    -0.041 A 
HETATM   35  C   UNL     1      42.465 -10.800  10.259  1.00  0.00     0.009 A 
HETATM   36  C   UNL     1      43.278 -11.205  11.322  1.00  0.00     0.001 A 
HETATM   37  C   UNL     1      44.460 -11.894  11.072  1.00  0.00     0.000 A 
HETATM   38  C   UNL     1      44.826 -12.185   9.760  1.00  0.00     0.001 A 
HETATM   39  C   UNL     1      44.014 -11.778   8.698  1.00  0.00     0.009 A 
ENDBRANCH  33  34
ENDBRANCH  30  33
ENDBRANCH   1  29
TORSDOF 6
ENDMDL
MODEL 10
REMARK VINA RESULT:      -9.4      3.505      8.205
REMARK  6 active torsions:
REMARK  status: ('A' for Active; 'I' for Inactive)
REMARK    1  A    between atoms: C_4  and  C_5 
REMARK    2  A    between atoms: C_5  and  N_6 
REMARK       I    between atoms: N_6  and  C_7 
REMARK    3  A    between atoms: C_7  and  C_8 
REMARK    4  A    between atoms: C_9  and  N_10 
REMARK    5  A    between atoms: N_11  and  N_12 
REMARK    6  A    between atoms: C_13  and  C_14 
ROOT
HETATM    1  C   UNL     1      40.349 -13.724   1.862  1.00  0.00     0.104 C 
HETATM    2  C   UNL     1      41.585 -14.232   1.481  1.00  0.00     0.123 C 
HETATM    3  N   UNL     1      42.310 -14.431   2.656  1.00  0.00    -0.202 N 
HETATM    4  C   UNL     1      41.844 -13.511   3.572  1.00  0.00     0.183 A 
HETATM    5  C   UNL     1      40.572 -13.130   3.137  1.00  0.00     0.124 A 
HETATM    6  N   UNL     1      39.775 -12.357   3.917  1.00  0.00    -0.242 NA
HETATM    7  C   UNL     1      40.338 -11.938   5.063  1.00  0.00     0.086 A 
HETATM    8  C   UNL     1      41.651 -12.313   5.459  1.00  0.00     0.088 A 
HETATM    9  N   UNL     1      42.421 -13.141   4.737  1.00  0.00    -0.225 NA
HETATM   10  C   UNL     1      39.607 -11.095   5.891  1.00  0.00     0.034 A 
HETATM   11  C   UNL     1      40.140 -10.595   7.080  1.00  0.00     0.002 A 
HETATM   12  C   UNL     1      41.428 -10.944   7.454  1.00  0.00     0.002 A 
HETATM   13  C   UNL     1      42.169 -11.803   6.643  1.00  0.00     0.034 A 
ENDROOT
BRANCH   3  14
HETATM   14  N   UNL     1      43.230 -15.428   2.898  1.00  0.00    -0.176 NA
HETATM   15  C   UNL     1      42.754 -16.326   3.703  1.00  0.00     0.153 C 
BRANCH  15  16
HETATM   16  C   UNL     1      43.524 -17.452   4.168  1.00  0.00     0.011 A 
HETATM   17  C   UNL     1      43.709 -18.682   3.461  1.00  0.00     0.004 A 
HETATM   18  C   UNL     1      44.403 -19.546   4.305  1.00  0.00     0.043 A 
HETATM   19  C   UNL     1      43.328 -19.149   2.182  1.00  0.00     0.014 A 
HETATM   20  C   UNL     1      44.718 -20.861   3.943  1.00  0.00     0.030 A 
HETATM   21  N   UNL     1      44.665 -18.852   5.466  1.00  0.00    -0.364 N 
HETATM   22  C   UNL     1      44.327 -21.300   2.676  1.00  0.00     0.002 A 
HETATM   23  C   UNL     1      43.648 -20.456   1.802  1.00  0.00     0.001 A 
HETATM   24  H   UNL     1      45.146 -19.236   6.267  1.00  0.00     0.165 HD
HETATM   25  C   UNL     1      44.156 -17.582   5.388  1.00  0.00     0.102 A 
ENDBRANCH  15  16
ENDBRANCH   3  14
BRANCH   2  26
HETATM   26  N   UNL     1      42.049 -14.662   0.265  1.00  0.00    -0.286 NA
HETATM   27  H   UNL     1      42.986 -14.343   0.001  1.00  0.00     0.125 HD
HETATM   28  H   UNL     1      41.977 -15.669   0.087  1.00  0.00     0.125 HD
ENDBRANCH   2  26
BRANCH   1  29
HETATM   29  C   UNL     1      39.118 -13.829   1.083  1.00  0.00     0.257 C 
HETATM   30  N   UNL     1      39.112 -12.969   0.002  1.00  0.00    -0.352 N 
HETATM   31  H   UNL     1      39.993 -12.508  -0.181  1.00  0.00     0.163 HD
HETATM   32  O   UNL     1      38.232 -14.646   1.296  1.00  0.00    -0.267 OA
BRANCH  30  33
HETATM   33  C   UNL     1      38.213 -13.107  -1.117  1.00  0.00     0.161 C 
BRANCH  33  34
HETATM   34  C   UNL     1      38.659 -14.132  -2.142  1.00  0.00    -0.041 A 
HETATM   35  C   UNL     1      39.976 -14.613  -2.256  1.00  0.00     0.009 A 
HETATM   36  C   UNL     1      40.315 -15.571  -3.217  1.00  0.00     0.001 A 
HETATM   37  C   UNL     1      39.342 -16.074  -4.074  1.00  0.00     0.000 A 
HETATM   38  C   UNL     1      38.028 -15.626  -3.965  1.00  0.00     0.001 A 
HETATM   39  C   UNL     1      37.689 -14.668  -3.006  1.00  0.00     0.009 A 
ENDBRANCH  33  34
ENDBRANCH  30  33
ENDBRANCH   1  29
TORSDOF 6
ENDMDL
