MODEL 1
REMARK VINA RESULT:      -9.2      0.000      0.000
REMARK  7 active torsions:
REMARK  status: ('A' for Active; 'I' for Inactive)
REMARK    1  A    between atoms: C_8  and  C_9 
REMARK    2  A    between atoms: C_9  and  C_10 
REMARK    3  A    between atoms: C_10  and  N_11 
REMARK       I    between atoms: N_11  and  C_12 
REMARK    4  A    between atoms: C_12  and  C_13 
REMARK    5  A    between atoms: C_13  and  C_14 
REMARK    6  A    between atoms: C_14  and  C_15 
REMARK    7  A    between atoms: C_15  and  N_16 
ROOT
HETATM    1  C   UNL     1      41.027 -15.627  -0.703  1.00  0.00     0.104 C 
ENDROOT
BRANCH   1   2
HETATM    2  C   UNL     1      41.597 -16.658   0.247  1.00  0.00     0.217 C 
HETATM    3  N   UNL     1      42.964 -16.619   0.388  1.00  0.00    -0.361 N 
HETATM    4  H   UNL     1      43.509 -16.181  -0.346  1.00  0.00     0.162 HD
HETATM    5  O   UNL     1      40.874 -17.423   0.879  1.00  0.00    -0.274 OA
BRANCH   3   6
HETATM    6  C   UNL     1      43.647 -17.586   1.232  1.00  0.00     0.127 C 
BRANCH   6   7
HETATM    7  C   UNL     1      43.513 -17.275   2.724  1.00  0.00     0.060 C 
BRANCH   7   8
HETATM    8  C   UNL     1      43.985 -18.396   3.599  1.00  0.00    -0.029 A 
HETATM    9  C   UNL     1      44.127 -19.775   3.238  1.00  0.00    -0.002 A 
HETATM   10  C   UNL     1      43.910 -20.509   2.054  1.00  0.00     0.014 A 
HETATM   11  C   UNL     1      44.575 -20.458   4.370  1.00  0.00     0.042 A 
HETATM   12  C   UNL     1      44.134 -21.891   2.047  1.00  0.00     0.001 A 
HETATM   13  C   UNL     1      44.579 -22.543   3.195  1.00  0.00     0.002 A 
HETATM   14  C   UNL     1      44.811 -21.838   4.379  1.00  0.00     0.030 A 
HETATM   15  N   UNL     1      44.717 -19.531   5.374  1.00  0.00    -0.365 N 
HETATM   16  H   UNL     1      45.036 -19.743   6.309  1.00  0.00     0.165 HD
HETATM   17  C   UNL     1      44.364 -18.288   4.924  1.00  0.00     0.096 A 
ENDBRANCH   7   8
ENDBRANCH   6   7
ENDBRANCH   3   6
ENDBRANCH   1   2
BRANCH   1  18
HETATM   18  C   UNL     1      41.711 -14.267  -0.604  1.00  0.00     0.029 C 
BRANCH  18  19
HETATM   19  C   UNL     1      40.913 -13.337   0.315  1.00  0.00     0.135 C 
BRANCH  19  20
HETATM   20  N   UNL     1      40.774 -13.876   1.675  1.00  0.00    -0.290 N 
HETATM   21  C   UNL     1      39.571 -14.413   2.134  1.00  0.00     0.181 A 
HETATM   22  S   UNL     1      38.121 -14.512   1.296  1.00  0.00    -0.040 SA
HETATM   23  N   UNL     1      39.565 -14.923   3.404  1.00  0.00    -0.332 N 
HETATM   24  C   UNL     1      40.674 -14.939   4.245  1.00  0.00     0.050 A 
HETATM   25  H   UNL     1      38.688 -15.324   3.720  1.00  0.00     0.168 HD
HETATM   26  C   UNL     1      41.869 -14.378   3.818  1.00  0.00     0.060 A 
HETATM   27  C   UNL     1      40.579 -15.519   5.510  1.00  0.00     0.032 A 
HETATM   28  C   UNL     1      41.927 -13.783   2.470  1.00  0.00     0.262 A 
HETATM   29  C   UNL     1      42.993 -14.389   4.651  1.00  0.00     0.038 A 
HETATM   30  O   UNL     1      42.970 -13.241   2.110  1.00  0.00    -0.267 OA
HETATM   31  C   UNL     1      42.899 -14.973   5.912  1.00  0.00     0.012 A 
HETATM   32  C   UNL     1      41.698 -15.538   6.346  1.00  0.00     0.021 A 
HETATM   33 BR   UNL     1      44.412 -15.005   7.046  1.00  0.00    -0.051 Br
ENDBRANCH  19  20
ENDBRANCH  18  19
ENDBRANCH   1  18
TORSDOF 7
ENDMDL
MODEL 2
REMARK VINA RESULT:      -9.2      5.950      9.909
REMARK  7 active torsions:
REMARK  status: ('A' for Active; 'I' for Inactive)
REMARK    1  A    between atoms: C_8  and  C_9 
REMARK    2  A    between atoms: C_9  and  C_10 
REMARK    3  A    between atoms: C_10  and  N_11 
REMARK       I    between atoms: N_11  and  C_12 
REMARK    4  A    between atoms: C_12  and  C_13 
REMARK    5  A    between atoms: C_13  and  C_14 
REMARK    6  A    between atoms: C_14  and  C_15 
REMARK    7  A    between atoms: C_15  and  N_16 
ROOT
HETATM    1  C   UNL     1      44.574 -13.638   6.946  1.00  0.00     0.104 C 
ENDROOT
BRANCH   1   2
HETATM    2  C   UNL     1      45.186 -12.981   8.164  1.00  0.00     0.217 C 
HETATM    3  N   UNL     1      44.333 -12.837   9.233  1.00  0.00    -0.361 N 
HETATM    4  H   UNL     1      43.335 -12.854   9.054  1.00  0.00     0.162 HD
HETATM    5  O   UNL     1      46.371 -12.660   8.198  1.00  0.00    -0.274 OA
BRANCH   3   6
HETATM    6  C   UNL     1      44.777 -12.177  10.449  1.00  0.00     0.127 C 
BRANCH   6   7
HETATM    7  C   UNL     1      44.567 -10.662  10.417  1.00  0.00     0.060 C 
BRANCH   7   8
HETATM    8  C   UNL     1      43.194 -10.253  10.857  1.00  0.00    -0.029 A 
HETATM    9  C   UNL     1      42.794  -9.833  12.167  1.00  0.00    -0.002 A 
HETATM   10  C   UNL     1      43.470  -9.655  13.392  1.00  0.00     0.014 A 
HETATM   11  C   UNL     1      41.425  -9.571  12.121  1.00  0.00     0.042 A 
HETATM   12  C   UNL     1      42.755  -9.239  14.521  1.00  0.00     0.001 A 
HETATM   13  C   UNL     1      41.387  -8.989  14.442  1.00  0.00     0.002 A 
HETATM   14  C   UNL     1      40.694  -9.148  13.239  1.00  0.00     0.030 A 
HETATM   15  N   UNL     1      41.009  -9.805  10.832  1.00  0.00    -0.365 N 
HETATM   16  H   UNL     1      40.060  -9.689  10.506  1.00  0.00     0.165 HD
HETATM   17  C   UNL     1      42.063 -10.218  10.063  1.00  0.00     0.096 A 
ENDBRANCH   7   8
ENDBRANCH   6   7
ENDBRANCH   3   6
ENDBRANCH   1   2
BRANCH   1  18
HETATM   18  C   UNL     1      44.269 -15.120   7.146  1.00  0.00     0.029 C 
BRANCH  18  19
HETATM   19  C   UNL     1      42.918 -15.473   6.516  1.00  0.00     0.135 C 
BRANCH  19  20
HETATM   20  N   UNL     1      43.057 -16.014   5.156  1.00  0.00    -0.290 N 
HETATM   21  C   UNL     1      43.005 -15.193   4.030  1.00  0.00     0.181 A 
HETATM   22  S   UNL     1      42.754 -13.534   3.996  1.00  0.00    -0.040 SA
HETATM   23  N   UNL     1      43.186 -15.797   2.815  1.00  0.00    -0.332 N 
HETATM   24  C   UNL     1      43.417 -17.159   2.646  1.00  0.00     0.050 A 
HETATM   25  H   UNL     1      43.161 -15.187   2.005  1.00  0.00     0.168 HD
HETATM   26  C   UNL     1      43.437 -17.995   3.753  1.00  0.00     0.060 A 
HETATM   27  C   UNL     1      43.630 -17.675   1.368  1.00  0.00     0.032 A 
HETATM   28  C   UNL     1      43.215 -17.406   5.086  1.00  0.00     0.262 A 
HETATM   29  C   UNL     1      43.671 -19.366   3.599  1.00  0.00     0.038 A 
HETATM   30  O   UNL     1      43.182 -18.154   6.062  1.00  0.00    -0.267 OA
HETATM   31  C   UNL     1      43.888 -19.880   2.323  1.00  0.00     0.012 A 
HETATM   32  C   UNL     1      43.869 -19.042   1.206  1.00  0.00     0.021 A 
HETATM   33 BR   UNL     1      44.216 -21.729   2.100  1.00  0.00    -0.051 Br
ENDBRANCH  19  20
ENDBRANCH  18  19
ENDBRANCH   1  18
TORSDOF 7
ENDMDL
MODEL 3
REMARK VINA RESULT:      -9.0      5.679      9.504
REMARK  7 active torsions:
REMARK  status: ('A' for Active; 'I' for Inactive)
REMARK    1  A    between atoms: C_8  and  C_9 
REMARK    2  A    between atoms: C_9  and  C_10 
REMARK    3  A    between atoms: C_10  and  N_11 
REMARK       I    between atoms: N_11  and  C_12 
REMARK    4  A    between atoms: C_12  and  C_13 
REMARK    5  A    between atoms: C_13  and  C_14 
REMARK    6  A    between atoms: C_14  and  C_15 
REMARK    7  A    between atoms: C_15  and  N_16 
ROOT
HETATM    1  C   UNL     1      43.141 -13.603   6.348  1.00  0.00     0.104 C 
ENDROOT
BRANCH   1   2
HETATM    2  C   UNL     1      44.438 -13.428   7.108  1.00  0.00     0.217 C 
HETATM    3  N   UNL     1      44.366 -12.573   8.182  1.00  0.00    -0.361 N 
HETATM    4  H   UNL     1      43.615 -11.893   8.203  1.00  0.00     0.162 HD
HETATM    5  O   UNL     1      45.450 -14.055   6.810  1.00  0.00    -0.274 OA
BRANCH   3   6
HETATM    6  C   UNL     1      45.551 -12.276   8.970  1.00  0.00     0.127 C 
BRANCH   6   7
HETATM    7  C   UNL     1      45.351 -11.102   9.930  1.00  0.00     0.060 C 
BRANCH   7   8
HETATM    8  C   UNL     1      44.401 -11.415  11.046  1.00  0.00    -0.029 A 
HETATM    9  C   UNL     1      43.573 -10.491  11.763  1.00  0.00    -0.002 A 
HETATM   10  C   UNL     1      43.359  -9.099  11.689  1.00  0.00     0.014 A 
HETATM   11  C   UNL     1      42.872 -11.220  12.725  1.00  0.00     0.042 A 
HETATM   12  C   UNL     1      42.469  -8.489  12.580  1.00  0.00     0.001 A 
HETATM   13  C   UNL     1      41.786  -9.245  13.530  1.00  0.00     0.002 A 
HETATM   14  C   UNL     1      41.973 -10.627  13.620  1.00  0.00     0.030 A 
HETATM   15  N   UNL     1      43.243 -12.536  12.587  1.00  0.00    -0.365 N 
HETATM   16  H   UNL     1      42.884 -13.294  13.152  1.00  0.00     0.165 HD
HETATM   17  C   UNL     1      44.163 -12.666  11.583  1.00  0.00     0.096 A 
ENDBRANCH   7   8
ENDBRANCH   6   7
ENDBRANCH   3   6
ENDBRANCH   1   2
BRANCH   1  18
HETATM   18  C   UNL     1      43.233 -14.623   5.216  1.00  0.00     0.029 C 
BRANCH  18  19
HETATM   19  C   UNL     1      42.260 -15.780   5.464  1.00  0.00     0.135 C 
BRANCH  19  20
HETATM   20  N   UNL     1      42.933 -17.086   5.470  1.00  0.00    -0.290 N 
HETATM   21  C   UNL     1      43.441 -17.645   6.642  1.00  0.00     0.181 A 
HETATM   22  S   UNL     1      43.425 -16.969   8.178  1.00  0.00    -0.040 SA
HETATM   23  N   UNL     1      44.013 -18.885   6.540  1.00  0.00    -0.332 N 
HETATM   24  C   UNL     1      44.109 -19.606   5.353  1.00  0.00     0.050 A 
HETATM   25  H   UNL     1      44.366 -19.287   7.402  1.00  0.00     0.168 HD
HETATM   26  C   UNL     1      43.639 -19.050   4.172  1.00  0.00     0.060 A 
HETATM   27  C   UNL     1      44.673 -20.881   5.358  1.00  0.00     0.032 A 
HETATM   28  C   UNL     1      43.043 -17.703   4.214  1.00  0.00     0.262 A 
HETATM   29  C   UNL     1      43.726 -19.764   2.971  1.00  0.00     0.038 A 
HETATM   30  O   UNL     1      42.672 -17.189   3.160  1.00  0.00    -0.267 OA
HETATM   31  C   UNL     1      44.285 -21.039   2.977  1.00  0.00     0.012 A 
HETATM   32  C   UNL     1      44.759 -21.602   4.163  1.00  0.00     0.021 A 
HETATM   33 BR   UNL     1      44.400 -22.020   1.365  1.00  0.00    -0.051 Br
ENDBRANCH  19  20
ENDBRANCH  18  19
ENDBRANCH   1  18
TORSDOF 7
ENDMDL
MODEL 4
REMARK VINA RESULT:      -8.9      5.067      8.872
REMARK  7 active torsions:
REMARK  status: ('A' for Active; 'I' for Inactive)
REMARK    1  A    between atoms: C_8  and  C_9 
REMARK    2  A    between atoms: C_9  and  C_10 
REMARK    3  A    between atoms: C_10  and  N_11 
REMARK       I    between atoms: N_11  and  C_12 
REMARK    4  A    between atoms: C_12  and  C_13 
REMARK    5  A    between atoms: C_13  and  C_14 
REMARK    6  A    between atoms: C_14  and  C_15 
REMARK    7  A    between atoms: C_15  and  N_16 
ROOT
HETATM    1  C   UNL     1      40.379 -14.586   5.882  1.00  0.00     0.104 C 
ENDROOT
BRANCH   1   2
HETATM    2  C   UNL     1      39.958 -13.160   6.165  1.00  0.00     0.217 C 
HETATM    3  N   UNL     1      40.960 -12.347   6.642  1.00  0.00    -0.361 N 
HETATM    4  H   UNL     1      41.765 -12.784   7.075  1.00  0.00     0.162 HD
HETATM    5  O   UNL     1      38.822 -12.763   5.926  1.00  0.00    -0.274 OA
BRANCH   3   6
HETATM    6  C   UNL     1      40.681 -10.966   7.002  1.00  0.00     0.127 C 
BRANCH   6   7
HETATM    7  C   UNL     1      41.648 -10.416   8.052  1.00  0.00     0.060 C 
BRANCH   7   8
HETATM    8  C   UNL     1      41.192 -10.672   9.457  1.00  0.00    -0.029 A 
HETATM    9  C   UNL     1      41.961 -10.527  10.656  1.00  0.00    -0.002 A 
HETATM   10  C   UNL     1      43.284 -10.124  10.934  1.00  0.00     0.014 A 
HETATM   11  C   UNL     1      41.141 -10.892  11.724  1.00  0.00     0.042 A 
HETATM   12  C   UNL     1      43.739 -10.113  12.258  1.00  0.00     0.001 A 
HETATM   13  C   UNL     1      42.895 -10.486  13.301  1.00  0.00     0.002 A 
HETATM   14  C   UNL     1      41.577 -10.881  13.055  1.00  0.00     0.030 A 
HETATM   15  N   UNL     1      39.917 -11.229  11.199  1.00  0.00    -0.365 N 
HETATM   16  H   UNL     1      39.121 -11.528  11.746  1.00  0.00     0.165 HD
HETATM   17  C   UNL     1      39.935 -11.103   9.837  1.00  0.00     0.096 A 
ENDBRANCH   7   8
ENDBRANCH   6   7
ENDBRANCH   3   6
ENDBRANCH   1   2
BRANCH   1  18
HETATM   18  C   UNL     1      40.742 -14.833   4.421  1.00  0.00     0.029 C 
BRANCH  18  19
HETATM   19  C   UNL     1      42.253 -14.685   4.217  1.00  0.00     0.135 C 
BRANCH  19  20
HETATM   20  N   UNL     1      42.979 -15.937   4.474  1.00  0.00    -0.290 N 
HETATM   21  C   UNL     1      43.670 -16.155   5.666  1.00  0.00     0.181 A 
HETATM   22  S   UNL     1      43.835 -15.089   6.951  1.00  0.00    -0.040 SA
HETATM   23  N   UNL     1      44.278 -17.373   5.816  1.00  0.00    -0.332 N 
HETATM   24  C   UNL     1      44.241 -18.386   4.863  1.00  0.00     0.050 A 
HETATM   25  H   UNL     1      44.765 -17.524   6.693  1.00  0.00     0.168 HD
HETATM   26  C   UNL     1      43.588 -18.174   3.658  1.00  0.00     0.060 A 
HETATM   27  C   UNL     1      44.859 -19.610   5.125  1.00  0.00     0.032 A 
HETATM   28  C   UNL     1      42.942 -16.869   3.426  1.00  0.00     0.262 A 
HETATM   29  C   UNL     1      43.540 -19.185   2.691  1.00  0.00     0.038 A 
HETATM   30  O   UNL     1      42.407 -16.662   2.338  1.00  0.00    -0.267 OA
HETATM   31  C   UNL     1      44.152 -20.408   2.956  1.00  0.00     0.012 A 
HETATM   32  C   UNL     1      44.811 -20.626   4.167  1.00  0.00     0.021 A 
HETATM   33 BR   UNL     1      44.089 -21.787   1.664  1.00  0.00    -0.051 Br
ENDBRANCH  19  20
ENDBRANCH  18  19
ENDBRANCH   1  18
TORSDOF 7
ENDMDL
MODEL 5
REMARK VINA RESULT:      -8.9      2.792      4.927
REMARK  7 active torsions:
REMARK  status: ('A' for Active; 'I' for Inactive)
REMARK    1  A    between atoms: C_8  and  C_9 
REMARK    2  A    between atoms: C_9  and  C_10 
REMARK    3  A    between atoms: C_10  and  N_11 
REMARK       I    between atoms: N_11  and  C_12 
REMARK    4  A    between atoms: C_12  and  C_13 
REMARK    5  A    between atoms: C_13  and  C_14 
REMARK    6  A    between atoms: C_14  and  C_15 
REMARK    7  A    between atoms: C_15  and  N_16 
ROOT
HETATM    1  C   UNL     1      40.631 -15.158   5.452  1.00  0.00     0.104 C 
ENDROOT
BRANCH   1   2
HETATM    2  C   UNL     1      41.231 -16.524   5.708  1.00  0.00     0.217 C 
HETATM    3  N   UNL     1      42.318 -16.527   6.550  1.00  0.00    -0.361 N 
HETATM    4  H   UNL     1      42.835 -15.664   6.668  1.00  0.00     0.162 HD
HETATM    5  O   UNL     1      40.736 -17.544   5.239  1.00  0.00    -0.274 OA
BRANCH   3   6
HETATM    6  C   UNL     1      43.021 -17.766   6.842  1.00  0.00     0.127 C 
BRANCH   6   7
HETATM    7  C   UNL     1      44.360 -17.879   6.110  1.00  0.00     0.060 C 
BRANCH   7   8
HETATM    8  C   UNL     1      44.243 -18.560   4.781  1.00  0.00    -0.029 A 
HETATM    9  C   UNL     1      44.400 -19.958   4.507  1.00  0.00    -0.002 A 
HETATM   10  C   UNL     1      44.681 -21.090   5.300  1.00  0.00     0.014 A 
HETATM   11  C   UNL     1      44.226 -20.136   3.134  1.00  0.00     0.042 A 
HETATM   12  C   UNL     1      44.789 -22.347   4.694  1.00  0.00     0.001 A 
HETATM   13  C   UNL     1      44.612 -22.491   3.321  1.00  0.00     0.002 A 
HETATM   14  C   UNL     1      44.324 -21.387   2.513  1.00  0.00     0.030 A 
HETATM   15  N   UNL     1      43.956 -18.901   2.596  1.00  0.00    -0.365 N 
HETATM   16  H   UNL     1      43.778 -18.730   1.615  1.00  0.00     0.165 HD
HETATM   17  C   UNL     1      43.966 -17.945   3.574  1.00  0.00     0.096 A 
ENDBRANCH   7   8
ENDBRANCH   6   7
ENDBRANCH   3   6
ENDBRANCH   1   2
BRANCH   1  18
HETATM   18  C   UNL     1      40.434 -14.850   3.971  1.00  0.00     0.029 C 
BRANCH  18  19
HETATM   19  C   UNL     1      41.777 -14.899   3.235  1.00  0.00     0.135 C 
BRANCH  19  20
HETATM   20  N   UNL     1      41.618 -14.866   1.774  1.00  0.00    -0.290 N 
HETATM   21  C   UNL     1      41.116 -15.956   1.064  1.00  0.00     0.181 A 
HETATM   22  S   UNL     1      40.655 -17.445   1.686  1.00  0.00    -0.040 SA
HETATM   23  N   UNL     1      40.973 -15.801  -0.288  1.00  0.00    -0.332 N 
HETATM   24  C   UNL     1      41.292 -14.637  -0.980  1.00  0.00     0.050 A 
HETATM   25  H   UNL     1      40.593 -16.597  -0.791  1.00  0.00     0.168 HD
HETATM   26  C   UNL     1      41.825 -13.554  -0.294  1.00  0.00     0.060 A 
HETATM   27  C   UNL     1      41.073 -14.562  -2.355  1.00  0.00     0.032 A 
HETATM   28  C   UNL     1      42.033 -13.674   1.160  1.00  0.00     0.262 A 
HETATM   29  C   UNL     1      42.149 -12.376  -0.975  1.00  0.00     0.038 A 
HETATM   30  O   UNL     1      42.553 -12.735   1.760  1.00  0.00    -0.267 OA
HETATM   31  C   UNL     1      41.924 -12.300  -2.348  1.00  0.00     0.012 A 
HETATM   32  C   UNL     1      41.388 -13.386  -3.042  1.00  0.00     0.021 A 
HETATM   33 BR   UNL     1      42.347 -10.711  -3.281  1.00  0.00    -0.051 Br
ENDBRANCH  19  20
ENDBRANCH  18  19
ENDBRANCH   1  18
TORSDOF 7
ENDMDL
MODEL 6
REMARK VINA RESULT:      -8.7      5.111      8.853
REMARK  7 active torsions:
REMARK  status: ('A' for Active; 'I' for Inactive)
REMARK    1  A    between atoms: C_8  and  C_9 
REMARK    2  A    between atoms: C_9  and  C_10 
REMARK    3  A    between atoms: C_10  and  N_11 
REMARK       I    between atoms: N_11  and  C_12 
REMARK    4  A    between atoms: C_12  and  C_13 
REMARK    5  A    between atoms: C_13  and  C_14 
REMARK    6  A    between atoms: C_14  and  C_15 
REMARK    7  A    between atoms: C_15  and  N_16 
ROOT
HETATM    1  C   UNL     1      40.140 -14.100   5.743  1.00  0.00     0.104 C 
ENDROOT
BRANCH   1   2
HETATM    2  C   UNL     1      39.878 -12.714   6.292  1.00  0.00     0.217 C 
HETATM    3  N   UNL     1      40.965 -12.113   6.882  1.00  0.00    -0.361 N 
HETATM    4  H   UNL     1      41.721 -12.705   7.207  1.00  0.00     0.162 HD
HETATM    5  O   UNL     1      38.790 -12.162   6.158  1.00  0.00    -0.274 OA
BRANCH   3   6
HETATM    6  C   UNL     1      40.840 -10.801   7.495  1.00  0.00     0.127 C 
BRANCH   6   7
HETATM    7  C   UNL     1      41.868 -10.559   8.602  1.00  0.00     0.060 C 
BRANCH   7   8
HETATM    8  C   UNL     1      41.295 -10.720   9.977  1.00  0.00    -0.029 A 
HETATM    9  C   UNL     1      41.943 -10.444  11.223  1.00  0.00    -0.002 A 
HETATM   10  C   UNL     1      43.219  -9.961  11.583  1.00  0.00     0.014 A 
HETATM   11  C   UNL     1      41.042 -10.759  12.241  1.00  0.00     0.042 A 
HETATM   12  C   UNL     1      43.548  -9.823  12.937  1.00  0.00     0.001 A 
HETATM   13  C   UNL     1      42.626 -10.148  13.928  1.00  0.00     0.002 A 
HETATM   14  C   UNL     1      41.352 -10.621  13.600  1.00  0.00     0.030 A 
HETATM   15  N   UNL     1      39.885 -11.192  11.639  1.00  0.00    -0.365 N 
HETATM   16  H   UNL     1      39.054 -11.481  12.137  1.00  0.00     0.165 HD
HETATM   17  C   UNL     1      40.024 -11.175  10.278  1.00  0.00     0.096 A 
ENDBRANCH   7   8
ENDBRANCH   6   7
ENDBRANCH   3   6
ENDBRANCH   1   2
BRANCH   1  18
HETATM   18  C   UNL     1      40.454 -14.113   4.250  1.00  0.00     0.029 C 
BRANCH  18  19
HETATM   19  C   UNL     1      41.966 -14.218   4.026  1.00  0.00     0.135 C 
BRANCH  19  20
HETATM   20  N   UNL     1      42.351 -15.483   3.385  1.00  0.00    -0.290 N 
HETATM   21  C   UNL     1      42.256 -15.667   2.006  1.00  0.00     0.181 A 
HETATM   22  S   UNL     1      41.684 -14.568   0.874  1.00  0.00    -0.040 SA
HETATM   23  N   UNL     1      42.679 -16.871   1.511  1.00  0.00    -0.332 N 
HETATM   24  C   UNL     1      43.193 -17.901   2.293  1.00  0.00     0.050 A 
HETATM   25  H   UNL     1      42.618 -16.987   0.504  1.00  0.00     0.168 HD
HETATM   26  C   UNL     1      43.262 -17.748   3.671  1.00  0.00     0.060 A 
HETATM   27  C   UNL     1      43.636 -19.078   1.691  1.00  0.00     0.032 A 
HETATM   28  C   UNL     1      42.790 -16.484   4.265  1.00  0.00     0.262 A 
HETATM   29  C   UNL     1      43.779 -18.773   4.471  1.00  0.00     0.038 A 
HETATM   30  O   UNL     1      42.803 -16.368   5.489  1.00  0.00    -0.267 OA
HETATM   31  C   UNL     1      44.227 -19.946   3.868  1.00  0.00     0.012 A 
HETATM   32  C   UNL     1      44.159 -20.104   2.482  1.00  0.00     0.021 A 
HETATM   33 BR   UNL     1      44.937 -21.337   4.934  1.00  0.00    -0.051 Br
ENDBRANCH  19  20
ENDBRANCH  18  19
ENDBRANCH   1  18
TORSDOF 7
ENDMDL
MODEL 7
REMARK VINA RESULT:      -8.6      5.652      7.064
REMARK  7 active torsions:
REMARK  status: ('A' for Active; 'I' for Inactive)
REMARK    1  A    between atoms: C_8  and  C_9 
REMARK    2  A    between atoms: C_9  and  C_10 
REMARK    3  A    between atoms: C_10  and  N_11 
REMARK       I    between atoms: N_11  and  C_12 
REMARK    4  A    between atoms: C_12  and  C_13 
REMARK    5  A    between atoms: C_13  and  C_14 
REMARK    6  A    between atoms: C_14  and  C_15 
REMARK    7  A    between atoms: C_15  and  N_16 
ROOT
HETATM    1  C   UNL     1      45.096 -13.753   7.034  1.00  0.00     0.104 C 
ENDROOT
BRANCH   1   2
HETATM    2  C   UNL     1      43.979 -14.107   6.076  1.00  0.00     0.217 C 
HETATM    3  N   UNL     1      42.951 -14.831   6.631  1.00  0.00    -0.361 N 
HETATM    4  H   UNL     1      43.135 -15.348   7.483  1.00  0.00     0.162 HD
HETATM    5  O   UNL     1      43.981 -13.718   4.911  1.00  0.00    -0.274 OA
BRANCH   3   6
HETATM    6  C   UNL     1      41.837 -15.279   5.811  1.00  0.00     0.127 C 
BRANCH   6   7
HETATM    7  C   UNL     1      41.380 -16.699   6.150  1.00  0.00     0.060 C 
BRANCH   7   8
HETATM    8  C   UNL     1      42.506 -17.688   6.160  1.00  0.00    -0.029 A 
HETATM    9  C   UNL     1      43.052 -18.390   5.037  1.00  0.00    -0.002 A 
HETATM   10  C   UNL     1      42.773 -18.402   3.654  1.00  0.00     0.014 A 
HETATM   11  C   UNL     1      44.067 -19.218   5.516  1.00  0.00     0.042 A 
HETATM   12  C   UNL     1      43.505 -19.246   2.810  1.00  0.00     0.001 A 
HETATM   13  C   UNL     1      44.511 -20.062   3.321  1.00  0.00     0.002 A 
HETATM   14  C   UNL     1      44.813 -20.063   4.686  1.00  0.00     0.030 A 
HETATM   15  N   UNL     1      44.149 -19.017   6.873  1.00  0.00    -0.365 N 
HETATM   16  H   UNL     1      44.806 -19.483   7.483  1.00  0.00     0.165 HD
HETATM   17  C   UNL     1      43.214 -18.101   7.273  1.00  0.00     0.096 A 
ENDBRANCH   7   8
ENDBRANCH   6   7
ENDBRANCH   3   6
ENDBRANCH   1   2
BRANCH   1  18
HETATM   18  C   UNL     1      44.599 -13.291   8.401  1.00  0.00     0.029 C 
BRANCH  18  19
HETATM   19  C   UNL     1      44.742 -11.772   8.532  1.00  0.00     0.135 C 
BRANCH  19  20
HETATM   20  N   UNL     1      43.647 -11.170   9.306  1.00  0.00    -0.290 N 
HETATM   21  C   UNL     1      42.415 -10.869   8.726  1.00  0.00     0.181 A 
HETATM   22  S   UNL     1      41.972 -11.083   7.122  1.00  0.00    -0.040 SA
HETATM   23  N   UNL     1      41.454 -10.348   9.549  1.00  0.00    -0.332 N 
HETATM   24  C   UNL     1      41.634 -10.110  10.908  1.00  0.00     0.050 A 
HETATM   25  H   UNL     1      40.557 -10.147   9.118  1.00  0.00     0.168 HD
HETATM   26  C   UNL     1      42.864 -10.371  11.495  1.00  0.00     0.060 A 
HETATM   27  C   UNL     1      40.579  -9.613  11.673  1.00  0.00     0.032 A 
HETATM   28  C   UNL     1      43.949 -10.903  10.651  1.00  0.00     0.262 A 
HETATM   29  C   UNL     1      43.060 -10.139  12.861  1.00  0.00     0.038 A 
HETATM   30  O   UNL     1      45.054 -11.086  11.158  1.00  0.00    -0.267 OA
HETATM   31  C   UNL     1      42.004  -9.648  13.625  1.00  0.00     0.012 A 
HETATM   32  C   UNL     1      40.765  -9.384  13.039  1.00  0.00     0.021 A 
HETATM   33 BR   UNL     1      42.249  -9.339  15.474  1.00  0.00    -0.051 Br
ENDBRANCH  19  20
ENDBRANCH  18  19
ENDBRANCH   1  18
TORSDOF 7
ENDMDL
MODEL 8
REMARK VINA RESULT:      -8.2      3.273      7.766
REMARK  7 active torsions:
REMARK  status: ('A' for Active; 'I' for Inactive)
REMARK    1  A    between atoms: C_8  and  C_9 
REMARK    2  A    between atoms: C_9  and  C_10 
REMARK    3  A    between atoms: C_10  and  N_11 
REMARK       I    between atoms: N_11  and  C_12 
REMARK    4  A    between atoms: C_12  and  C_13 
REMARK    5  A    between atoms: C_13  and  C_14 
REMARK    6  A    between atoms: C_14  and  C_15 
REMARK    7  A    between atoms: C_15  and  N_16 
ROOT
HETATM    1  C   UNL     1      43.251 -14.019   3.212  1.00  0.00     0.104 C 
ENDROOT
BRANCH   1   2
HETATM    2  C   UNL     1      42.402 -13.603   2.030  1.00  0.00     0.217 C 
HETATM    3  N   UNL     1      41.476 -14.535   1.628  1.00  0.00    -0.361 N 
HETATM    4  H   UNL     1      41.626 -15.503   1.889  1.00  0.00     0.162 HD
HETATM    5  O   UNL     1      42.508 -12.491   1.520  1.00  0.00    -0.274 OA
BRANCH   3   6
HETATM    6  C   UNL     1      40.629 -14.284   0.474  1.00  0.00     0.127 C 
BRANCH   6   7
HETATM    7  C   UNL     1      41.178 -14.900  -0.815  1.00  0.00     0.060 C 
BRANCH   7   8
HETATM    8  C   UNL     1      40.846 -14.095  -2.034  1.00  0.00    -0.029 A 
HETATM    9  C   UNL     1      41.453 -12.867  -2.453  1.00  0.00    -0.002 A 
HETATM   10  C   UNL     1      42.483 -12.053  -1.938  1.00  0.00     0.014 A 
HETATM   11  C   UNL     1      40.816 -12.467  -3.629  1.00  0.00     0.042 A 
HETATM   12  C   UNL     1      42.828 -10.872  -2.605  1.00  0.00     0.001 A 
HETATM   13  C   UNL     1      42.171 -10.500  -3.775  1.00  0.00     0.002 A 
HETATM   14  C   UNL     1      41.153 -11.292  -4.312  1.00  0.00     0.030 A 
HETATM   15  N   UNL     1      39.872 -13.421  -3.924  1.00  0.00    -0.365 N 
HETATM   16  H   UNL     1      39.262 -13.393  -4.730  1.00  0.00     0.165 HD
HETATM   17  C   UNL     1      39.878 -14.403  -2.972  1.00  0.00     0.096 A 
ENDBRANCH   7   8
ENDBRANCH   6   7
ENDBRANCH   3   6
ENDBRANCH   1   2
BRANCH   1  18
HETATM   18  C   UNL     1      42.524 -13.911   4.549  1.00  0.00     0.029 C 
BRANCH  18  19
HETATM   19  C   UNL     1      41.807 -15.225   4.872  1.00  0.00     0.135 C 
BRANCH  19  20
HETATM   20  N   UNL     1      42.725 -16.372   4.903  1.00  0.00    -0.290 N 
HETATM   21  C   UNL     1      43.657 -16.540   5.926  1.00  0.00     0.181 A 
HETATM   22  S   UNL     1      43.930 -15.515   7.226  1.00  0.00    -0.040 SA
HETATM   23  N   UNL     1      44.435 -17.666   5.876  1.00  0.00    -0.332 N 
HETATM   24  C   UNL     1      44.346 -18.634   4.881  1.00  0.00     0.050 A 
HETATM   25  H   UNL     1      45.100 -17.783   6.634  1.00  0.00     0.168 HD
HETATM   26  C   UNL     1      43.447 -18.466   3.837  1.00  0.00     0.060 A 
HETATM   27  C   UNL     1      45.156 -19.768   4.939  1.00  0.00     0.032 A 
HETATM   28  C   UNL     1      42.605 -17.256   3.819  1.00  0.00     0.262 A 
HETATM   29  C   UNL     1      43.344 -19.433   2.831  1.00  0.00     0.038 A 
HETATM   30  O   UNL     1      41.846 -17.081   2.868  1.00  0.00    -0.267 OA
HETATM   31  C   UNL     1      44.149 -20.567   2.892  1.00  0.00     0.012 A 
HETATM   32  C   UNL     1      45.054 -20.741   3.941  1.00  0.00     0.021 A 
HETATM   33 BR   UNL     1      44.014 -21.888   1.545  1.00  0.00    -0.051 Br
ENDBRANCH  19  20
ENDBRANCH  18  19
ENDBRANCH   1  18
TORSDOF 7
ENDMDL
MODEL 9
REMARK VINA RESULT:      -8.1      3.089      7.137
REMARK  7 active torsions:
REMARK  status: ('A' for Active; 'I' for Inactive)
REMARK    1  A    between atoms: C_8  and  C_9 
REMARK    2  A    between atoms: C_9  and  C_10 
REMARK    3  A    between atoms: C_10  and  N_11 
REMARK       I    between atoms: N_11  and  C_12 
REMARK    4  A    between atoms: C_12  and  C_13 
REMARK    5  A    between atoms: C_13  and  C_14 
REMARK    6  A    between atoms: C_14  and  C_15 
REMARK    7  A    between atoms: C_15  and  N_16 
ROOT
HETATM    1  C   UNL     1      41.774 -13.345   1.108  1.00  0.00     0.104 C 
ENDROOT
BRANCH   1   2
HETATM    2  C   UNL     1      41.849 -12.103   0.246  1.00  0.00     0.217 C 
HETATM    3  N   UNL     1      40.726 -11.857  -0.508  1.00  0.00    -0.361 N 
HETATM    4  H   UNL     1      40.101 -12.630  -0.703  1.00  0.00     0.162 HD
HETATM    5  O   UNL     1      42.821 -11.355   0.276  1.00  0.00    -0.274 OA
BRANCH   3   6
HETATM    6  C   UNL     1      40.682 -10.724  -1.418  1.00  0.00     0.127 C 
BRANCH   6   7
HETATM    7  C   UNL     1      40.841 -11.129  -2.884  1.00  0.00     0.060 C 
BRANCH   7   8
HETATM    8  C   UNL     1      40.989 -12.609  -3.068  1.00  0.00    -0.029 A 
HETATM    9  C   UNL     1      39.946 -13.560  -3.310  1.00  0.00    -0.002 A 
HETATM   10  C   UNL     1      38.547 -13.469  -3.459  1.00  0.00     0.014 A 
HETATM   11  C   UNL     1      40.541 -14.820  -3.393  1.00  0.00     0.042 A 
HETATM   12  C   UNL     1      37.798 -14.633  -3.672  1.00  0.00     0.001 A 
HETATM   13  C   UNL     1      38.423 -15.875  -3.749  1.00  0.00     0.002 A 
HETATM   14  C   UNL     1      39.809 -15.993  -3.613  1.00  0.00     0.030 A 
HETATM   15  N   UNL     1      41.894 -14.641  -3.228  1.00  0.00    -0.365 N 
HETATM   16  H   UNL     1      42.577 -15.386  -3.249  1.00  0.00     0.165 HD
HETATM   17  C   UNL     1      42.176 -13.317  -3.029  1.00  0.00     0.096 A 
ENDBRANCH   7   8
ENDBRANCH   6   7
ENDBRANCH   3   6
ENDBRANCH   1   2
BRANCH   1  18
HETATM   18  C   UNL     1      40.795 -14.391   0.583  1.00  0.00     0.029 C 
BRANCH  18  19
HETATM   19  C   UNL     1      40.169 -15.165   1.747  1.00  0.00     0.135 C 
BRANCH  19  20
HETATM   20  N   UNL     1      41.152 -15.986   2.467  1.00  0.00    -0.290 N 
HETATM   21  C   UNL     1      41.646 -15.615   3.718  1.00  0.00     0.181 A 
HETATM   22  S   UNL     1      41.273 -14.227   4.583  1.00  0.00    -0.040 SA
HETATM   23  N   UNL     1      42.528 -16.475   4.315  1.00  0.00    -0.332 N 
HETATM   24  C   UNL     1      42.947 -17.678   3.755  1.00  0.00     0.050 A 
HETATM   25  H   UNL     1      42.868 -16.201   5.231  1.00  0.00     0.168 HD
HETATM   26  C   UNL     1      42.492 -18.047   2.497  1.00  0.00     0.060 A 
HETATM   27  C   UNL     1      43.819 -18.507   4.461  1.00  0.00     0.032 A 
HETATM   28  C   UNL     1      41.566 -17.144   1.790  1.00  0.00     0.262 A 
HETATM   29  C   UNL     1      42.903 -19.254   1.923  1.00  0.00     0.038 A 
HETATM   30  O   UNL     1      41.203 -17.445   0.654  1.00  0.00    -0.267 OA
HETATM   31  C   UNL     1      43.769 -20.084   2.630  1.00  0.00     0.012 A 
HETATM   32  C   UNL     1      44.230 -19.718   3.896  1.00  0.00     0.021 A 
HETATM   33 BR   UNL     1      44.326 -21.724   1.872  1.00  0.00    -0.051 Br
ENDBRANCH  19  20
ENDBRANCH  18  19
ENDBRANCH   1  18
TORSDOF 7
ENDMDL
MODEL 10
REMARK VINA RESULT:      -8.1      3.374      4.904
REMARK  7 active torsions:
REMARK  status: ('A' for Active; 'I' for Inactive)
REMARK    1  A    between atoms: C_8  and  C_9 
REMARK    2  A    between atoms: C_9  and  C_10 
REMARK    3  A    between atoms: C_10  and  N_11 
REMARK       I    between atoms: N_11  and  C_12 
REMARK    4  A    between atoms: C_12  and  C_13 
REMARK    5  A    between atoms: C_13  and  C_14 
REMARK    6  A    between atoms: C_14  and  C_15 
REMARK    7  A    between atoms: C_15  and  N_16 
ROOT
HETATM    1  C   UNL     1      39.147 -15.153   2.026  1.00  0.00     0.104 C 
ENDROOT
BRANCH   1   2
HETATM    2  C   UNL     1      40.302 -15.872   1.362  1.00  0.00     0.217 C 
HETATM    3  N   UNL     1      40.639 -17.075   1.936  1.00  0.00    -0.361 N 
HETATM    4  H   UNL     1      40.360 -17.242   2.896  1.00  0.00     0.162 HD
HETATM    5  O   UNL     1      40.846 -15.428   0.355  1.00  0.00    -0.274 OA
BRANCH   3   6
HETATM    6  C   UNL     1      41.762 -17.846   1.429  1.00  0.00     0.127 C 
BRANCH   6   7
HETATM    7  C   UNL     1      43.108 -17.381   1.990  1.00  0.00     0.060 C 
BRANCH   7   8
HETATM    8  C   UNL     1      43.659 -18.309   3.029  1.00  0.00    -0.029 A 
HETATM    9  C   UNL     1      43.924 -19.709   2.886  1.00  0.00    -0.002 A 
HETATM   10  C   UNL     1      43.789 -20.633   1.829  1.00  0.00     0.014 A 
HETATM   11  C   UNL     1      44.410 -20.169   4.111  1.00  0.00     0.042 A 
HETATM   12  C   UNL     1      44.130 -21.975   2.038  1.00  0.00     0.001 A 
HETATM   13  C   UNL     1      44.611 -22.401   3.273  1.00  0.00     0.002 A 
HETATM   14  C   UNL     1      44.762 -21.505   4.335  1.00  0.00     0.030 A 
HETATM   15  N   UNL     1      44.457 -19.089   4.960  1.00  0.00    -0.365 N 
HETATM   16  H   UNL     1      44.778 -19.127   5.918  1.00  0.00     0.165 HD
HETATM   17  C   UNL     1      44.007 -17.965   4.323  1.00  0.00     0.096 A 
ENDBRANCH   7   8
ENDBRANCH   6   7
ENDBRANCH   3   6
ENDBRANCH   1   2
BRANCH   1  18
HETATM   18  C   UNL     1      39.573 -13.917   2.812  1.00  0.00     0.029 C 
BRANCH  18  19
HETATM   19  C   UNL     1      38.989 -12.653   2.172  1.00  0.00     0.135 C 
BRANCH  19  20
HETATM   20  N   UNL     1      40.007 -11.855   1.476  1.00  0.00    -0.290 N 
HETATM   21  C   UNL     1      40.861 -10.992   2.163  1.00  0.00     0.181 A 
HETATM   22  S   UNL     1      40.875 -10.681   3.811  1.00  0.00    -0.040 SA
HETATM   23  N   UNL     1      41.798 -10.327   1.419  1.00  0.00    -0.332 N 
HETATM   24  C   UNL     1      41.945 -10.464   0.042  1.00  0.00     0.050 A 
HETATM   25  H   UNL     1      42.422  -9.713   1.932  1.00  0.00     0.168 HD
HETATM   26  C   UNL     1      41.082 -11.292  -0.662  1.00  0.00     0.060 A 
HETATM   27  C   UNL     1      42.958  -9.773  -0.622  1.00  0.00     0.032 A 
HETATM   28  C   UNL     1      40.030 -12.010   0.081  1.00  0.00     0.262 A 
HETATM   29  C   UNL     1      41.219 -11.443  -2.046  1.00  0.00     0.038 A 
HETATM   30  O   UNL     1      39.233 -12.703  -0.548  1.00  0.00    -0.267 OA
HETATM   31  C   UNL     1      42.234 -10.757  -2.708  1.00  0.00     0.012 A 
HETATM   32  C   UNL     1      43.105  -9.923  -2.004  1.00  0.00     0.021 A 
HETATM   33 BR   UNL     1      42.438 -10.958  -4.577  1.00  0.00    -0.051 Br
ENDBRANCH  19  20
ENDBRANCH  18  19
ENDBRANCH   1  18
TORSDOF 7
ENDMDL
