MODEL 1
REMARK VINA RESULT:      -8.9      0.000      0.000
REMARK  5 active torsions:
REMARK  status: ('A' for Active; 'I' for Inactive)
REMARK    1  A    between atoms: C_9  and  C_10 
REMARK       I    between atoms: C_10  and  N_11 
REMARK    2  A    between atoms: N_11  and  C_12 
REMARK    3  A    between atoms: C_12  and  C_13 
REMARK    4  A    between atoms: C_15  and  O_16 
REMARK    5  A    between atoms: O_16  and  C_17 
ROOT
HETATM    1  C   UNL     1      44.915 -13.284   7.727  1.00  0.00     0.273 C 
HETATM    2  N   UNL     1      43.768 -13.982   7.424  1.00  0.00    -0.351 N 
HETATM    3  O   UNL     1      45.919 -13.292   7.021  1.00  0.00    -0.266 OA
HETATM    4  H   UNL     1      43.032 -13.938   8.124  1.00  0.00     0.163 HD
ENDROOT
BRANCH   2   5
HETATM    5  C   UNL     1      43.638 -14.815   6.262  1.00  0.00     0.161 C 
BRANCH   5   6
HETATM    6  C   UNL     1      43.845 -16.266   6.592  1.00  0.00    -0.035 A 
HETATM    7  C   UNL     1      44.404 -17.135   5.651  1.00  0.00     0.066 A 
HETATM    8  C   UNL     1      44.556 -18.472   5.983  1.00  0.00     0.164 A 
HETATM    9  N   UNL     1      44.218 -18.989   7.182  1.00  0.00    -0.237 NA
HETATM   10  C   UNL     1      43.708 -18.128   8.089  1.00  0.00     0.120 A 
HETATM   11  C   UNL     1      43.504 -16.778   7.846  1.00  0.00     0.028 A 
BRANCH   8  12
HETATM   12  O   UNL     1      45.089 -19.285   5.003  1.00  0.00    -0.329 OA
BRANCH  12  13
HETATM   13  C   UNL     1      44.124 -19.970   4.207  1.00  0.00     0.130 C 
HETATM   14  C   UNL     1      43.944 -19.312   2.837  1.00  0.00     0.032 C 
HETATM   15  C   UNL     1      43.578 -20.468   1.926  1.00  0.00     0.002 C 
HETATM   16  C   UNL     1      44.522 -21.568   2.381  1.00  0.00     0.002 C 
HETATM   17  C   UNL     1      44.649 -21.382   3.893  1.00  0.00     0.032 C 
ENDBRANCH  12  13
ENDBRANCH   8  12
ENDBRANCH   5   6
ENDBRANCH   2   5
BRANCH   1  18
HETATM   18  C   UNL     1      44.807 -12.517   8.980  1.00  0.00     0.157 A 
HETATM   19  C   UNL     1      43.844 -11.516   9.303  1.00  0.00     0.029 A 
HETATM   20  C   UNL     1      42.752 -10.909   8.651  1.00  0.00     0.023 A 
HETATM   21  C   UNL     1      44.153 -11.121  10.598  1.00  0.00     0.063 A 
HETATM   22  C   UNL     1      42.009  -9.920   9.318  1.00  0.00    -0.061 A 
HETATM   23  C   UNL     1      40.842  -9.260   8.641  1.00  0.00     0.048 C 
HETATM   24  C   UNL     1      42.350  -9.559  10.628  1.00  0.00     0.009 A 
HETATM   25  C   UNL     1      43.428 -10.151  11.295  1.00  0.00     0.032 A 
HETATM   26  N   UNL     1      45.241 -11.869  10.954  1.00  0.00    -0.277 N 
HETATM   27  H   UNL     1      45.738 -11.845  11.836  1.00  0.00     0.189 HD
HETATM   28  N   UNL     1      45.669 -12.719  10.003  1.00  0.00    -0.168 NA
ENDBRANCH   1  18
TORSDOF 5
ENDMDL
MODEL 2
REMARK VINA RESULT:      -8.9      3.606      8.532
REMARK  5 active torsions:
REMARK  status: ('A' for Active; 'I' for Inactive)
REMARK    1  A    between atoms: C_9  and  C_10 
REMARK       I    between atoms: C_10  and  N_11 
REMARK    2  A    between atoms: N_11  and  C_12 
REMARK    3  A    between atoms: C_12  and  C_13 
REMARK    4  A    between atoms: C_15  and  O_16 
REMARK    5  A    between atoms: O_16  and  C_17 
ROOT
HETATM    1  C   UNL     1      44.084 -19.964   6.777  1.00  0.00     0.273 C 
HETATM    2  N   UNL     1      44.445 -18.659   6.528  1.00  0.00    -0.351 N 
HETATM    3  O   UNL     1      43.620 -20.346   7.846  1.00  0.00    -0.266 OA
HETATM    4  H   UNL     1      44.873 -18.489   5.623  1.00  0.00     0.163 HD
ENDROOT
BRANCH   2   5
HETATM    5  C   UNL     1      44.339 -17.614   7.507  1.00  0.00     0.161 C 
BRANCH   5   6
HETATM    6  C   UNL     1      43.804 -16.344   6.909  1.00  0.00    -0.035 A 
HETATM    7  C   UNL     1      42.566 -16.331   6.259  1.00  0.00     0.066 A 
HETATM    8  C   UNL     1      42.118 -15.146   5.698  1.00  0.00     0.164 A 
HETATM    9  N   UNL     1      42.796 -13.982   5.764  1.00  0.00    -0.237 NA
HETATM   10  C   UNL     1      43.975 -14.007   6.423  1.00  0.00     0.120 A 
HETATM   11  C   UNL     1      44.514 -15.145   7.003  1.00  0.00     0.028 A 
BRANCH   8  12
HETATM   12  O   UNL     1      40.902 -15.204   5.046  1.00  0.00    -0.329 OA
BRANCH  12  13
HETATM   13  C   UNL     1      40.988 -15.202   3.623  1.00  0.00     0.130 C 
HETATM   14  C   UNL     1      40.843 -16.609   3.040  1.00  0.00     0.032 C 
HETATM   15  C   UNL     1      40.197 -16.376   1.688  1.00  0.00     0.002 C 
HETATM   16  C   UNL     1      39.152 -15.316   1.992  1.00  0.00     0.002 C 
HETATM   17  C   UNL     1      39.791 -14.421   3.053  1.00  0.00     0.032 C 
ENDBRANCH  12  13
ENDBRANCH   8  12
ENDBRANCH   5   6
ENDBRANCH   2   5
BRANCH   1  18
HETATM   18  C   UNL     1      44.302 -20.850   5.621  1.00  0.00     0.157 A 
HETATM   19  C   UNL     1      44.194 -20.515   4.239  1.00  0.00     0.029 A 
HETATM   20  C   UNL     1      43.865 -19.363   3.496  1.00  0.00     0.023 A 
HETATM   21  C   UNL     1      44.519 -21.680   3.557  1.00  0.00     0.063 A 
HETATM   22  C   UNL     1      43.866 -19.420   2.091  1.00  0.00    -0.061 A 
HETATM   23  C   UNL     1      43.519 -18.205   1.280  1.00  0.00     0.048 C 
HETATM   24  C   UNL     1      44.211 -20.615   1.444  1.00  0.00     0.009 A 
HETATM   25  C   UNL     1      44.543 -21.769   2.162  1.00  0.00     0.032 A 
HETATM   26  N   UNL     1      44.781 -22.605   4.528  1.00  0.00    -0.277 N 
HETATM   27  H   UNL     1      45.052 -23.573   4.395  1.00  0.00     0.189 HD
HETATM   28  N   UNL     1      44.655 -22.146   5.786  1.00  0.00    -0.168 NA
ENDBRANCH   1  18
TORSDOF 5
ENDMDL
MODEL 3
REMARK VINA RESULT:      -8.9      1.703      2.310
REMARK  5 active torsions:
REMARK  status: ('A' for Active; 'I' for Inactive)
REMARK    1  A    between atoms: C_9  and  C_10 
REMARK       I    between atoms: C_10  and  N_11 
REMARK    2  A    between atoms: N_11  and  C_12 
REMARK    3  A    between atoms: C_12  and  C_13 
REMARK    4  A    between atoms: C_15  and  O_16 
REMARK    5  A    between atoms: O_16  and  C_17 
ROOT
HETATM    1  C   UNL     1      44.945 -12.576   8.867  1.00  0.00     0.273 C 
HETATM    2  N   UNL     1      44.343 -13.582   8.147  1.00  0.00    -0.351 N 
HETATM    3  O   UNL     1      45.974 -12.010   8.511  1.00  0.00    -0.266 OA
HETATM    4  H   UNL     1      43.530 -14.006   8.583  1.00  0.00     0.163 HD
ENDROOT
BRANCH   2   5
HETATM    5  C   UNL     1      44.876 -14.093   6.915  1.00  0.00     0.161 C 
BRANCH   5   6
HETATM    6  C   UNL     1      43.801 -14.689   6.050  1.00  0.00    -0.035 A 
HETATM    7  C   UNL     1      43.751 -16.068   5.829  1.00  0.00     0.066 A 
HETATM    8  C   UNL     1      42.760 -16.578   5.005  1.00  0.00     0.164 A 
HETATM    9  N   UNL     1      41.813 -15.820   4.416  1.00  0.00    -0.237 NA
HETATM   10  C   UNL     1      41.858 -14.494   4.667  1.00  0.00     0.120 A 
HETATM   11  C   UNL     1      42.818 -13.889   5.464  1.00  0.00     0.028 A 
BRANCH   8  12
HETATM   12  O   UNL     1      42.781 -17.944   4.803  1.00  0.00    -0.329 OA
BRANCH  12  13
HETATM   13  C   UNL     1      43.765 -18.395   3.875  1.00  0.00     0.130 C 
HETATM   14  C   UNL     1      44.364 -19.741   4.290  1.00  0.00     0.032 C 
HETATM   15  C   UNL     1      44.719 -20.400   2.971  1.00  0.00     0.002 C 
HETATM   16  C   UNL     1      43.518 -20.076   2.098  1.00  0.00     0.002 C 
HETATM   17  C   UNL     1      43.086 -18.673   2.523  1.00  0.00     0.032 C 
ENDBRANCH  12  13
ENDBRANCH   8  12
ENDBRANCH   5   6
ENDBRANCH   2   5
BRANCH   1  18
HETATM   18  C   UNL     1      44.217 -12.240  10.103  1.00  0.00     0.157 A 
HETATM   19  C   UNL     1      43.213 -11.243  10.274  1.00  0.00     0.029 A 
HETATM   20  C   UNL     1      42.588 -10.279   9.456  1.00  0.00     0.023 A 
HETATM   21  C   UNL     1      42.828 -11.339  11.604  1.00  0.00     0.063 A 
HETATM   22  C   UNL     1      41.602  -9.440  10.002  1.00  0.00    -0.061 A 
HETATM   23  C   UNL     1      40.925  -8.407   9.148  1.00  0.00     0.048 C 
HETATM   24  C   UNL     1      41.238  -9.579  11.348  1.00  0.00     0.009 A 
HETATM   25  C   UNL     1      41.843 -10.530  12.177  1.00  0.00     0.032 A 
HETATM   26  N   UNL     1      43.598 -12.339  12.131  1.00  0.00    -0.277 N 
HETATM   27  H   UNL     1      43.586 -12.683  13.083  1.00  0.00     0.189 HD
HETATM   28  N   UNL     1      44.453 -12.903  11.259  1.00  0.00    -0.168 NA
ENDBRANCH   1  18
TORSDOF 5
ENDMDL
MODEL 4
REMARK VINA RESULT:      -8.6      3.367      6.710
REMARK  5 active torsions:
REMARK  status: ('A' for Active; 'I' for Inactive)
REMARK    1  A    between atoms: C_9  and  C_10 
REMARK       I    between atoms: C_10  and  N_11 
REMARK    2  A    between atoms: N_11  and  C_12 
REMARK    3  A    between atoms: C_12  and  C_13 
REMARK    4  A    between atoms: C_15  and  O_16 
REMARK    5  A    between atoms: O_16  and  C_17 
ROOT
HETATM    1  C   UNL     1      44.073 -15.088   6.842  1.00  0.00     0.273 C 
HETATM    2  N   UNL     1      42.880 -14.469   6.540  1.00  0.00    -0.351 N 
HETATM    3  O   UNL     1      45.170 -14.568   6.661  1.00  0.00    -0.266 OA
HETATM    4  H   UNL     1      42.048 -15.033   6.682  1.00  0.00     0.163 HD
ENDROOT
BRANCH   2   5
HETATM    5  C   UNL     1      42.800 -13.160   5.956  1.00  0.00     0.161 C 
BRANCH   5   6
HETATM    6  C   UNL     1      41.973 -13.160   4.702  1.00  0.00    -0.035 A 
HETATM    7  C   UNL     1      42.179 -14.129   3.716  1.00  0.00     0.066 A 
HETATM    8  C   UNL     1      41.412 -14.082   2.562  1.00  0.00     0.164 A 
HETATM    9  N   UNL     1      40.450 -13.164   2.339  1.00  0.00    -0.237 NA
HETATM   10  C   UNL     1      40.244 -12.256   3.316  1.00  0.00     0.120 A 
HETATM   11  C   UNL     1      40.968 -12.212   4.498  1.00  0.00     0.028 A 
BRANCH   8  12
HETATM   12  O   UNL     1      41.682 -15.049   1.614  1.00  0.00    -0.329 OA
BRANCH  12  13
HETATM   13  C   UNL     1      42.155 -16.286   2.141  1.00  0.00     0.130 C 
HETATM   14  C   UNL     1      41.388 -17.481   1.570  1.00  0.00     0.032 C 
HETATM   15  C   UNL     1      42.411 -18.601   1.570  1.00  0.00     0.002 C 
HETATM   16  C   UNL     1      43.671 -17.907   1.082  1.00  0.00     0.002 C 
HETATM   17  C   UNL     1      43.607 -16.502   1.679  1.00  0.00     0.032 C 
ENDBRANCH  12  13
ENDBRANCH   8  12
ENDBRANCH   5   6
ENDBRANCH   2   5
BRANCH   1  18
HETATM   18  C   UNL     1      43.893 -16.432   7.415  1.00  0.00     0.157 A 
HETATM   19  C   UNL     1      44.025 -17.685   6.747  1.00  0.00     0.029 A 
HETATM   20  C   UNL     1      44.324 -18.111   5.437  1.00  0.00     0.023 A 
HETATM   21  C   UNL     1      43.782 -18.644   7.722  1.00  0.00     0.063 A 
HETATM   22  C   UNL     1      44.364 -19.485   5.147  1.00  0.00    -0.061 A 
HETATM   23  C   UNL     1      44.681 -19.960   3.758  1.00  0.00     0.048 C 
HETATM   24  C   UNL     1      44.123 -20.418   6.164  1.00  0.00     0.009 A 
HETATM   25  C   UNL     1      43.826 -20.018   7.471  1.00  0.00     0.032 A 
HETATM   26  N   UNL     1      43.521 -17.938   8.864  1.00  0.00    -0.277 N 
HETATM   27  H   UNL     1      43.301 -18.315   9.778  1.00  0.00     0.189 HD
HETATM   28  N   UNL     1      43.572 -16.602   8.719  1.00  0.00    -0.168 NA
ENDBRANCH   1  18
TORSDOF 5
ENDMDL
MODEL 5
REMARK VINA RESULT:      -8.6      2.415      3.297
REMARK  5 active torsions:
REMARK  status: ('A' for Active; 'I' for Inactive)
REMARK    1  A    between atoms: C_9  and  C_10 
REMARK       I    between atoms: C_10  and  N_11 
REMARK    2  A    between atoms: N_11  and  C_12 
REMARK    3  A    between atoms: C_12  and  C_13 
REMARK    4  A    between atoms: C_15  and  O_16 
REMARK    5  A    between atoms: O_16  and  C_17 
ROOT
HETATM    1  C   UNL     1      44.207 -14.665   7.014  1.00  0.00     0.273 C 
HETATM    2  N   UNL     1      43.113 -14.197   6.322  1.00  0.00    -0.351 N 
HETATM    3  O   UNL     1      44.412 -15.855   7.234  1.00  0.00    -0.266 OA
HETATM    4  H   UNL     1      43.033 -13.187   6.262  1.00  0.00     0.163 HD
ENDROOT
BRANCH   2   5
HETATM    5  C   UNL     1      42.082 -15.055   5.809  1.00  0.00     0.161 C 
BRANCH   5   6
HETATM    6  C   UNL     1      42.332 -15.429   4.376  1.00  0.00    -0.035 A 
HETATM    7  C   UNL     1      43.117 -16.541   4.058  1.00  0.00     0.066 A 
HETATM    8  C   UNL     1      43.346 -16.839   2.724  1.00  0.00     0.164 A 
HETATM    9  N   UNL     1      42.830 -16.130   1.699  1.00  0.00    -0.237 NA
HETATM   10  C   UNL     1      42.048 -15.079   2.025  1.00  0.00     0.120 A 
HETATM   11  C   UNL     1      41.774 -14.692   3.328  1.00  0.00     0.028 A 
BRANCH   8  12
HETATM   12  O   UNL     1      44.151 -17.932   2.475  1.00  0.00    -0.329 OA
BRANCH  12  13
HETATM   13  C   UNL     1      43.580 -19.189   2.835  1.00  0.00     0.130 C 
HETATM   14  C   UNL     1      43.607 -20.182   1.671  1.00  0.00     0.032 C 
HETATM   15  C   UNL     1      43.731 -21.532   2.351  1.00  0.00     0.002 C 
HETATM   16  C   UNL     1      44.746 -21.264   3.449  1.00  0.00     0.002 C 
HETATM   17  C   UNL     1      44.455 -19.840   3.920  1.00  0.00     0.032 C 
ENDBRANCH  12  13
ENDBRANCH   8  12
ENDBRANCH   5   6
ENDBRANCH   2   5
BRANCH   1  18
HETATM   18  C   UNL     1      45.113 -13.588   7.451  1.00  0.00     0.157 A 
HETATM   19  C   UNL     1      44.996 -12.777   8.617  1.00  0.00     0.029 A 
HETATM   20  C   UNL     1      44.086 -12.663   9.688  1.00  0.00     0.023 A 
HETATM   21  C   UNL     1      46.102 -11.938   8.589  1.00  0.00     0.063 A 
HETATM   22  C   UNL     1      44.313 -11.706  10.692  1.00  0.00    -0.061 A 
HETATM   23  C   UNL     1      43.357 -11.568  11.842  1.00  0.00     0.048 C 
HETATM   24  C   UNL     1      45.449 -10.887  10.628  1.00  0.00     0.009 A 
HETATM   25  C   UNL     1      46.365 -10.985   9.576  1.00  0.00     0.032 A 
HETATM   26  N   UNL     1      46.781 -12.276   7.451  1.00  0.00    -0.277 N 
HETATM   27  H   UNL     1      47.643 -11.867   7.108  1.00  0.00     0.189 HD
HETATM   28  N   UNL     1      46.213 -13.263   6.734  1.00  0.00    -0.168 NA
ENDBRANCH   1  18
TORSDOF 5
ENDMDL
MODEL 6
REMARK VINA RESULT:      -8.4      6.011      9.644
REMARK  5 active torsions:
REMARK  status: ('A' for Active; 'I' for Inactive)
REMARK    1  A    between atoms: C_9  and  C_10 
REMARK       I    between atoms: C_10  and  N_11 
REMARK    2  A    between atoms: N_11  and  C_12 
REMARK    3  A    between atoms: C_12  and  C_13 
REMARK    4  A    between atoms: C_15  and  O_16 
REMARK    5  A    between atoms: O_16  and  C_17 
ROOT
HETATM    1  C   UNL     1      41.414 -16.953   2.729  1.00  0.00     0.273 C 
HETATM    2  N   UNL     1      40.927 -15.760   3.214  1.00  0.00    -0.351 N 
HETATM    3  O   UNL     1      41.049 -17.452   1.669  1.00  0.00    -0.266 OA
HETATM    4  H   UNL     1      41.268 -15.490   4.132  1.00  0.00     0.163 HD
ENDROOT
BRANCH   2   5
HETATM    5  C   UNL     1      39.920 -14.990   2.540  1.00  0.00     0.161 C 
BRANCH   5   6
HETATM    6  C   UNL     1      40.516 -14.086   1.499  1.00  0.00    -0.035 A 
HETATM    7  C   UNL     1      40.117 -14.182   0.163  1.00  0.00     0.066 A 
HETATM    8  C   UNL     1      40.708 -13.348  -0.773  1.00  0.00     0.164 A 
HETATM    9  N   UNL     1      41.636 -12.418  -0.467  1.00  0.00    -0.237 NA
HETATM   10  C   UNL     1      41.985 -12.318   0.833  1.00  0.00     0.120 A 
HETATM   11  C   UNL     1      41.463 -13.117   1.839  1.00  0.00     0.028 A 
BRANCH   8  12
HETATM   12  O   UNL     1      40.293 -13.510  -2.080  1.00  0.00    -0.329 OA
BRANCH  12  13
HETATM   13  C   UNL     1      39.389 -14.593  -2.289  1.00  0.00     0.130 C 
HETATM   14  C   UNL     1      38.146 -14.155  -3.067  1.00  0.00     0.032 C 
HETATM   15  C   UNL     1      37.746 -15.400  -3.837  1.00  0.00     0.002 C 
HETATM   16  C   UNL     1      39.080 -15.941  -4.321  1.00  0.00     0.002 C 
HETATM   17  C   UNL     1      40.065 -15.639  -3.193  1.00  0.00     0.032 C 
ENDBRANCH  12  13
ENDBRANCH   8  12
ENDBRANCH   5   6
ENDBRANCH   2   5
BRANCH   1  18
HETATM   18  C   UNL     1      42.427 -17.560   3.609  1.00  0.00     0.157 A 
HETATM   19  C   UNL     1      43.157 -18.765   3.388  1.00  0.00     0.029 A 
HETATM   20  C   UNL     1      43.202 -19.756   2.387  1.00  0.00     0.023 A 
HETATM   21  C   UNL     1      43.997 -18.887   4.487  1.00  0.00     0.063 A 
HETATM   22  C   UNL     1      44.085 -20.841   2.524  1.00  0.00    -0.061 A 
HETATM   23  C   UNL     1      44.149 -21.907   1.469  1.00  0.00     0.048 C 
HETATM   24  C   UNL     1      44.923 -20.918   3.645  1.00  0.00     0.009 A 
HETATM   25  C   UNL     1      44.896 -19.944   4.649  1.00  0.00     0.032 A 
HETATM   26  N   UNL     1      43.726 -17.800   5.270  1.00  0.00    -0.277 N 
HETATM   27  H   UNL     1      44.155 -17.562   6.157  1.00  0.00     0.189 HD
HETATM   28  N   UNL     1      42.780 -16.979   4.778  1.00  0.00    -0.168 NA
ENDBRANCH   1  18
TORSDOF 5
ENDMDL
MODEL 7
REMARK VINA RESULT:      -8.4      1.920      9.545
REMARK  5 active torsions:
REMARK  status: ('A' for Active; 'I' for Inactive)
REMARK    1  A    between atoms: C_9  and  C_10 
REMARK       I    between atoms: C_10  and  N_11 
REMARK    2  A    between atoms: N_11  and  C_12 
REMARK    3  A    between atoms: C_12  and  C_13 
REMARK    4  A    between atoms: C_15  and  O_16 
REMARK    5  A    between atoms: O_16  and  C_17 
ROOT
HETATM    1  C   UNL     1      43.616 -15.830   6.154  1.00  0.00     0.273 C 
HETATM    2  N   UNL     1      43.637 -14.867   7.138  1.00  0.00    -0.351 N 
HETATM    3  O   UNL     1      43.578 -15.572   4.955  1.00  0.00    -0.266 OA
HETATM    4  H   UNL     1      43.607 -15.215   8.091  1.00  0.00     0.163 HD
ENDROOT
BRANCH   2   5
HETATM    5  C   UNL     1      43.588 -13.459   6.860  1.00  0.00     0.161 C 
BRANCH   5   6
HETATM    6  C   UNL     1      44.335 -12.663   7.893  1.00  0.00    -0.035 A 
HETATM    7  C   UNL     1      43.648 -11.830   8.781  1.00  0.00     0.066 A 
HETATM    8  C   UNL     1      44.373 -11.092   9.703  1.00  0.00     0.164 A 
HETATM    9  N   UNL     1      45.716 -11.148   9.817  1.00  0.00    -0.237 NA
HETATM   10  C   UNL     1      46.360 -11.981   8.971  1.00  0.00     0.120 A 
HETATM   11  C   UNL     1      45.724 -12.748   8.006  1.00  0.00     0.028 A 
BRANCH   8  12
HETATM   12  O   UNL     1      43.641 -10.268  10.533  1.00  0.00    -0.329 OA
BRANCH  12  13
HETATM   13  C   UNL     1      43.585 -10.690  11.894  1.00  0.00     0.130 C 
HETATM   14  C   UNL     1      43.576  -9.503  12.860  1.00  0.00     0.032 C 
HETATM   15  C   UNL     1      42.773 -10.006  14.044  1.00  0.00     0.002 C 
HETATM   16  C   UNL     1      41.629 -10.755  13.383  1.00  0.00     0.002 C 
HETATM   17  C   UNL     1      42.241 -11.400  12.141  1.00  0.00     0.032 C 
ENDBRANCH  12  13
ENDBRANCH   8  12
ENDBRANCH   5   6
ENDBRANCH   2   5
BRANCH   1  18
HETATM   18  C   UNL     1      43.657 -17.200   6.692  1.00  0.00     0.157 A 
HETATM   19  C   UNL     1      43.947 -18.402   5.981  1.00  0.00     0.029 A 
HETATM   20  C   UNL     1      44.258 -18.744   4.649  1.00  0.00     0.023 A 
HETATM   21  C   UNL     1      43.885 -19.411   6.933  1.00  0.00     0.063 A 
HETATM   22  C   UNL     1      44.490 -20.090   4.315  1.00  0.00    -0.061 A 
HETATM   23  C   UNL     1      44.822 -20.476   2.903  1.00  0.00     0.048 C 
HETATM   24  C   UNL     1      44.426 -21.074   5.310  1.00  0.00     0.009 A 
HETATM   25  C   UNL     1      44.121 -20.756   6.638  1.00  0.00     0.032 A 
HETATM   26  N   UNL     1      43.565 -18.782   8.104  1.00  0.00    -0.277 N 
HETATM   27  H   UNL     1      43.436 -19.211   9.013  1.00  0.00     0.189 HD
HETATM   28  N   UNL     1      43.413 -17.449   7.999  1.00  0.00    -0.168 NA
ENDBRANCH   1  18
TORSDOF 5
ENDMDL
MODEL 8
REMARK VINA RESULT:      -8.3      5.616      7.757
REMARK  5 active torsions:
REMARK  status: ('A' for Active; 'I' for Inactive)
REMARK    1  A    between atoms: C_9  and  C_10 
REMARK       I    between atoms: C_10  and  N_11 
REMARK    2  A    between atoms: N_11  and  C_12 
REMARK    3  A    between atoms: C_12  and  C_13 
REMARK    4  A    between atoms: C_15  and  O_16 
REMARK    5  A    between atoms: O_16  and  C_17 
ROOT
HETATM    1  C   UNL     1      41.830 -13.147   2.010  1.00  0.00     0.273 C 
HETATM    2  N   UNL     1      42.885 -13.683   2.712  1.00  0.00    -0.351 N 
HETATM    3  O   UNL     1      41.009 -12.379   2.503  1.00  0.00    -0.266 OA
HETATM    4  H   UNL     1      43.455 -14.351   2.201  1.00  0.00     0.163 HD
ENDROOT
BRANCH   2   5
HETATM    5  C   UNL     1      43.118 -13.421   4.104  1.00  0.00     0.161 C 
BRANCH   5   6
HETATM    6  C   UNL     1      43.369 -14.686   4.874  1.00  0.00    -0.035 A 
HETATM    7  C   UNL     1      43.048 -15.930   4.321  1.00  0.00     0.066 A 
HETATM    8  C   UNL     1      43.272 -17.073   5.071  1.00  0.00     0.164 A 
HETATM    9  N   UNL     1      43.812 -17.064   6.307  1.00  0.00    -0.237 NA
HETATM   10  C   UNL     1      44.145 -15.857   6.812  1.00  0.00     0.120 A 
HETATM   11  C   UNL     1      43.947 -14.658   6.145  1.00  0.00     0.028 A 
BRANCH   8  12
HETATM   12  O   UNL     1      42.908 -18.267   4.482  1.00  0.00    -0.329 OA
BRANCH  12  13
HETATM   13  C   UNL     1      43.835 -18.764   3.519  1.00  0.00     0.130 C 
HETATM   14  C   UNL     1      44.490 -20.068   3.979  1.00  0.00     0.032 C 
HETATM   15  C   UNL     1      44.766 -20.810   2.685  1.00  0.00     0.002 C 
HETATM   16  C   UNL     1      43.500 -20.567   1.881  1.00  0.00     0.002 C 
HETATM   17  C   UNL     1      43.068 -19.146   2.240  1.00  0.00     0.032 C 
ENDBRANCH  12  13
ENDBRANCH   8  12
ENDBRANCH   5   6
ENDBRANCH   2   5
BRANCH   1  18
HETATM   18  C   UNL     1      41.797 -13.579   0.602  1.00  0.00     0.157 A 
HETATM   19  C   UNL     1      42.082 -12.792  -0.553  1.00  0.00     0.029 A 
HETATM   20  C   UNL     1      42.447 -11.454  -0.806  1.00  0.00     0.023 A 
HETATM   21  C   UNL     1      41.937 -13.660  -1.627  1.00  0.00     0.063 A 
HETATM   22  C   UNL     1      42.649 -11.030  -2.131  1.00  0.00    -0.061 A 
HETATM   23  C   UNL     1      43.039  -9.610  -2.423  1.00  0.00     0.048 C 
HETATM   24  C   UNL     1      42.502 -11.943  -3.184  1.00  0.00     0.009 A 
HETATM   25  C   UNL     1      42.142 -13.275  -2.955  1.00  0.00     0.032 A 
HETATM   26  N   UNL     1      41.580 -14.859  -1.076  1.00  0.00    -0.277 N 
HETATM   27  H   UNL     1      41.391 -15.726  -1.566  1.00  0.00     0.189 HD
HETATM   28  N   UNL     1      41.479 -14.850   0.266  1.00  0.00    -0.168 NA
ENDBRANCH   1  18
TORSDOF 5
ENDMDL
MODEL 9
REMARK VINA RESULT:      -8.1      6.791     10.527
REMARK  5 active torsions:
REMARK  status: ('A' for Active; 'I' for Inactive)
REMARK    1  A    between atoms: C_9  and  C_10 
REMARK       I    between atoms: C_10  and  N_11 
REMARK    2  A    between atoms: N_11  and  C_12 
REMARK    3  A    between atoms: C_12  and  C_13 
REMARK    4  A    between atoms: C_15  and  O_16 
REMARK    5  A    between atoms: O_16  and  C_17 
ROOT
HETATM    1  C   UNL     1      41.366 -16.873   2.124  1.00  0.00     0.273 C 
HETATM    2  N   UNL     1      42.037 -16.166   1.152  1.00  0.00    -0.351 N 
HETATM    3  O   UNL     1      40.145 -16.994   2.153  1.00  0.00    -0.266 OA
HETATM    4  H   UNL     1      43.042 -16.094   1.279  1.00  0.00     0.163 HD
ENDROOT
BRANCH   2   5
HETATM    5  C   UNL     1      41.372 -15.473   0.084  1.00  0.00     0.161 C 
BRANCH   5   6
HETATM    6  C   UNL     1      41.709 -14.009   0.077  1.00  0.00    -0.035 A 
HETATM    7  C   UNL     1      42.226 -13.405  -1.072  1.00  0.00     0.066 A 
HETATM    8  C   UNL     1      42.548 -12.057  -1.032  1.00  0.00     0.164 A 
HETATM    9  N   UNL     1      42.366 -11.276   0.052  1.00  0.00    -0.237 NA
HETATM   10  C   UNL     1      41.837 -11.870   1.143  1.00  0.00     0.120 A 
HETATM   11  C   UNL     1      41.497 -13.213   1.205  1.00  0.00     0.028 A 
BRANCH   8  12
HETATM   12  O   UNL     1      43.080 -11.525  -2.189  1.00  0.00    -0.329 OA
BRANCH  12  13
HETATM   13  C   UNL     1      42.175 -10.729  -2.951  1.00  0.00     0.130 C 
HETATM   14  C   UNL     1      42.603  -9.260  -2.992  1.00  0.00     0.032 C 
HETATM   15  C   UNL     1      42.096  -8.774  -4.336  1.00  0.00     0.002 C 
HETATM   16  C   UNL     1      42.432  -9.930  -5.262  1.00  0.00     0.002 C 
HETATM   17  C   UNL     1      42.222 -11.187  -4.419  1.00  0.00     0.032 C 
ENDBRANCH  12  13
ENDBRANCH   8  12
ENDBRANCH   5   6
ENDBRANCH   2   5
BRANCH   1  18
HETATM   18  C   UNL     1      42.268 -17.479   3.118  1.00  0.00     0.157 A 
HETATM   19  C   UNL     1      42.982 -18.708   3.005  1.00  0.00     0.029 A 
HETATM   20  C   UNL     1      43.100 -19.730   2.040  1.00  0.00     0.023 A 
HETATM   21  C   UNL     1      43.703 -18.819   4.186  1.00  0.00     0.063 A 
HETATM   22  C   UNL     1      43.934 -20.831   2.295  1.00  0.00    -0.061 A 
HETATM   23  C   UNL     1      44.076 -21.930   1.281  1.00  0.00     0.048 C 
HETATM   24  C   UNL     1      44.652 -20.897   3.497  1.00  0.00     0.009 A 
HETATM   25  C   UNL     1      44.551 -19.894   4.468  1.00  0.00     0.032 A 
HETATM   26  N   UNL     1      43.384 -17.703   4.909  1.00  0.00    -0.277 N 
HETATM   27  H   UNL     1      43.728 -17.451   5.828  1.00  0.00     0.189 HD
HETATM   28  N   UNL     1      42.517 -16.873   4.302  1.00  0.00    -0.168 NA
ENDBRANCH   1  18
TORSDOF 5
ENDMDL
MODEL 10
REMARK VINA RESULT:      -8.1      6.444     10.478
REMARK  5 active torsions:
REMARK  status: ('A' for Active; 'I' for Inactive)
REMARK    1  A    between atoms: C_9  and  C_10 
REMARK       I    between atoms: C_10  and  N_11 
REMARK    2  A    between atoms: N_11  and  C_12 
REMARK    3  A    between atoms: C_12  and  C_13 
REMARK    4  A    between atoms: C_15  and  O_16 
REMARK    5  A    between atoms: O_16  and  C_17 
ROOT
HETATM    1  C   UNL     1      41.390 -16.997   1.701  1.00  0.00     0.273 C 
HETATM    2  N   UNL     1      42.005 -16.352   0.653  1.00  0.00    -0.351 N 
HETATM    3  O   UNL     1      40.183 -17.215   1.749  1.00  0.00    -0.266 OA
HETATM    4  H   UNL     1      42.999 -16.182   0.767  1.00  0.00     0.163 HD
ENDROOT
BRANCH   2   5
HETATM    5  C   UNL     1      41.290 -15.841  -0.484  1.00  0.00     0.161 C 
BRANCH   5   6
HETATM    6  C   UNL     1      40.930 -14.393  -0.309  1.00  0.00    -0.035 A 
HETATM    7  C   UNL     1      41.928 -13.429  -0.138  1.00  0.00     0.066 A 
HETATM    8  C   UNL     1      41.557 -12.107   0.044  1.00  0.00     0.164 A 
HETATM    9  N   UNL     1      40.277 -11.681   0.041  1.00  0.00    -0.237 NA
HETATM   10  C   UNL     1      39.328 -12.622  -0.156  1.00  0.00     0.120 A 
HETATM   11  C   UNL     1      39.599 -13.970  -0.333  1.00  0.00     0.028 A 
BRANCH   8  12
HETATM   12  O   UNL     1      42.586 -11.207   0.236  1.00  0.00    -0.329 OA
BRANCH  12  13
HETATM   13  C   UNL     1      42.504 -10.028  -0.563  1.00  0.00     0.130 C 
HETATM   14  C   UNL     1      42.403  -8.765   0.294  1.00  0.00     0.032 C 
HETATM   15  C   UNL     1      43.082  -7.701  -0.548  1.00  0.00     0.002 C 
HETATM   16  C   UNL     1      44.295  -8.432  -1.099  1.00  0.00     0.002 C 
HETATM   17  C   UNL     1      43.820  -9.863  -1.344  1.00  0.00     0.032 C 
ENDBRANCH  12  13
ENDBRANCH   8  12
ENDBRANCH   5   6
ENDBRANCH   2   5
BRANCH   1  18
HETATM   18  C   UNL     1      42.334 -17.411   2.754  1.00  0.00     0.157 A 
HETATM   19  C   UNL     1      43.087 -18.620   2.817  1.00  0.00     0.029 A 
HETATM   20  C   UNL     1      43.219 -19.777   2.022  1.00  0.00     0.023 A 
HETATM   21  C   UNL     1      43.838 -18.519   3.981  1.00  0.00     0.063 A 
HETATM   22  C   UNL     1      44.095 -20.799   2.426  1.00  0.00    -0.061 A 
HETATM   23  C   UNL     1      44.251 -22.039   1.594  1.00  0.00     0.048 C 
HETATM   24  C   UNL     1      44.841 -20.650   3.603  1.00  0.00     0.009 A 
HETATM   25  C   UNL     1      44.727 -19.510   4.405  1.00  0.00     0.032 A 
HETATM   26  N   UNL     1      43.497 -17.313   4.526  1.00  0.00    -0.277 N 
HETATM   27  H   UNL     1      43.852 -16.907   5.384  1.00  0.00     0.189 HD
HETATM   28  N   UNL     1      42.588 -16.617   3.820  1.00  0.00    -0.168 NA
ENDBRANCH   1  18
TORSDOF 5
ENDMDL
