MODEL 1
REMARK VINA RESULT:      -7.8      0.000      0.000
REMARK  6 active torsions:
REMARK  status: ('A' for Active; 'I' for Inactive)
REMARK    1  A    between atoms: C_3  and  N_4 
REMARK       I    between atoms: N_4  and  C_5 
REMARK       I    between atoms: C_5  and  N_6 
REMARK    2  A    between atoms: N_6  and  C_7 
REMARK    3  A    between atoms: C_7  and  C_8 
REMARK    4  A    between atoms: C_8  and  N_9 
REMARK    5  A    between atoms: C_8  and  C_13 
REMARK    6  A    between atoms: C_20  and  C_21 
ROOT
HETATM    1  N   UNL     1      42.899 -15.732   1.950  1.00  0.00    -0.309 N 
HETATM    2  C   UNL     1      41.740 -15.685   1.218  1.00  0.00     0.320 C 
HETATM    3  N   UNL     1      41.823 -14.747   0.212  1.00  0.00    -0.340 N 
HETATM    4  O   UNL     1      40.731 -16.360   1.361  1.00  0.00    -0.247 OA
HETATM    5  H   UNL     1      43.382 -14.845   1.988  1.00  0.00     0.170 HD
HETATM    6  H   UNL     1      42.704 -14.274   0.050  1.00  0.00     0.164 HD
ENDROOT
BRANCH   1   7
HETATM    7  C   UNL     1      43.212 -16.611   3.017  1.00  0.00     0.043 A 
HETATM    8  C   UNL     1      43.247 -16.286   4.383  1.00  0.00    -0.035 A 
HETATM    9  C   UNL     1      42.869 -14.954   4.964  1.00  0.00     0.050 C 
HETATM   10  C   UNL     1      43.634 -17.281   5.304  1.00  0.00     0.010 A 
HETATM   11  C   UNL     1      43.920 -18.585   4.897  1.00  0.00     0.016 A 
HETATM   12  C   UNL     1      43.821 -18.938   3.551  1.00  0.00     0.019 A 
HETATM   13  C   UNL     1      43.463 -17.942   2.629  1.00  0.00     0.046 A 
BRANCH  12  14
HETATM   14  C   UNL     1      44.082 -20.293   3.077  1.00  0.00     0.179 A 
HETATM   15  O   UNL     1      43.696 -20.591   1.796  1.00  0.00    -0.302 OA
HETATM   16  C   UNL     1      44.062 -21.893   1.631  1.00  0.00     0.163 A 
HETATM   17  C   UNL     1      44.645 -22.319   2.797  1.00  0.00     0.144 A 
HETATM   18  N   UNL     1      44.657 -21.299   3.714  1.00  0.00    -0.234 NA
ENDBRANCH  12  14
ENDBRANCH   1   7
BRANCH   3  19
HETATM   19  C   UNL     1      40.664 -14.349  -0.574  1.00  0.00     0.164 C 
BRANCH  19  20
HETATM   20  C   UNL     1      40.873 -14.198  -2.108  1.00  0.00     0.261 C 
BRANCH  20  21
HETATM   21  N   UNL     1      41.291 -12.804  -2.586  1.00  0.00    -0.067 N 
HETATM   22  H   UNL     1      40.865 -12.726  -3.516  1.00  0.00     0.280 HD
HETATM   23  C   UNL     1      40.737 -11.635  -1.824  1.00  0.00     0.270 C 
HETATM   24  C   UNL     1      42.772 -12.668  -2.798  1.00  0.00     0.270 C 
ENDBRANCH  20  21
BRANCH  20  25
HETATM   25  C   UNL     1      39.729 -14.770  -2.892  1.00  0.00     0.085 A 
HETATM   26  O   UNL     1      40.022 -15.735  -3.814  1.00  0.00    -0.325 OA
HETATM   27  C   UNL     1      38.851 -16.099  -4.399  1.00  0.00     0.142 A 
HETATM   28  C   UNL     1      37.807 -15.382  -3.867  1.00  0.00     0.027 A 
HETATM   29  C   UNL     1      38.370 -14.522  -2.893  1.00  0.00     0.037 A 
ENDBRANCH  20  25
ENDBRANCH  19  20
ENDBRANCH   3  19
TORSDOF 6
ENDMDL
MODEL 2
REMARK VINA RESULT:      -7.7      1.222      2.363
REMARK  6 active torsions:
REMARK  status: ('A' for Active; 'I' for Inactive)
REMARK    1  A    between atoms: C_3  and  N_4 
REMARK       I    between atoms: N_4  and  C_5 
REMARK       I    between atoms: C_5  and  N_6 
REMARK    2  A    between atoms: N_6  and  C_7 
REMARK    3  A    between atoms: C_7  and  C_8 
REMARK    4  A    between atoms: C_8  and  N_9 
REMARK    5  A    between atoms: C_8  and  C_13 
REMARK    6  A    between atoms: C_20  and  C_21 
ROOT
HETATM    1  N   UNL     1      42.436 -15.775   1.653  1.00  0.00    -0.309 N 
HETATM    2  C   UNL     1      41.138 -15.465   1.336  1.00  0.00     0.320 C 
HETATM    3  N   UNL     1      41.069 -14.731   0.173  1.00  0.00    -0.340 N 
HETATM    4  O   UNL     1      40.122 -15.773   1.942  1.00  0.00    -0.247 OA
HETATM    5  H   UNL     1      43.100 -15.082   1.333  1.00  0.00     0.170 HD
HETATM    6  H   UNL     1      41.915 -14.576  -0.364  1.00  0.00     0.164 HD
ENDROOT
BRANCH   1   7
HETATM    7  C   UNL     1      42.897 -16.568   2.733  1.00  0.00     0.043 A 
HETATM    8  C   UNL     1      43.038 -16.157   4.068  1.00  0.00    -0.035 A 
HETATM    9  C   UNL     1      42.638 -14.813   4.606  1.00  0.00     0.050 C 
HETATM   10  C   UNL     1      43.567 -17.070   5.004  1.00  0.00     0.010 A 
HETATM   11  C   UNL     1      43.889 -18.381   4.646  1.00  0.00     0.016 A 
HETATM   12  C   UNL     1      43.688 -18.821   3.339  1.00  0.00     0.019 A 
HETATM   13  C   UNL     1      43.189 -17.905   2.400  1.00  0.00     0.046 A 
BRANCH  12  14
HETATM   14  C   UNL     1      43.983 -20.188   2.920  1.00  0.00     0.179 A 
HETATM   15  O   UNL     1      43.519 -20.578   1.691  1.00  0.00    -0.302 OA
HETATM   16  C   UNL     1      43.939 -21.868   1.569  1.00  0.00     0.163 A 
HETATM   17  C   UNL     1      44.628 -22.198   2.708  1.00  0.00     0.144 A 
HETATM   18  N   UNL     1      44.655 -21.126   3.564  1.00  0.00    -0.234 NA
ENDBRANCH  12  14
ENDBRANCH   1   7
BRANCH   3  19
HETATM   19  C   UNL     1      39.836 -14.097  -0.272  1.00  0.00     0.164 C 
BRANCH  19  20
HETATM   20  C   UNL     1      39.626 -13.966  -1.807  1.00  0.00     0.261 C 
BRANCH  20  21
HETATM   21  N   UNL     1      39.245 -15.257  -2.537  1.00  0.00    -0.067 N 
HETATM   22  H   UNL     1      38.873 -15.859  -1.794  1.00  0.00     0.280 HD
HETATM   23  C   UNL     1      38.128 -15.164  -3.535  1.00  0.00     0.270 C 
HETATM   24  C   UNL     1      40.427 -15.990  -3.106  1.00  0.00     0.270 C 
ENDBRANCH  20  21
BRANCH  20  25
HETATM   25  C   UNL     1      40.751 -13.226  -2.470  1.00  0.00     0.085 A 
HETATM   26  O   UNL     1      41.976 -13.278  -1.868  1.00  0.00    -0.325 OA
HETATM   27  C   UNL     1      42.828 -12.544  -2.629  1.00  0.00     0.142 A 
HETATM   28  C   UNL     1      42.169 -12.018  -3.713  1.00  0.00     0.027 A 
HETATM   29  C   UNL     1      40.826 -12.456  -3.614  1.00  0.00     0.037 A 
ENDBRANCH  20  25
ENDBRANCH  19  20
ENDBRANCH   3  19
TORSDOF 6
ENDMDL
MODEL 3
REMARK VINA RESULT:      -7.7      1.544      2.002
REMARK  6 active torsions:
REMARK  status: ('A' for Active; 'I' for Inactive)
REMARK    1  A    between atoms: C_3  and  N_4 
REMARK       I    between atoms: N_4  and  C_5 
REMARK       I    between atoms: C_5  and  N_6 
REMARK    2  A    between atoms: N_6  and  C_7 
REMARK    3  A    between atoms: C_7  and  C_8 
REMARK    4  A    between atoms: C_8  and  N_9 
REMARK    5  A    between atoms: C_8  and  C_13 
REMARK    6  A    between atoms: C_20  and  C_21 
ROOT
HETATM    1  N   UNL     1      41.401 -16.177   0.338  1.00  0.00    -0.309 N 
HETATM    2  C   UNL     1      41.681 -14.944  -0.195  1.00  0.00     0.320 C 
HETATM    3  N   UNL     1      41.419 -14.911  -1.546  1.00  0.00    -0.340 N 
HETATM    4  O   UNL     1      42.095 -13.950   0.385  1.00  0.00    -0.247 OA
HETATM    5  H   UNL     1      41.528 -16.933  -0.322  1.00  0.00     0.170 HD
HETATM    6  H   UNL     1      40.982 -15.715  -1.983  1.00  0.00     0.164 HD
ENDROOT
BRANCH   1   7
HETATM    7  C   UNL     1      41.482 -16.570   1.697  1.00  0.00     0.043 A 
HETATM    8  C   UNL     1      40.731 -16.050   2.762  1.00  0.00    -0.035 A 
HETATM    9  C   UNL     1      39.635 -15.030   2.630  1.00  0.00     0.050 C 
HETATM   10  C   UNL     1      40.985 -16.526   4.065  1.00  0.00     0.010 A 
HETATM   11  C   UNL     1      41.914 -17.540   4.305  1.00  0.00     0.016 A 
HETATM   12  C   UNL     1      42.616 -18.114   3.246  1.00  0.00     0.019 A 
HETATM   13  C   UNL     1      42.385 -17.621   1.953  1.00  0.00     0.046 A 
BRANCH  12  14
HETATM   14  C   UNL     1      43.578 -19.194   3.441  1.00  0.00     0.179 A 
HETATM   15  O   UNL     1      43.784 -20.044   2.384  1.00  0.00    -0.302 OA
HETATM   16  C   UNL     1      44.714 -20.927   2.843  1.00  0.00     0.163 A 
HETATM   17  C   UNL     1      45.026 -20.582   4.132  1.00  0.00     0.144 A 
HETATM   18  N   UNL     1      44.303 -19.478   4.508  1.00  0.00    -0.234 NA
ENDBRANCH  12  14
ENDBRANCH   1   7
BRANCH   3  19
HETATM   19  C   UNL     1      41.825 -13.796  -2.388  1.00  0.00     0.164 C 
BRANCH  19  20
HETATM   20  C   UNL     1      40.793 -13.296  -3.439  1.00  0.00     0.261 C 
BRANCH  20  21
HETATM   21  N   UNL     1      40.329 -11.846  -3.276  1.00  0.00    -0.067 N 
HETATM   22  H   UNL     1      39.318 -11.927  -3.124  1.00  0.00     0.280 HD
HETATM   23  C   UNL     1      40.830 -11.108  -2.067  1.00  0.00     0.270 C 
HETATM   24  C   UNL     1      40.492 -11.025  -4.524  1.00  0.00     0.270 C 
ENDBRANCH  20  21
BRANCH  20  25
HETATM   25  C   UNL     1      39.658 -14.260  -3.619  1.00  0.00     0.085 A 
HETATM   26  O   UNL     1      39.961 -15.505  -4.092  1.00  0.00    -0.325 OA
HETATM   27  C   UNL     1      38.796 -16.197  -4.177  1.00  0.00     0.142 A 
HETATM   28  C   UNL     1      37.744 -15.415  -3.765  1.00  0.00     0.027 A 
HETATM   29  C   UNL     1      38.297 -14.162  -3.403  1.00  0.00     0.037 A 
ENDBRANCH  20  25
ENDBRANCH  19  20
ENDBRANCH   3  19
TORSDOF 6
ENDMDL
MODEL 4
REMARK VINA RESULT:      -7.6      5.452      8.879
REMARK  6 active torsions:
REMARK  status: ('A' for Active; 'I' for Inactive)
REMARK    1  A    between atoms: C_3  and  N_4 
REMARK       I    between atoms: N_4  and  C_5 
REMARK       I    between atoms: C_5  and  N_6 
REMARK    2  A    between atoms: N_6  and  C_7 
REMARK    3  A    between atoms: C_7  and  C_8 
REMARK    4  A    between atoms: C_8  and  N_9 
REMARK    5  A    between atoms: C_8  and  C_13 
REMARK    6  A    between atoms: C_20  and  C_21 
ROOT
HETATM    1  N   UNL     1      43.179 -14.375   6.235  1.00  0.00    -0.309 N 
HETATM    2  C   UNL     1      44.171 -13.748   6.944  1.00  0.00     0.320 C 
HETATM    3  N   UNL     1      43.649 -12.955   7.942  1.00  0.00    -0.340 N 
HETATM    4  O   UNL     1      45.381 -13.840   6.788  1.00  0.00    -0.247 OA
HETATM    5  H   UNL     1      42.319 -13.843   6.198  1.00  0.00     0.170 HD
HETATM    6  H   UNL     1      42.650 -12.977   8.116  1.00  0.00     0.164 HD
ENDROOT
BRANCH   1   7
HETATM    7  C   UNL     1      43.328 -15.314   5.183  1.00  0.00     0.043 A 
HETATM    8  C   UNL     1      43.291 -15.038   3.807  1.00  0.00    -0.035 A 
HETATM    9  C   UNL     1      43.171 -13.667   3.204  1.00  0.00     0.050 C 
HETATM   10  C   UNL     1      43.404 -16.111   2.900  1.00  0.00     0.010 A 
HETATM   11  C   UNL     1      43.613 -17.420   3.336  1.00  0.00     0.016 A 
HETATM   12  C   UNL     1      43.721 -17.697   4.698  1.00  0.00     0.019 A 
HETATM   13  C   UNL     1      43.580 -16.634   5.604  1.00  0.00     0.046 A 
BRANCH  12  14
HETATM   14  C   UNL     1      43.966 -19.044   5.205  1.00  0.00     0.179 A 
HETATM   15  O   UNL     1      43.472 -19.341   6.449  1.00  0.00    -0.302 OA
HETATM   16  C   UNL     1      43.839 -20.637   6.653  1.00  0.00     0.163 A 
HETATM   17  C   UNL     1      44.526 -21.061   5.544  1.00  0.00     0.144 A 
HETATM   18  N   UNL     1      44.603 -20.046   4.625  1.00  0.00    -0.234 NA
ENDBRANCH  12  14
ENDBRANCH   1   7
BRANCH   3  19
HETATM   19  C   UNL     1      44.469 -12.023   8.701  1.00  0.00     0.164 C 
BRANCH  19  20
HETATM   20  C   UNL     1      43.720 -10.997   9.599  1.00  0.00     0.261 C 
BRANCH  20  21
HETATM   21  N   UNL     1      43.599 -11.374  11.078  1.00  0.00    -0.067 N 
HETATM   22  H   UNL     1      42.607 -11.613  11.190  1.00  0.00     0.280 HD
HETATM   23  C   UNL     1      44.330 -12.608  11.523  1.00  0.00     0.270 C 
HETATM   24  C   UNL     1      43.852 -10.222  12.008  1.00  0.00     0.270 C 
ENDBRANCH  20  21
BRANCH  20  25
HETATM   25  C   UNL     1      42.418 -10.562   8.993  1.00  0.00     0.085 A 
HETATM   26  O   UNL     1      42.451 -10.084   7.714  1.00  0.00    -0.325 OA
HETATM   27  C   UNL     1      41.177  -9.751   7.379  1.00  0.00     0.142 A 
HETATM   28  C   UNL     1      40.324 -10.007   8.425  1.00  0.00     0.027 A 
HETATM   29  C   UNL     1      41.122 -10.532   9.470  1.00  0.00     0.037 A 
ENDBRANCH  20  25
ENDBRANCH  19  20
ENDBRANCH   3  19
TORSDOF 6
ENDMDL
MODEL 5
REMARK VINA RESULT:      -7.6      1.566      2.907
REMARK  6 active torsions:
REMARK  status: ('A' for Active; 'I' for Inactive)
REMARK    1  A    between atoms: C_3  and  N_4 
REMARK       I    between atoms: N_4  and  C_5 
REMARK       I    between atoms: C_5  and  N_6 
REMARK    2  A    between atoms: N_6  and  C_7 
REMARK    3  A    between atoms: C_7  and  C_8 
REMARK    4  A    between atoms: C_8  and  N_9 
REMARK    5  A    between atoms: C_8  and  C_13 
REMARK    6  A    between atoms: C_20  and  C_21 
ROOT
HETATM    1  N   UNL     1      42.991 -16.272   1.630  1.00  0.00    -0.309 N 
HETATM    2  C   UNL     1      41.964 -16.593   0.780  1.00  0.00     0.320 C 
HETATM    3  N   UNL     1      42.048 -15.882  -0.397  1.00  0.00    -0.340 N 
HETATM    4  O   UNL     1      41.064 -17.402   0.958  1.00  0.00    -0.247 OA
HETATM    5  H   UNL     1      43.317 -15.321   1.519  1.00  0.00     0.170 HD
HETATM    6  H   UNL     1      42.858 -15.295  -0.561  1.00  0.00     0.164 HD
ENDROOT
BRANCH   1   7
HETATM    7  C   UNL     1      43.275 -16.841   2.897  1.00  0.00     0.043 A 
HETATM    8  C   UNL     1      43.216 -16.186   4.138  1.00  0.00    -0.035 A 
HETATM    9  C   UNL     1      42.752 -14.772   4.347  1.00  0.00     0.050 C 
HETATM   10  C   UNL     1      43.587 -16.898   5.296  1.00  0.00     0.010 A 
HETATM   11  C   UNL     1      43.947 -18.246   5.243  1.00  0.00     0.016 A 
HETATM   12  C   UNL     1      43.942 -18.926   4.026  1.00  0.00     0.019 A 
HETATM   13  C   UNL     1      43.601 -18.211   2.868  1.00  0.00     0.046 A 
BRANCH  12  14
HETATM   14  C   UNL     1      44.284 -20.341   3.921  1.00  0.00     0.179 A 
HETATM   15  O   UNL     1      44.656 -20.981   5.075  1.00  0.00    -0.302 OA
HETATM   16  C   UNL     1      44.907 -22.261   4.681  1.00  0.00     0.163 A 
HETATM   17  C   UNL     1      44.680 -22.340   3.332  1.00  0.00     0.144 A 
HETATM   18  N   UNL     1      44.282 -21.118   2.851  1.00  0.00    -0.234 NA
ENDBRANCH  12  14
ENDBRANCH   1   7
BRANCH   3  19
HETATM   19  C   UNL     1      40.973 -15.877  -1.378  1.00  0.00     0.164 C 
BRANCH  19  20
HETATM   20  C   UNL     1      40.407 -14.490  -1.795  1.00  0.00     0.261 C 
BRANCH  20  21
HETATM   21  N   UNL     1      39.755 -14.428  -3.179  1.00  0.00    -0.067 N 
HETATM   22  H   UNL     1      40.469 -13.985  -3.768  1.00  0.00     0.280 HD
HETATM   23  C   UNL     1      39.476 -15.740  -3.854  1.00  0.00     0.270 C 
HETATM   24  C   UNL     1      38.559 -13.520  -3.233  1.00  0.00     0.270 C 
ENDBRANCH  20  21
BRANCH  20  25
HETATM   25  C   UNL     1      41.394 -13.384  -1.560  1.00  0.00     0.085 A 
HETATM   26  O   UNL     1      41.435 -12.836  -0.309  1.00  0.00    -0.325 OA
HETATM   27  C   UNL     1      42.384 -11.865  -0.328  1.00  0.00     0.142 A 
HETATM   28  C   UNL     1      42.955 -11.778  -1.574  1.00  0.00     0.027 A 
HETATM   29  C   UNL     1      42.318 -12.758  -2.373  1.00  0.00     0.037 A 
ENDBRANCH  20  25
ENDBRANCH  19  20
ENDBRANCH   3  19
TORSDOF 6
ENDMDL
MODEL 6
REMARK VINA RESULT:      -7.5      1.976      3.170
REMARK  6 active torsions:
REMARK  status: ('A' for Active; 'I' for Inactive)
REMARK    1  A    between atoms: C_3  and  N_4 
REMARK       I    between atoms: N_4  and  C_5 
REMARK       I    between atoms: C_5  and  N_6 
REMARK    2  A    between atoms: N_6  and  C_7 
REMARK    3  A    between atoms: C_7  and  C_8 
REMARK    4  A    between atoms: C_8  and  N_9 
REMARK    5  A    between atoms: C_8  and  C_13 
REMARK    6  A    between atoms: C_20  and  C_21 
ROOT
HETATM    1  N   UNL     1      40.843 -16.610   0.795  1.00  0.00    -0.309 N 
HETATM    2  C   UNL     1      41.218 -15.671  -0.132  1.00  0.00     0.320 C 
HETATM    3  N   UNL     1      40.548 -15.848  -1.322  1.00  0.00    -0.340 N 
HETATM    4  O   UNL     1      42.019 -14.757   0.005  1.00  0.00    -0.247 OA
HETATM    5  H   UNL     1      40.567 -17.490   0.380  1.00  0.00     0.170 HD
HETATM    6  H   UNL     1      39.817 -16.547  -1.376  1.00  0.00     0.164 HD
ENDROOT
BRANCH   1   7
HETATM    7  C   UNL     1      41.263 -16.709   2.145  1.00  0.00     0.043 A 
HETATM    8  C   UNL     1      40.845 -15.896   3.211  1.00  0.00    -0.035 A 
HETATM    9  C   UNL     1      39.800 -14.821   3.120  1.00  0.00     0.050 C 
HETATM   10  C   UNL     1      41.414 -16.106   4.484  1.00  0.00     0.010 A 
HETATM   11  C   UNL     1      42.328 -17.135   4.717  1.00  0.00     0.016 A 
HETATM   12  C   UNL     1      42.698 -17.993   3.682  1.00  0.00     0.019 A 
HETATM   13  C   UNL     1      42.154 -17.768   2.408  1.00  0.00     0.046 A 
BRANCH  12  14
HETATM   14  C   UNL     1      43.628 -19.100   3.880  1.00  0.00     0.179 A 
HETATM   15  O   UNL     1      43.894 -19.893   2.793  1.00  0.00    -0.302 OA
HETATM   16  C   UNL     1      44.777 -20.818   3.262  1.00  0.00     0.163 A 
HETATM   17  C   UNL     1      45.005 -20.551   4.588  1.00  0.00     0.144 A 
HETATM   18  N   UNL     1      44.274 -19.456   4.976  1.00  0.00    -0.234 NA
ENDBRANCH  12  14
ENDBRANCH   1   7
BRANCH   3  19
HETATM   19  C   UNL     1      40.911 -15.123  -2.531  1.00  0.00     0.164 C 
BRANCH  19  20
HETATM   20  C   UNL     1      39.876 -14.096  -3.073  1.00  0.00     0.261 C 
BRANCH  20  21
HETATM   21  N   UNL     1      38.808 -14.663  -4.013  1.00  0.00    -0.067 N 
HETATM   22  H   UNL     1      38.960 -14.157  -4.892  1.00  0.00     0.280 HD
HETATM   23  C   UNL     1      38.940 -16.111  -4.389  1.00  0.00     0.270 C 
HETATM   24  C   UNL     1      37.406 -14.334  -3.586  1.00  0.00     0.270 C 
ENDBRANCH  20  21
BRANCH  20  25
HETATM   25  C   UNL     1      40.536 -12.860  -3.610  1.00  0.00     0.085 A 
HETATM   26  O   UNL     1      39.721 -11.851  -4.039  1.00  0.00    -0.325 OA
HETATM   27  C   UNL     1      40.524 -10.848  -4.481  1.00  0.00     0.142 A 
HETATM   28  C   UNL     1      41.846 -11.198  -4.343  1.00  0.00     0.027 A 
HETATM   29  C   UNL     1      41.857 -12.497  -3.781  1.00  0.00     0.037 A 
ENDBRANCH  20  25
ENDBRANCH  19  20
ENDBRANCH   3  19
TORSDOF 6
ENDMDL
MODEL 7
REMARK VINA RESULT:      -7.5      2.422      4.494
REMARK  6 active torsions:
REMARK  status: ('A' for Active; 'I' for Inactive)
REMARK    1  A    between atoms: C_3  and  N_4 
REMARK       I    between atoms: N_4  and  C_5 
REMARK       I    between atoms: C_5  and  N_6 
REMARK    2  A    between atoms: N_6  and  C_7 
REMARK    3  A    between atoms: C_7  and  C_8 
REMARK    4  A    between atoms: C_8  and  N_9 
REMARK    5  A    between atoms: C_8  and  C_13 
REMARK    6  A    between atoms: C_20  and  C_21 
ROOT
HETATM    1  N   UNL     1      42.131 -18.375   1.829  1.00  0.00    -0.309 N 
HETATM    2  C   UNL     1      42.336 -17.229   1.103  1.00  0.00     0.320 C 
HETATM    3  N   UNL     1      41.270 -16.965   0.272  1.00  0.00    -0.340 N 
HETATM    4  O   UNL     1      43.299 -16.476   1.142  1.00  0.00    -0.247 OA
HETATM    5  H   UNL     1      41.557 -19.054   1.346  1.00  0.00     0.170 HD
HETATM    6  H   UNL     1      40.442 -17.547   0.333  1.00  0.00     0.164 HD
ENDROOT
BRANCH   1   7
HETATM    7  C   UNL     1      42.970 -18.928   2.828  1.00  0.00     0.043 A 
HETATM    8  C   UNL     1      43.810 -20.044   2.688  1.00  0.00    -0.035 A 
HETATM    9  C   UNL     1      44.033 -20.803   1.411  1.00  0.00     0.050 C 
HETATM   10  C   UNL     1      44.536 -20.488   3.812  1.00  0.00     0.010 A 
HETATM   11  C   UNL     1      44.486 -19.810   5.031  1.00  0.00     0.016 A 
HETATM   12  C   UNL     1      43.708 -18.660   5.163  1.00  0.00     0.019 A 
HETATM   13  C   UNL     1      42.963 -18.233   4.053  1.00  0.00     0.046 A 
BRANCH  12  14
HETATM   14  C   UNL     1      43.642 -17.900   6.407  1.00  0.00     0.179 A 
HETATM   15  O   UNL     1      43.864 -16.550   6.326  1.00  0.00    -0.302 OA
HETATM   16  C   UNL     1      43.736 -16.113   7.610  1.00  0.00     0.163 A 
HETATM   17  C   UNL     1      43.446 -17.196   8.399  1.00  0.00     0.144 A 
HETATM   18  N   UNL     1      43.385 -18.331   7.630  1.00  0.00    -0.234 NA
ENDBRANCH  12  14
ENDBRANCH   1   7
BRANCH   3  19
HETATM   19  C   UNL     1      41.322 -15.932  -0.752  1.00  0.00     0.164 C 
BRANCH  19  20
HETATM   20  C   UNL     1      40.355 -14.725  -0.583  1.00  0.00     0.261 C 
BRANCH  20  21
HETATM   21  N   UNL     1      40.653 -13.509  -1.465  1.00  0.00    -0.067 N 
HETATM   22  H   UNL     1      40.273 -12.720  -0.931  1.00  0.00     0.280 HD
HETATM   23  C   UNL     1      42.099 -13.160  -1.669  1.00  0.00     0.270 C 
HETATM   24  C   UNL     1      39.904 -13.522  -2.767  1.00  0.00     0.270 C 
ENDBRANCH  20  21
BRANCH  20  25
HETATM   25  C   UNL     1      40.144 -14.369   0.859  1.00  0.00     0.085 A 
HETATM   26  O   UNL     1      41.235 -13.954   1.569  1.00  0.00    -0.325 OA
HETATM   27  C   UNL     1      40.814 -13.692   2.834  1.00  0.00     0.142 A 
HETATM   28  C   UNL     1      39.467 -13.935   2.950  1.00  0.00     0.027 A 
HETATM   29  C   UNL     1      39.030 -14.372   1.675  1.00  0.00     0.037 A 
ENDBRANCH  20  25
ENDBRANCH  19  20
ENDBRANCH   3  19
TORSDOF 6
ENDMDL
MODEL 8
REMARK VINA RESULT:      -7.5      1.811      2.074
REMARK  6 active torsions:
REMARK  status: ('A' for Active; 'I' for Inactive)
REMARK    1  A    between atoms: C_3  and  N_4 
REMARK       I    between atoms: N_4  and  C_5 
REMARK       I    between atoms: C_5  and  N_6 
REMARK    2  A    between atoms: N_6  and  C_7 
REMARK    3  A    between atoms: C_7  and  C_8 
REMARK    4  A    between atoms: C_8  and  N_9 
REMARK    5  A    between atoms: C_8  and  C_13 
REMARK    6  A    between atoms: C_20  and  C_21 
ROOT
HETATM    1  N   UNL     1      40.074 -15.988   2.625  1.00  0.00    -0.309 N 
HETATM    2  C   UNL     1      40.155 -14.902   1.790  1.00  0.00     0.320 C 
HETATM    3  N   UNL     1      39.076 -14.846   0.936  1.00  0.00    -0.340 N 
HETATM    4  O   UNL     1      41.025 -14.043   1.755  1.00  0.00    -0.247 OA
HETATM    5  H   UNL     1      39.587 -16.772   2.210  1.00  0.00     0.170 HD
HETATM    6  H   UNL     1      38.319 -15.510   1.054  1.00  0.00     0.164 HD
ENDROOT
BRANCH   1   7
HETATM    7  C   UNL     1      40.959 -16.340   3.674  1.00  0.00     0.043 A 
HETATM    8  C   UNL     1      41.022 -15.747   4.946  1.00  0.00    -0.035 A 
HETATM    9  C   UNL     1      40.092 -14.680   5.449  1.00  0.00     0.050 C 
HETATM   10  C   UNL     1      42.008 -16.192   5.850  1.00  0.00     0.010 A 
HETATM   11  C   UNL     1      42.872 -17.242   5.533  1.00  0.00     0.016 A 
HETATM   12  C   UNL     1      42.772 -17.885   4.300  1.00  0.00     0.019 A 
HETATM   13  C   UNL     1      41.810 -17.424   3.388  1.00  0.00     0.046 A 
BRANCH  12  14
HETATM   14  C   UNL     1      43.633 -19.004   3.931  1.00  0.00     0.179 A 
HETATM   15  O   UNL     1      44.428 -19.531   4.915  1.00  0.00    -0.302 OA
HETATM   16  C   UNL     1      45.101 -20.541   4.296  1.00  0.00     0.163 A 
HETATM   17  C   UNL     1      44.692 -20.582   2.988  1.00  0.00     0.144 A 
HETATM   18  N   UNL     1      43.757 -19.605   2.760  1.00  0.00    -0.234 NA
ENDBRANCH  12  14
ENDBRANCH   1   7
BRANCH   3  19
HETATM   19  C   UNL     1      39.022 -13.919  -0.185  1.00  0.00     0.164 C 
BRANCH  19  20
HETATM   20  C   UNL     1      40.080 -14.110  -1.308  1.00  0.00     0.261 C 
BRANCH  20  21
HETATM   21  N   UNL     1      40.864 -12.854  -1.701  1.00  0.00    -0.067 N 
HETATM   22  H   UNL     1      40.513 -12.629  -2.639  1.00  0.00     0.280 HD
HETATM   23  C   UNL     1      40.601 -11.614  -0.897  1.00  0.00     0.270 C 
HETATM   24  C   UNL     1      42.337 -13.100  -1.862  1.00  0.00     0.270 C 
ENDBRANCH  20  21
BRANCH  20  25
HETATM   25  C   UNL     1      39.522 -14.849  -2.489  1.00  0.00     0.085 A 
HETATM   26  O   UNL     1      38.206 -14.644  -2.792  1.00  0.00    -0.325 OA
HETATM   27  C   UNL     1      37.922 -15.407  -3.879  1.00  0.00     0.142 A 
HETATM   28  C   UNL     1      39.037 -16.102  -4.281  1.00  0.00     0.027 A 
HETATM   29  C   UNL     1      40.074 -15.744  -3.385  1.00  0.00     0.037 A 
ENDBRANCH  20  25
ENDBRANCH  19  20
ENDBRANCH   3  19
TORSDOF 6
ENDMDL
MODEL 9
REMARK VINA RESULT:      -7.5      3.241      4.893
REMARK  6 active torsions:
REMARK  status: ('A' for Active; 'I' for Inactive)
REMARK    1  A    between atoms: C_3  and  N_4 
REMARK       I    between atoms: N_4  and  C_5 
REMARK       I    between atoms: C_5  and  N_6 
REMARK    2  A    between atoms: N_6  and  C_7 
REMARK    3  A    between atoms: C_7  and  C_8 
REMARK    4  A    between atoms: C_8  and  N_9 
REMARK    5  A    between atoms: C_8  and  C_13 
REMARK    6  A    between atoms: C_20  and  C_21 
ROOT
HETATM    1  N   UNL     1      41.651 -16.732   4.888  1.00  0.00    -0.309 N 
HETATM    2  C   UNL     1      41.444 -15.866   3.843  1.00  0.00     0.320 C 
HETATM    3  N   UNL     1      40.159 -15.370   3.853  1.00  0.00    -0.340 N 
HETATM    4  O   UNL     1      42.243 -15.517   2.987  1.00  0.00    -0.247 OA
HETATM    5  H   UNL     1      40.813 -17.224   5.168  1.00  0.00     0.170 HD
HETATM    6  H   UNL     1      39.549 -15.596   4.630  1.00  0.00     0.164 HD
ENDROOT
BRANCH   1   7
HETATM    7  C   UNL     1      42.857 -17.386   5.243  1.00  0.00     0.043 A 
HETATM    8  C   UNL     1      43.799 -16.945   6.186  1.00  0.00    -0.035 A 
HETATM    9  C   UNL     1      43.646 -15.730   7.056  1.00  0.00     0.050 C 
HETATM   10  C   UNL     1      44.974 -17.701   6.371  1.00  0.00     0.010 A 
HETATM   11  C   UNL     1      45.189 -18.900   5.689  1.00  0.00     0.016 A 
HETATM   12  C   UNL     1      44.229 -19.384   4.802  1.00  0.00     0.019 A 
HETATM   13  C   UNL     1      43.072 -18.618   4.594  1.00  0.00     0.046 A 
BRANCH  12  14
HETATM   14  C   UNL     1      44.393 -20.644   4.084  1.00  0.00     0.179 A 
HETATM   15  O   UNL     1      44.150 -20.630   2.735  1.00  0.00    -0.302 OA
HETATM   16  C   UNL     1      44.382 -21.913   2.340  1.00  0.00     0.163 A 
HETATM   17  C   UNL     1      44.750 -22.635   3.445  1.00  0.00     0.144 A 
HETATM   18  N   UNL     1      44.758 -21.825   4.552  1.00  0.00    -0.234 NA
ENDBRANCH  12  14
ENDBRANCH   1   7
BRANCH   3  19
HETATM   19  C   UNL     1      39.618 -14.600   2.742  1.00  0.00     0.164 C 
BRANCH  19  20
HETATM   20  C   UNL     1      39.866 -13.065   2.763  1.00  0.00     0.261 C 
BRANCH  20  21
HETATM   21  N   UNL     1      41.015 -12.568   1.881  1.00  0.00    -0.067 N 
HETATM   22  H   UNL     1      41.853 -12.740   2.449  1.00  0.00     0.280 HD
HETATM   23  C   UNL     1      41.266 -13.323   0.609  1.00  0.00     0.270 C 
HETATM   24  C   UNL     1      40.981 -11.085   1.640  1.00  0.00     0.270 C 
ENDBRANCH  20  21
BRANCH  20  25
HETATM   25  C   UNL     1      39.918 -12.520   4.160  1.00  0.00     0.085 A 
HETATM   26  O   UNL     1      41.123 -12.558   4.803  1.00  0.00    -0.325 OA
HETATM   27  C   UNL     1      40.935 -12.024   6.038  1.00  0.00     0.142 A 
HETATM   28  C   UNL     1      39.624 -11.644   6.200  1.00  0.00     0.027 A 
HETATM   29  C   UNL     1      38.964 -11.963   4.989  1.00  0.00     0.037 A 
ENDBRANCH  20  25
ENDBRANCH  19  20
ENDBRANCH   3  19
TORSDOF 6
ENDMDL
MODEL 10
REMARK VINA RESULT:      -7.3      2.858      3.784
REMARK  6 active torsions:
REMARK  status: ('A' for Active; 'I' for Inactive)
REMARK    1  A    between atoms: C_3  and  N_4 
REMARK       I    between atoms: N_4  and  C_5 
REMARK       I    between atoms: C_5  and  N_6 
REMARK    2  A    between atoms: N_6  and  C_7 
REMARK    3  A    between atoms: C_7  and  C_8 
REMARK    4  A    between atoms: C_8  and  N_9 
REMARK    5  A    between atoms: C_8  and  C_13 
REMARK    6  A    between atoms: C_20  and  C_21 
ROOT
HETATM    1  N   UNL     1      41.612 -16.704   5.045  1.00  0.00    -0.309 N 
HETATM    2  C   UNL     1      41.499 -15.447   4.509  1.00  0.00     0.320 C 
HETATM    3  N   UNL     1      40.193 -15.008   4.535  1.00  0.00    -0.340 N 
HETATM    4  O   UNL     1      42.388 -14.736   4.063  1.00  0.00    -0.247 OA
HETATM    5  H   UNL     1      40.781 -17.267   4.919  1.00  0.00     0.170 HD
HETATM    6  H   UNL     1      39.493 -15.573   5.002  1.00  0.00     0.164 HD
ENDROOT
BRANCH   1   7
HETATM    7  C   UNL     1      42.798 -17.454   5.249  1.00  0.00     0.043 A 
HETATM    8  C   UNL     1      43.764 -17.232   6.243  1.00  0.00    -0.035 A 
HETATM    9  C   UNL     1      43.665 -16.201   7.330  1.00  0.00     0.050 C 
HETATM   10  C   UNL     1      44.914 -18.048   6.261  1.00  0.00     0.010 A 
HETATM   11  C   UNL     1      45.078 -19.102   5.360  1.00  0.00     0.016 A 
HETATM   12  C   UNL     1      44.092 -19.376   4.413  1.00  0.00     0.019 A 
HETATM   13  C   UNL     1      42.961 -18.547   4.375  1.00  0.00     0.046 A 
BRANCH  12  14
HETATM   14  C   UNL     1      44.203 -20.481   3.466  1.00  0.00     0.179 A 
HETATM   15  O   UNL     1      44.662 -21.677   3.955  1.00  0.00    -0.302 OA
HETATM   16  C   UNL     1      44.656 -22.504   2.873  1.00  0.00     0.163 A 
HETATM   17  C   UNL     1      44.202 -21.788   1.795  1.00  0.00     0.144 A 
HETATM   18  N   UNL     1      43.914 -20.502   2.177  1.00  0.00    -0.234 NA
ENDBRANCH  12  14
ENDBRANCH   1   7
BRANCH   3  19
HETATM   19  C   UNL     1      39.767 -13.802   3.841  1.00  0.00     0.164 C 
BRANCH  19  20
HETATM   20  C   UNL     1      39.525 -13.919   2.309  1.00  0.00     0.261 C 
BRANCH  20  21
HETATM   21  N   UNL     1      40.785 -13.959   1.440  1.00  0.00    -0.067 N 
HETATM   22  H   UNL     1      41.404 -14.612   1.934  1.00  0.00     0.280 HD
HETATM   23  C   UNL     1      40.640 -14.549   0.067  1.00  0.00     0.270 C 
HETATM   24  C   UNL     1      41.520 -12.649   1.398  1.00  0.00     0.270 C 
ENDBRANCH  20  21
BRANCH  20  25
HETATM   25  C   UNL     1      38.505 -12.933   1.822  1.00  0.00     0.085 A 
HETATM   26  O   UNL     1      37.667 -13.340   0.823  1.00  0.00    -0.325 OA
HETATM   27  C   UNL     1      36.841 -12.298   0.543  1.00  0.00     0.142 A 
HETATM   28  C   UNL     1      37.136 -11.224   1.347  1.00  0.00     0.027 A 
HETATM   29  C   UNL     1      38.210 -11.631   2.176  1.00  0.00     0.037 A 
ENDBRANCH  20  25
ENDBRANCH  19  20
ENDBRANCH   3  19
TORSDOF 6
ENDMDL
