MODEL 1
REMARK VINA RESULT:      -7.7      0.000      0.000
REMARK  3 active torsions:
REMARK  status: ('A' for Active; 'I' for Inactive)
REMARK    1  A    between atoms: C_11  and  N_12 
REMARK       I    between atoms: N_12  and  C_13 
REMARK    2  A    between atoms: C_13  and  C_14 
REMARK    3  A    between atoms: C_15  and  O_16 
ROOT
HETATM    1  N   UNL     1      43.150 -16.416   3.664  1.00  0.00    -0.352 N 
HETATM    2  C   UNL     1      43.853 -17.166   2.736  1.00  0.00     0.254 C 
HETATM    3  O   UNL     1      44.361 -16.695   1.725  1.00  0.00    -0.268 OA
HETATM    4  H   UNL     1      42.651 -16.941   4.372  1.00  0.00     0.163 HD
ENDROOT
BRANCH   1   5
HETATM    5  C   UNL     1      42.727 -15.037   3.439  1.00  0.00     0.089 C 
HETATM    6  C   UNL     1      42.083 -14.304   4.624  1.00  0.00     0.063 C 
HETATM    7  C   UNL     1      40.689 -14.798   5.022  1.00  0.00     0.121 C 
HETATM    8  N   UNL     1      39.809 -14.854   3.787  1.00  0.00    -0.059 N 
HETATM    9  C   UNL     1      40.667 -16.147   5.748  1.00  0.00     0.046 C 
HETATM   10  C   UNL     1      40.038 -13.762   5.963  1.00  0.00     0.046 C 
HETATM   11  C   UNL     1      40.340 -15.425   2.490  1.00  0.00     0.121 C 
HETATM   12  H   UNL     1      39.509 -13.887   3.594  1.00  0.00     0.279 HD
HETATM   13  H   UNL     1      38.933 -15.340   4.034  1.00  0.00     0.279 HD
HETATM   14  C   UNL     1      40.198 -16.952   2.490  1.00  0.00     0.046 C 
HETATM   15  C   UNL     1      39.421 -14.879   1.377  1.00  0.00     0.046 C 
HETATM   16  C   UNL     1      41.780 -14.939   2.234  1.00  0.00     0.063 C 
ENDBRANCH   1   5
BRANCH   2  17
HETATM   17  C   UNL     1      44.104 -18.591   3.067  1.00  0.00     0.066 A 
HETATM   18  C   UNL     1      44.415 -18.932   4.393  1.00  0.00     0.081 A 
HETATM   19  C   UNL     1      44.574 -20.264   4.767  1.00  0.00     0.039 A 
HETATM   20  C   UNL     1      44.450 -21.269   3.809  1.00  0.00     0.026 A 
HETATM   21  C   UNL     1      44.178 -20.934   2.484  1.00  0.00     0.035 A 
HETATM   22 CL   UNL     1      44.038 -22.173   1.300  1.00  0.00    -0.084 Cl
HETATM   23  C   UNL     1      44.007 -19.601   2.104  1.00  0.00     0.043 A 
BRANCH  18  24
HETATM   24  O   UNL     1      44.564 -17.998   5.384  1.00  0.00    -0.360 OA
HETATM   25  H   UNL     1      45.395 -18.197   5.867  1.00  0.00     0.217 HD
ENDBRANCH  18  24
ENDBRANCH   2  17
TORSDOF 3
ENDMDL
MODEL 2
REMARK VINA RESULT:      -7.4      1.461      2.153
REMARK  3 active torsions:
REMARK  status: ('A' for Active; 'I' for Inactive)
REMARK    1  A    between atoms: C_11  and  N_12 
REMARK       I    between atoms: N_12  and  C_13 
REMARK    2  A    between atoms: C_13  and  C_14 
REMARK    3  A    between atoms: C_15  and  O_16 
ROOT
HETATM    1  N   UNL     1      43.545 -16.535   3.924  1.00  0.00    -0.352 N 
HETATM    2  C   UNL     1      43.918 -17.306   2.837  1.00  0.00     0.254 C 
HETATM    3  O   UNL     1      44.159 -16.847   1.727  1.00  0.00    -0.268 OA
HETATM    4  H   UNL     1      43.227 -17.044   4.741  1.00  0.00     0.163 HD
ENDROOT
BRANCH   1   5
HETATM    5  C   UNL     1      43.163 -15.129   3.828  1.00  0.00     0.089 C 
HETATM    6  C   UNL     1      43.857 -14.152   4.788  1.00  0.00     0.063 C 
HETATM    7  C   UNL     1      43.462 -14.287   6.261  1.00  0.00     0.121 C 
HETATM    8  N   UNL     1      41.949 -14.282   6.374  1.00  0.00    -0.059 N 
HETATM    9  C   UNL     1      44.041 -15.514   6.973  1.00  0.00     0.046 C 
HETATM   10  C   UNL     1      43.950 -13.040   7.029  1.00  0.00     0.046 C 
HETATM   11  C   UNL     1      41.104 -15.089   5.412  1.00  0.00     0.121 C 
HETATM   12  H   UNL     1      41.650 -13.299   6.291  1.00  0.00     0.279 HD
HETATM   13  H   UNL     1      41.694 -14.538   7.340  1.00  0.00     0.279 HD
HETATM   14  C   UNL     1      40.996 -16.541   5.896  1.00  0.00     0.046 C 
HETATM   15  C   UNL     1      39.688 -14.479   5.474  1.00  0.00     0.046 C 
HETATM   16  C   UNL     1      41.645 -14.958   3.974  1.00  0.00     0.063 C 
ENDBRANCH   1   5
BRANCH   2  17
HETATM   17  C   UNL     1      44.160 -18.751   3.083  1.00  0.00     0.066 A 
HETATM   18  C   UNL     1      44.545 -19.162   4.369  1.00  0.00     0.081 A 
HETATM   19  C   UNL     1      44.700 -20.513   4.667  1.00  0.00     0.039 A 
HETATM   20  C   UNL     1      44.498 -21.468   3.671  1.00  0.00     0.026 A 
HETATM   21  C   UNL     1      44.152 -21.063   2.383  1.00  0.00     0.035 A 
HETATM   22 CL   UNL     1      43.915 -22.239   1.151  1.00  0.00    -0.084 Cl
HETATM   23  C   UNL     1      43.984 -19.710   2.079  1.00  0.00     0.043 A 
BRANCH  18  24
HETATM   24  O   UNL     1      44.772 -18.281   5.392  1.00  0.00    -0.360 OA
HETATM   25  H   UNL     1      45.683 -17.927   5.292  1.00  0.00     0.217 HD
ENDBRANCH  18  24
ENDBRANCH   2  17
TORSDOF 3
ENDMDL
MODEL 3
REMARK VINA RESULT:      -7.4      1.935      2.394
REMARK  3 active torsions:
REMARK  status: ('A' for Active; 'I' for Inactive)
REMARK    1  A    between atoms: C_11  and  N_12 
REMARK       I    between atoms: N_12  and  C_13 
REMARK    2  A    between atoms: C_13  and  C_14 
REMARK    3  A    between atoms: C_15  and  O_16 
ROOT
HETATM    1  N   UNL     1      43.323 -16.794   4.900  1.00  0.00    -0.352 N 
HETATM    2  C   UNL     1      44.153 -17.258   5.907  1.00  0.00     0.254 C 
HETATM    3  O   UNL     1      44.787 -16.525   6.657  1.00  0.00    -0.268 OA
HETATM    4  H   UNL     1      42.976 -17.494   4.254  1.00  0.00     0.163 HD
ENDROOT
BRANCH   1   5
HETATM    5  C   UNL     1      43.285 -15.405   4.456  1.00  0.00     0.089 C 
HETATM    6  C   UNL     1      42.469 -14.423   5.309  1.00  0.00     0.063 C 
HETATM    7  C   UNL     1      40.951 -14.612   5.254  1.00  0.00     0.121 C 
HETATM    8  N   UNL     1      40.508 -14.674   3.804  1.00  0.00    -0.059 N 
HETATM    9  C   UNL     1      40.425 -15.830   6.020  1.00  0.00     0.046 C 
HETATM   10  C   UNL     1      40.267 -13.364   5.854  1.00  0.00     0.046 C 
HETATM   11  C   UNL     1      41.287 -15.493   2.797  1.00  0.00     0.121 C 
HETATM   12  H   UNL     1      40.490 -13.704   3.458  1.00  0.00     0.279 HD
HETATM   13  H   UNL     1      39.519 -14.965   3.778  1.00  0.00     0.279 HD
HETATM   14  C   UNL     1      40.840 -16.959   2.852  1.00  0.00     0.046 C 
HETATM   15  C   UNL     1      40.895 -14.946   1.409  1.00  0.00     0.046 C 
HETATM   16  C   UNL     1      42.803 -15.302   3.002  1.00  0.00     0.063 C 
ENDBRANCH   1   5
BRANCH   2  17
HETATM   17  C   UNL     1      44.160 -18.721   6.159  1.00  0.00     0.066 A 
HETATM   18  C   UNL     1      43.782 -19.190   7.427  1.00  0.00     0.081 A 
HETATM   19  C   UNL     1      43.692 -20.556   7.683  1.00  0.00     0.039 A 
HETATM   20  C   UNL     1      44.008 -21.469   6.678  1.00  0.00     0.026 A 
HETATM   21  C   UNL     1      44.420 -21.009   5.428  1.00  0.00     0.035 A 
HETATM   22 CL   UNL     1      44.822 -22.134   4.192  1.00  0.00    -0.084 Cl
HETATM   23  C   UNL     1      44.502 -19.641   5.161  1.00  0.00     0.043 A 
BRANCH  18  24
HETATM   24  O   UNL     1      43.469 -18.353   8.464  1.00  0.00    -0.360 OA
HETATM   25  H   UNL     1      44.280 -17.854   8.708  1.00  0.00     0.217 HD
ENDBRANCH  18  24
ENDBRANCH   2  17
TORSDOF 3
ENDMDL
MODEL 4
REMARK VINA RESULT:      -7.3      4.096      6.702
REMARK  3 active torsions:
REMARK  status: ('A' for Active; 'I' for Inactive)
REMARK    1  A    between atoms: C_11  and  N_12 
REMARK       I    between atoms: N_12  and  C_13 
REMARK    2  A    between atoms: C_13  and  C_14 
REMARK    3  A    between atoms: C_15  and  O_16 
ROOT
HETATM    1  N   UNL     1      41.511 -16.022   0.736  1.00  0.00    -0.352 N 
HETATM    2  C   UNL     1      40.732 -14.985   0.252  1.00  0.00     0.254 C 
HETATM    3  O   UNL     1      39.728 -14.567   0.818  1.00  0.00    -0.268 OA
HETATM    4  H   UNL     1      42.221 -16.375   0.105  1.00  0.00     0.163 HD
ENDROOT
BRANCH   1   5
HETATM    5  C   UNL     1      41.110 -16.893   1.836  1.00  0.00     0.089 C 
HETATM    6  C   UNL     1      41.156 -16.295   3.250  1.00  0.00     0.063 C 
HETATM    7  C   UNL     1      42.558 -16.031   3.805  1.00  0.00     0.121 C 
HETATM    8  N   UNL     1      43.402 -17.281   3.645  1.00  0.00    -0.059 N 
HETATM    9  C   UNL     1      43.278 -14.825   3.192  1.00  0.00     0.046 C 
HETATM   10  C   UNL     1      42.457 -15.778   5.325  1.00  0.00     0.046 C 
HETATM   11  C   UNL     1      43.367 -18.071   2.354  1.00  0.00     0.121 C 
HETATM   12  H   UNL     1      43.125 -17.924   4.402  1.00  0.00     0.279 HD
HETATM   13  H   UNL     1      44.380 -17.044   3.867  1.00  0.00     0.279 HD
HETATM   14  C   UNL     1      44.335 -17.456   1.335  1.00  0.00     0.046 C 
HETATM   15  C   UNL     1      43.900 -19.477   2.701  1.00  0.00     0.046 C 
HETATM   16  C   UNL     1      41.922 -18.196   1.834  1.00  0.00     0.063 C 
ENDBRANCH   1   5
BRANCH   2  17
HETATM   17  C   UNL     1      41.227 -14.269  -0.951  1.00  0.00     0.066 A 
HETATM   18  C   UNL     1      40.983 -14.826  -2.216  1.00  0.00     0.081 A 
HETATM   19  C   UNL     1      41.354 -14.148  -3.375  1.00  0.00     0.039 A 
HETATM   20  C   UNL     1      42.000 -12.917  -3.278  1.00  0.00     0.026 A 
HETATM   21  C   UNL     1      42.278 -12.377  -2.023  1.00  0.00     0.035 A 
HETATM   22 CL   UNL     1      43.086 -10.864  -1.903  1.00  0.00    -0.084 Cl
HETATM   23  C   UNL     1      41.900 -13.046  -0.857  1.00  0.00     0.043 A 
BRANCH  18  24
HETATM   24  O   UNL     1      40.364 -16.035  -2.388  1.00  0.00    -0.360 OA
HETATM   25  H   UNL     1      39.880 -16.250  -1.560  1.00  0.00     0.217 HD
ENDBRANCH  18  24
ENDBRANCH   2  17
TORSDOF 3
ENDMDL
MODEL 5
REMARK VINA RESULT:      -7.1      2.377      3.475
REMARK  3 active torsions:
REMARK  status: ('A' for Active; 'I' for Inactive)
REMARK    1  A    between atoms: C_11  and  N_12 
REMARK       I    between atoms: N_12  and  C_13 
REMARK    2  A    between atoms: C_13  and  C_14 
REMARK    3  A    between atoms: C_15  and  O_16 
ROOT
HETATM    1  N   UNL     1      41.787 -14.581   2.472  1.00  0.00    -0.352 N 
HETATM    2  C   UNL     1      43.023 -14.692   3.084  1.00  0.00     0.254 C 
HETATM    3  O   UNL     1      43.813 -13.761   3.198  1.00  0.00    -0.268 OA
HETATM    4  H   UNL     1      41.294 -15.451   2.306  1.00  0.00     0.163 HD
ENDROOT
BRANCH   1   5
HETATM    5  C   UNL     1      41.372 -13.423   1.686  1.00  0.00     0.089 C 
HETATM    6  C   UNL     1      39.885 -13.044   1.735  1.00  0.00     0.063 C 
HETATM    7  C   UNL     1      38.936 -14.018   1.031  1.00  0.00     0.121 C 
HETATM    8  N   UNL     1      39.450 -14.290  -0.370  1.00  0.00    -0.059 N 
HETATM    9  C   UNL     1      38.700 -15.337   1.773  1.00  0.00     0.046 C 
HETATM   10  C   UNL     1      37.560 -13.340   0.856  1.00  0.00     0.046 C 
HETATM   11  C   UNL     1      40.922 -14.549  -0.612  1.00  0.00     0.121 C 
HETATM   12  H   UNL     1      39.186 -13.477  -0.945  1.00  0.00     0.279 HD
HETATM   13  H   UNL     1      38.903 -15.066  -0.772  1.00  0.00     0.279 HD
HETATM   14  C   UNL     1      41.245 -16.027  -0.356  1.00  0.00     0.046 C 
HETATM   15  C   UNL     1      41.160 -14.281  -2.112  1.00  0.00     0.046 C 
HETATM   16  C   UNL     1      41.786 -13.578   0.215  1.00  0.00     0.063 C 
ENDBRANCH   1   5
BRANCH   2  17
HETATM   17  C   UNL     1      43.338 -15.984   3.746  1.00  0.00     0.066 A 
HETATM   18  C   UNL     1      43.333 -16.042   5.149  1.00  0.00     0.081 A 
HETATM   19  C   UNL     1      43.538 -17.250   5.811  1.00  0.00     0.039 A 
HETATM   20  C   UNL     1      43.779 -18.409   5.075  1.00  0.00     0.026 A 
HETATM   21  C   UNL     1      43.822 -18.349   3.683  1.00  0.00     0.035 A 
HETATM   22 CL   UNL     1      44.131 -19.776   2.775  1.00  0.00    -0.084 Cl
HETATM   23  C   UNL     1      43.606 -17.144   3.012  1.00  0.00     0.043 A 
BRANCH  18  24
HETATM   24  O   UNL     1      43.116 -14.943   5.937  1.00  0.00    -0.360 OA
HETATM   25  H   UNL     1      43.698 -14.219   5.616  1.00  0.00     0.217 HD
ENDBRANCH  18  24
ENDBRANCH   2  17
TORSDOF 3
ENDMDL
MODEL 6
REMARK VINA RESULT:      -6.9      2.640      3.753
REMARK  3 active torsions:
REMARK  status: ('A' for Active; 'I' for Inactive)
REMARK    1  A    between atoms: C_11  and  N_12 
REMARK       I    between atoms: N_12  and  C_13 
REMARK    2  A    between atoms: C_13  and  C_14 
REMARK    3  A    between atoms: C_15  and  O_16 
ROOT
HETATM    1  N   UNL     1      42.031 -14.753   1.945  1.00  0.00    -0.352 N 
HETATM    2  C   UNL     1      43.172 -15.053   2.671  1.00  0.00     0.254 C 
HETATM    3  O   UNL     1      43.918 -14.205   3.147  1.00  0.00    -0.268 OA
HETATM    4  H   UNL     1      41.585 -15.533   1.477  1.00  0.00     0.163 HD
ENDROOT
BRANCH   1   5
HETATM    5  C   UNL     1      41.709 -13.415   1.458  1.00  0.00     0.089 C 
HETATM    6  C   UNL     1      40.318 -12.865   1.804  1.00  0.00     0.063 C 
HETATM    7  C   UNL     1      39.147 -13.543   1.088  1.00  0.00     0.121 C 
HETATM    8  N   UNL     1      39.432 -13.587  -0.401  1.00  0.00    -0.059 N 
HETATM    9  C   UNL     1      38.802 -14.944   1.602  1.00  0.00     0.046 C 
HETATM   10  C   UNL     1      37.884 -12.671   1.254  1.00  0.00     0.046 C 
HETATM   11  C   UNL     1      40.802 -13.980  -0.910  1.00  0.00     0.121 C 
HETATM   12  H   UNL     1      39.229 -12.646  -0.770  1.00  0.00     0.279 HD
HETATM   13  H   UNL     1      38.723 -14.187  -0.851  1.00  0.00     0.279 HD
HETATM   14  C   UNL     1      40.918 -15.508  -0.984  1.00  0.00     0.046 C 
HETATM   15  C   UNL     1      40.890 -13.444  -2.355  1.00  0.00     0.046 C 
HETATM   16  C   UNL     1      41.905 -13.318  -0.062  1.00  0.00     0.063 C 
ENDBRANCH   1   5
BRANCH   2  17
HETATM   17  C   UNL     1      43.416 -16.483   2.988  1.00  0.00     0.066 A 
HETATM   18  C   UNL     1      43.641 -17.380   1.932  1.00  0.00     0.081 A 
HETATM   19  C   UNL     1      43.958 -18.712   2.186  1.00  0.00     0.039 A 
HETATM   20  C   UNL     1      44.026 -19.167   3.502  1.00  0.00     0.026 A 
HETATM   21  C   UNL     1      43.767 -18.289   4.553  1.00  0.00     0.035 A 
HETATM   22 CL   UNL     1      43.838 -18.853   6.176  1.00  0.00    -0.084 Cl
HETATM   23  C   UNL     1      43.458 -16.949   4.306  1.00  0.00     0.043 A 
BRANCH  18  24
HETATM   24  O   UNL     1      43.579 -17.007   0.616  1.00  0.00    -0.360 OA
HETATM   25  H   UNL     1      42.638 -16.844   0.390  1.00  0.00     0.217 HD
ENDBRANCH  18  24
ENDBRANCH   2  17
TORSDOF 3
ENDMDL
MODEL 7
REMARK VINA RESULT:      -6.8      1.358      2.585
REMARK  3 active torsions:
REMARK  status: ('A' for Active; 'I' for Inactive)
REMARK    1  A    between atoms: C_11  and  N_12 
REMARK       I    between atoms: N_12  and  C_13 
REMARK    2  A    between atoms: C_13  and  C_14 
REMARK    3  A    between atoms: C_15  and  O_16 
ROOT
HETATM    1  N   UNL     1      41.564 -16.644   3.064  1.00  0.00    -0.352 N 
HETATM    2  C   UNL     1      42.365 -17.334   2.170  1.00  0.00     0.254 C 
HETATM    3  O   UNL     1      42.471 -17.041   0.985  1.00  0.00    -0.268 OA
HETATM    4  H   UNL     1      41.443 -17.073   3.974  1.00  0.00     0.163 HD
ENDROOT
BRANCH   1   5
HETATM    5  C   UNL     1      40.575 -15.647   2.664  1.00  0.00     0.089 C 
HETATM    6  C   UNL     1      41.086 -14.443   1.861  1.00  0.00     0.063 C 
HETATM    7  C   UNL     1      41.952 -13.451   2.645  1.00  0.00     0.121 C 
HETATM    8  N   UNL     1      41.237 -13.071   3.928  1.00  0.00    -0.059 N 
HETATM    9  C   UNL     1      43.370 -13.940   2.956  1.00  0.00     0.046 C 
HETATM   10  C   UNL     1      42.086 -12.147   1.829  1.00  0.00     0.046 C 
HETATM   11  C   UNL     1      40.558 -14.128   4.772  1.00  0.00     0.121 C 
HETATM   12  H   UNL     1      40.518 -12.378   3.671  1.00  0.00     0.279 HD
HETATM   13  H   UNL     1      41.892 -12.539   4.520  1.00  0.00     0.279 HD
HETATM   14  C   UNL     1      41.579 -14.794   5.703  1.00  0.00     0.046 C 
HETATM   15  C   UNL     1      39.547 -13.376   5.663  1.00  0.00     0.046 C 
HETATM   16  C   UNL     1      39.795 -15.126   3.879  1.00  0.00     0.063 C 
ENDBRANCH   1   5
BRANCH   2  17
HETATM   17  C   UNL     1      43.235 -18.402   2.725  1.00  0.00     0.066 A 
HETATM   18  C   UNL     1      43.835 -18.201   3.978  1.00  0.00     0.081 A 
HETATM   19  C   UNL     1      44.589 -19.208   4.575  1.00  0.00     0.039 A 
HETATM   20  C   UNL     1      44.774 -20.419   3.911  1.00  0.00     0.026 A 
HETATM   21  C   UNL     1      44.210 -20.610   2.650  1.00  0.00     0.035 A 
HETATM   22 CL   UNL     1      44.448 -22.099   1.823  1.00  0.00    -0.084 Cl
HETATM   23  C   UNL     1      43.445 -19.609   2.049  1.00  0.00     0.043 A 
BRANCH  18  24
HETATM   24  O   UNL     1      43.708 -17.034   4.683  1.00  0.00    -0.360 OA
HETATM   25  H   UNL     1      43.246 -16.382   4.112  1.00  0.00     0.217 HD
ENDBRANCH  18  24
ENDBRANCH   2  17
TORSDOF 3
ENDMDL
MODEL 8
REMARK VINA RESULT:      -6.7      2.352      3.816
REMARK  3 active torsions:
REMARK  status: ('A' for Active; 'I' for Inactive)
REMARK    1  A    between atoms: C_11  and  N_12 
REMARK       I    between atoms: N_12  and  C_13 
REMARK    2  A    between atoms: C_13  and  C_14 
REMARK    3  A    between atoms: C_15  and  O_16 
ROOT
HETATM    1  N   UNL     1      41.214 -15.638   4.095  1.00  0.00    -0.352 N 
HETATM    2  C   UNL     1      41.122 -16.744   3.267  1.00  0.00     0.254 C 
HETATM    3  O   UNL     1      40.265 -16.877   2.401  1.00  0.00    -0.268 OA
HETATM    4  H   UNL     1      41.866 -15.715   4.867  1.00  0.00     0.163 HD
ENDROOT
BRANCH   1   5
HETATM    5  C   UNL     1      40.176 -14.617   4.203  1.00  0.00     0.089 C 
HETATM    6  C   UNL     1      40.038 -13.639   3.028  1.00  0.00     0.063 C 
HETATM    7  C   UNL     1      41.184 -12.635   2.872  1.00  0.00     0.121 C 
HETATM    8  N   UNL     1      41.436 -11.956   4.205  1.00  0.00    -0.059 N 
HETATM    9  C   UNL     1      42.487 -13.224   2.324  1.00  0.00     0.046 C 
HETATM   10  C   UNL     1      40.744 -11.517   1.902  1.00  0.00     0.046 C 
HETATM   11  C   UNL     1      41.468 -12.764   5.485  1.00  0.00     0.121 C 
HETATM   12  H   UNL     1      40.704 -11.239   4.316  1.00  0.00     0.279 HD
HETATM   13  H   UNL     1      42.308 -11.410   4.132  1.00  0.00     0.279 HD
HETATM   14  C   UNL     1      42.861 -13.373   5.689  1.00  0.00     0.046 C 
HETATM   15  C   UNL     1      41.237 -11.756   6.630  1.00  0.00     0.046 C 
HETATM   16  C   UNL     1      40.332 -13.805   5.496  1.00  0.00     0.063 C 
ENDBRANCH   1   5
BRANCH   2  17
HETATM   17  C   UNL     1      42.207 -17.753   3.362  1.00  0.00     0.066 A 
HETATM   18  C   UNL     1      42.912 -18.098   2.198  1.00  0.00     0.081 A 
HETATM   19  C   UNL     1      43.993 -18.975   2.254  1.00  0.00     0.039 A 
HETATM   20  C   UNL     1      44.362 -19.539   3.475  1.00  0.00     0.026 A 
HETATM   21  C   UNL     1      43.642 -19.228   4.627  1.00  0.00     0.035 A 
HETATM   22 CL   UNL     1      44.089 -19.933   6.131  1.00  0.00    -0.084 Cl
HETATM   23  C   UNL     1      42.564 -18.342   4.580  1.00  0.00     0.043 A 
BRANCH  18  24
HETATM   24  O   UNL     1      42.599 -17.594   0.964  1.00  0.00    -0.360 OA
HETATM   25  H   UNL     1      42.259 -16.680   1.086  1.00  0.00     0.217 HD
ENDBRANCH  18  24
ENDBRANCH   2  17
TORSDOF 3
ENDMDL
MODEL 9
REMARK VINA RESULT:      -6.7      2.106      2.873
REMARK  3 active torsions:
REMARK  status: ('A' for Active; 'I' for Inactive)
REMARK    1  A    between atoms: C_11  and  N_12 
REMARK       I    between atoms: N_12  and  C_13 
REMARK    2  A    between atoms: C_13  and  C_14 
REMARK    3  A    between atoms: C_15  and  O_16 
ROOT
HETATM    1  N   UNL     1      42.001 -14.880   2.195  1.00  0.00    -0.352 N 
HETATM    2  C   UNL     1      43.181 -15.322   2.769  1.00  0.00     0.254 C 
HETATM    3  O   UNL     1      44.010 -14.577   3.280  1.00  0.00    -0.268 OA
HETATM    4  H   UNL     1      41.475 -15.573   1.674  1.00  0.00     0.163 HD
ENDROOT
BRANCH   1   5
HETATM    5  C   UNL     1      41.710 -13.478   1.916  1.00  0.00     0.089 C 
HETATM    6  C   UNL     1      41.459 -12.565   3.124  1.00  0.00     0.063 C 
HETATM    7  C   UNL     1      40.147 -12.816   3.875  1.00  0.00     0.121 C 
HETATM    8  N   UNL     1      39.001 -12.843   2.881  1.00  0.00    -0.059 N 
HETATM    9  C   UNL     1      40.130 -14.083   4.735  1.00  0.00     0.046 C 
HETATM   10  C   UNL     1      39.869 -11.622   4.814  1.00  0.00     0.046 C 
HETATM   11  C   UNL     1      39.138 -13.589   1.571  1.00  0.00     0.121 C 
HETATM   12  H   UNL     1      38.786 -11.862   2.652  1.00  0.00     0.279 HD
HETATM   13  H   UNL     1      38.155 -13.174   3.369  1.00  0.00     0.279 HD
HETATM   14  C   UNL     1      38.812 -15.074   1.775  1.00  0.00     0.046 C 
HETATM   15  C   UNL     1      38.057 -13.007   0.636  1.00  0.00     0.046 C 
HETATM   16  C   UNL     1      40.526 -13.341   0.949  1.00  0.00     0.063 C 
ENDBRANCH   1   5
BRANCH   2  17
HETATM   17  C   UNL     1      43.375 -16.790   2.877  1.00  0.00     0.066 A 
HETATM   18  C   UNL     1      43.388 -17.557   1.701  1.00  0.00     0.081 A 
HETATM   19  C   UNL     1      43.651 -18.924   1.747  1.00  0.00     0.039 A 
HETATM   20  C   UNL     1      43.876 -19.544   2.975  1.00  0.00     0.026 A 
HETATM   21  C   UNL     1      43.827 -18.793   4.149  1.00  0.00     0.035 A 
HETATM   22 CL   UNL     1      44.092 -19.559   5.665  1.00  0.00    -0.084 Cl
HETATM   23  C   UNL     1      43.575 -17.420   4.110  1.00  0.00     0.043 A 
BRANCH  18  24
HETATM   24  O   UNL     1      43.164 -17.020   0.462  1.00  0.00    -0.360 OA
HETATM   25  H   UNL     1      43.362 -17.710  -0.209  1.00  0.00     0.217 HD
ENDBRANCH  18  24
ENDBRANCH   2  17
TORSDOF 3
ENDMDL
MODEL 10
REMARK VINA RESULT:      -6.7      3.718      6.415
REMARK  3 active torsions:
REMARK  status: ('A' for Active; 'I' for Inactive)
REMARK    1  A    between atoms: C_11  and  N_12 
REMARK       I    between atoms: N_12  and  C_13 
REMARK    2  A    between atoms: C_13  and  C_14 
REMARK    3  A    between atoms: C_15  and  O_16 
ROOT
HETATM    1  N   UNL     1      41.427 -15.744   1.252  1.00  0.00    -0.352 N 
HETATM    2  C   UNL     1      40.789 -14.516   1.206  1.00  0.00     0.254 C 
HETATM    3  O   UNL     1      39.975 -14.141   2.041  1.00  0.00    -0.268 OA
HETATM    4  H   UNL     1      41.959 -15.999   0.428  1.00  0.00     0.163 HD
ENDROOT
BRANCH   1   5
HETATM    5  C   UNL     1      41.040 -16.826   2.152  1.00  0.00     0.089 C 
HETATM    6  C   UNL     1      41.183 -16.563   3.658  1.00  0.00     0.063 C 
HETATM    7  C   UNL     1      42.622 -16.480   4.176  1.00  0.00     0.121 C 
HETATM    8  N   UNL     1      43.397 -17.691   3.692  1.00  0.00    -0.059 N 
HETATM    9  C   UNL     1      43.367 -15.194   3.806  1.00  0.00     0.046 C 
HETATM   10  C   UNL     1      42.608 -16.573   5.717  1.00  0.00     0.046 C 
HETATM   11  C   UNL     1      43.262 -18.168   2.261  1.00  0.00     0.121 C 
HETATM   12  H   UNL     1      43.129 -18.478   4.301  1.00  0.00     0.279 HD
HETATM   13  H   UNL     1      44.396 -17.544   3.903  1.00  0.00     0.279 HD
HETATM   14  C   UNL     1      44.207 -17.373   1.350  1.00  0.00     0.046 C 
HETATM   15  C   UNL     1      43.745 -19.633   2.254  1.00  0.00     0.046 C 
HETATM   16  C   UNL     1      41.789 -18.122   1.812  1.00  0.00     0.063 C 
ENDBRANCH   1   5
BRANCH   2  17
HETATM   17  C   UNL     1      41.224 -13.566   0.152  1.00  0.00     0.066 A 
HETATM   18  C   UNL     1      42.047 -12.488   0.513  1.00  0.00     0.081 A 
HETATM   19  C   UNL     1      42.549 -11.620  -0.455  1.00  0.00     0.039 A 
HETATM   20  C   UNL     1      42.209 -11.807  -1.794  1.00  0.00     0.026 A 
HETATM   21  C   UNL     1      41.362 -12.855  -2.153  1.00  0.00     0.035 A 
HETATM   22 CL   UNL     1      40.932 -13.079  -3.802  1.00  0.00    -0.084 Cl
HETATM   23  C   UNL     1      40.864 -13.735  -1.190  1.00  0.00     0.043 A 
BRANCH  18  24
HETATM   24  O   UNL     1      42.413 -12.234   1.808  1.00  0.00    -0.360 OA
HETATM   25  H   UNL     1      42.448 -11.260   1.929  1.00  0.00     0.217 HD
ENDBRANCH  18  24
ENDBRANCH   2  17
TORSDOF 3
ENDMDL
