MODEL 1
REMARK VINA RESULT:      -8.7      0.000      0.000
REMARK  6 active torsions:
REMARK  status: ('A' for Active; 'I' for Inactive)
REMARK    1  A    between atoms: C_3  and  O_4 
REMARK    2  A    between atoms: C_6  and  C_7 
REMARK    3  A    between atoms: C_7  and  C_8 
REMARK    4  A    between atoms: C_8  and  N_9 
REMARK       I    between atoms: N_9  and  C_10 
REMARK    5  A    between atoms: C_10  and  C_11 
REMARK    6  A    between atoms: C_13  and  C_14 
ROOT
HETATM    1  N   UNL     1      43.580 -14.813   4.954  1.00  0.00    -0.357 N 
HETATM    2  C   UNL     1      42.982 -16.055   4.854  1.00  0.00     0.251 C 
HETATM    3  O   UNL     1      42.227 -16.508   5.706  1.00  0.00    -0.268 OA
HETATM    4  H   UNL     1      44.398 -14.635   4.389  1.00  0.00     0.162 HD
ENDROOT
BRANCH   2   5
HETATM    5  C   UNL     1      43.320 -16.871   3.653  1.00  0.00     0.032 A 
HETATM    6  C   UNL     1      43.605 -18.233   3.842  1.00  0.00     0.029 A 
HETATM    7  C   UNL     1      43.911 -19.061   2.753  1.00  0.00    -0.023 A 
HETATM    8  C   UNL     1      43.919 -18.504   1.467  1.00  0.00     0.012 A 
HETATM    9  C   UNL     1      43.625 -17.152   1.271  1.00  0.00     0.002 A 
HETATM   10  C   UNL     1      43.320 -16.336   2.361  1.00  0.00     0.017 A 
BRANCH   7  11
HETATM   11  C   UNL     1      44.195 -20.476   2.939  1.00  0.00    -0.002 A 
HETATM   12  C   UNL     1      44.010 -21.448   1.975  1.00  0.00     0.153 A 
HETATM   13  O   UNL     1      44.362 -22.673   2.447  1.00  0.00    -0.334 OA
HETATM   14  C   UNL     1      44.780 -22.496   3.725  1.00  0.00     0.142 A 
HETATM   15  C   UNL     1      44.693 -21.170   4.079  1.00  0.00     0.038 A 
ENDBRANCH   7  11
ENDBRANCH   2   5
BRANCH   1  16
HETATM   16  C   UNL     1      43.409 -14.020   6.160  1.00  0.00     0.127 C 
BRANCH  16  17
HETATM   17  C   UNL     1      44.312 -14.500   7.294  1.00  0.00     0.058 C 
BRANCH  17  18
HETATM   18  C   UNL     1      44.936 -13.344   8.033  1.00  0.00    -0.054 A 
HETATM   19  C   UNL     1      46.156 -12.805   7.602  1.00  0.00     0.043 A 
HETATM   20  C   UNL     1      46.709 -11.712   8.264  1.00  0.00     0.066 A 
HETATM   21  C   UNL     1      46.064 -11.137   9.354  1.00  0.00     0.036 A 
HETATM   22  C   UNL     1      44.849 -11.666   9.787  1.00  0.00     0.003 A 
HETATM   23  C   UNL     1      44.285 -12.762   9.129  1.00  0.00     0.007 A 
BRANCH  20  24
HETATM   24  O   UNL     1      47.896 -11.225   7.802  1.00  0.00    -0.361 OA
HETATM   25  H   UNL     1      48.617 -11.666   8.279  1.00  0.00     0.217 HD
ENDBRANCH  20  24
ENDBRANCH  17  18
ENDBRANCH  16  17
ENDBRANCH   1  16
TORSDOF 6
ENDMDL
MODEL 2
REMARK VINA RESULT:      -8.6      1.301      1.654
REMARK  6 active torsions:
REMARK  status: ('A' for Active; 'I' for Inactive)
REMARK    1  A    between atoms: C_3  and  O_4 
REMARK    2  A    between atoms: C_6  and  C_7 
REMARK    3  A    between atoms: C_7  and  C_8 
REMARK    4  A    between atoms: C_8  and  N_9 
REMARK       I    between atoms: N_9  and  C_10 
REMARK    5  A    between atoms: C_10  and  C_11 
REMARK    6  A    between atoms: C_13  and  C_14 
ROOT
HETATM    1  N   UNL     1      43.910 -14.833   5.227  1.00  0.00    -0.357 N 
HETATM    2  C   UNL     1      43.248 -16.041   5.105  1.00  0.00     0.251 C 
HETATM    3  O   UNL     1      42.540 -16.511   5.988  1.00  0.00    -0.268 OA
HETATM    4  H   UNL     1      44.690 -14.658   4.610  1.00  0.00     0.162 HD
ENDROOT
BRANCH   2   5
HETATM    5  C   UNL     1      43.455 -16.798   3.838  1.00  0.00     0.032 A 
HETATM    6  C   UNL     1      43.717 -18.174   3.929  1.00  0.00     0.029 A 
HETATM    7  C   UNL     1      43.900 -18.949   2.775  1.00  0.00    -0.023 A 
HETATM    8  C   UNL     1      43.810 -18.323   1.525  1.00  0.00     0.012 A 
HETATM    9  C   UNL     1      43.538 -16.956   1.427  1.00  0.00     0.002 A 
HETATM   10  C   UNL     1      43.355 -16.193   2.581  1.00  0.00     0.017 A 
BRANCH   7  11
HETATM   11  C   UNL     1      44.160 -20.379   2.861  1.00  0.00    -0.002 A 
HETATM   12  C   UNL     1      43.941 -21.279   1.837  1.00  0.00     0.153 A 
HETATM   13  O   UNL     1      44.276 -22.540   2.219  1.00  0.00    -0.334 OA
HETATM   14  C   UNL     1      44.716 -22.458   3.499  1.00  0.00     0.142 A 
HETATM   15  C   UNL     1      44.660 -21.157   3.943  1.00  0.00     0.038 A 
ENDBRANCH   7  11
ENDBRANCH   2   5
BRANCH   1  16
HETATM   16  C   UNL     1      43.869 -14.107   6.485  1.00  0.00     0.127 C 
BRANCH  16  17
HETATM   17  C   UNL     1      45.269 -13.832   7.033  1.00  0.00     0.058 C 
BRANCH  17  18
HETATM   18  C   UNL     1      45.233 -12.851   8.177  1.00  0.00    -0.054 A 
HETATM   19  C   UNL     1      44.175 -12.877   9.097  1.00  0.00     0.043 A 
HETATM   20  C   UNL     1      44.167 -11.995  10.174  1.00  0.00     0.066 A 
HETATM   21  C   UNL     1      45.199 -11.082  10.358  1.00  0.00     0.036 A 
HETATM   22  C   UNL     1      46.256 -11.052   9.448  1.00  0.00     0.003 A 
HETATM   23  C   UNL     1      46.275 -11.933   8.364  1.00  0.00     0.007 A 
BRANCH  20  24
HETATM   24  O   UNL     1      43.116 -12.064  11.041  1.00  0.00    -0.361 OA
HETATM   25  H   UNL     1      42.359 -11.603  10.646  1.00  0.00     0.217 HD
ENDBRANCH  20  24
ENDBRANCH  17  18
ENDBRANCH  16  17
ENDBRANCH   1  16
TORSDOF 6
ENDMDL
MODEL 3
REMARK VINA RESULT:      -8.5      3.292      5.094
REMARK  6 active torsions:
REMARK  status: ('A' for Active; 'I' for Inactive)
REMARK    1  A    between atoms: C_3  and  O_4 
REMARK    2  A    between atoms: C_6  and  C_7 
REMARK    3  A    between atoms: C_7  and  C_8 
REMARK    4  A    between atoms: C_8  and  N_9 
REMARK       I    between atoms: N_9  and  C_10 
REMARK    5  A    between atoms: C_10  and  C_11 
REMARK    6  A    between atoms: C_13  and  C_14 
ROOT
HETATM    1  N   UNL     1      43.854 -19.035   6.845  1.00  0.00    -0.357 N 
HETATM    2  C   UNL     1      44.768 -18.883   5.820  1.00  0.00     0.251 C 
HETATM    3  O   UNL     1      45.904 -18.454   5.990  1.00  0.00    -0.268 OA
HETATM    4  H   UNL     1      42.876 -19.101   6.601  1.00  0.00     0.162 HD
ENDROOT
BRANCH   2   5
HETATM    5  C   UNL     1      44.307 -19.238   4.448  1.00  0.00     0.032 A 
HETATM    6  C   UNL     1      43.511 -18.307   3.760  1.00  0.00     0.029 A 
HETATM    7  C   UNL     1      43.061 -18.569   2.459  1.00  0.00    -0.023 A 
HETATM    8  C   UNL     1      43.426 -19.778   1.852  1.00  0.00     0.012 A 
HETATM    9  C   UNL     1      44.227 -20.704   2.527  1.00  0.00     0.002 A 
HETATM   10  C   UNL     1      44.673 -20.433   3.821  1.00  0.00     0.017 A 
BRANCH   7  11
HETATM   11  C   UNL     1      42.247 -17.604   1.734  1.00  0.00    -0.002 A 
HETATM   12  C   UNL     1      40.960 -17.243   2.083  1.00  0.00     0.153 A 
HETATM   13  O   UNL     1      40.461 -16.325   1.215  1.00  0.00    -0.334 OA
HETATM   14  C   UNL     1      41.430 -16.086   0.297  1.00  0.00     0.142 A 
HETATM   15  C   UNL     1      42.543 -16.849   0.564  1.00  0.00     0.038 A 
ENDBRANCH   7  11
ENDBRANCH   2   5
BRANCH   1  16
HETATM   16  C   UNL     1      44.185 -18.580   8.185  1.00  0.00     0.127 C 
BRANCH  16  17
HETATM   17  C   UNL     1      43.415 -17.317   8.567  1.00  0.00     0.058 C 
BRANCH  17  18
HETATM   18  C   UNL     1      43.103 -16.472   7.358  1.00  0.00    -0.054 A 
HETATM   19  C   UNL     1      41.843 -16.549   6.749  1.00  0.00     0.043 A 
HETATM   20  C   UNL     1      41.545 -15.738   5.657  1.00  0.00     0.066 A 
HETATM   21  C   UNL     1      42.483 -14.842   5.156  1.00  0.00     0.036 A 
HETATM   22  C   UNL     1      43.739 -14.758   5.759  1.00  0.00     0.003 A 
HETATM   23  C   UNL     1      44.047 -15.566   6.856  1.00  0.00     0.007 A 
BRANCH  20  24
HETATM   24  O   UNL     1      40.304 -15.851   5.104  1.00  0.00    -0.361 OA
HETATM   25  H   UNL     1      39.645 -15.826   5.817  1.00  0.00     0.217 HD
ENDBRANCH  20  24
ENDBRANCH  17  18
ENDBRANCH  16  17
ENDBRANCH   1  16
TORSDOF 6
ENDMDL
MODEL 4
REMARK VINA RESULT:      -8.4      4.783      8.862
REMARK  6 active torsions:
REMARK  status: ('A' for Active; 'I' for Inactive)
REMARK    1  A    between atoms: C_3  and  O_4 
REMARK    2  A    between atoms: C_6  and  C_7 
REMARK    3  A    between atoms: C_7  and  C_8 
REMARK    4  A    between atoms: C_8  and  N_9 
REMARK       I    between atoms: N_9  and  C_10 
REMARK    5  A    between atoms: C_10  and  C_11 
REMARK    6  A    between atoms: C_13  and  C_14 
ROOT
HETATM    1  N   UNL     1      41.982 -15.997   0.822  1.00  0.00    -0.357 N 
HETATM    2  C   UNL     1      41.496 -17.117   1.472  1.00  0.00     0.251 C 
HETATM    3  O   UNL     1      40.322 -17.465   1.425  1.00  0.00    -0.268 OA
HETATM    4  H   UNL     1      42.859 -15.610   1.139  1.00  0.00     0.162 HD
ENDROOT
BRANCH   2   5
HETATM    5  C   UNL     1      42.470 -17.897   2.287  1.00  0.00     0.032 A 
HETATM    6  C   UNL     1      42.509 -17.660   3.671  1.00  0.00     0.029 A 
HETATM    7  C   UNL     1      43.386 -18.375   4.498  1.00  0.00    -0.023 A 
HETATM    8  C   UNL     1      44.222 -19.339   3.918  1.00  0.00     0.012 A 
HETATM    9  C   UNL     1      44.179 -19.588   2.543  1.00  0.00     0.002 A 
HETATM   10  C   UNL     1      43.301 -18.873   1.728  1.00  0.00     0.017 A 
BRANCH   7  11
HETATM   11  C   UNL     1      43.425 -18.143   5.934  1.00  0.00    -0.002 A 
HETATM   12  C   UNL     1      44.115 -18.927   6.838  1.00  0.00     0.153 A 
HETATM   13  O   UNL     1      43.958 -18.461   8.105  1.00  0.00    -0.334 OA
HETATM   14  C   UNL     1      43.160 -17.366   8.024  1.00  0.00     0.142 A 
HETATM   15  C   UNL     1      42.800 -17.131   6.718  1.00  0.00     0.038 A 
ENDBRANCH   7  11
ENDBRANCH   2   5
BRANCH   1  16
HETATM   16  C   UNL     1      41.067 -15.110   0.124  1.00  0.00     0.127 C 
BRANCH  16  17
HETATM   17  C   UNL     1      41.418 -14.976  -1.357  1.00  0.00     0.058 C 
BRANCH  17  18
HETATM   18  C   UNL     1      40.183 -14.977  -2.221  1.00  0.00    -0.054 A 
HETATM   19  C   UNL     1      40.116 -15.796  -3.358  1.00  0.00     0.043 A 
HETATM   20  C   UNL     1      38.958 -15.823  -4.130  1.00  0.00     0.066 A 
HETATM   21  C   UNL     1      37.854 -15.048  -3.791  1.00  0.00     0.036 A 
HETATM   22  C   UNL     1      37.913 -14.233  -2.661  1.00  0.00     0.003 A 
HETATM   23  C   UNL     1      39.069 -14.199  -1.878  1.00  0.00     0.007 A 
BRANCH  20  24
HETATM   24  O   UNL     1      38.945 -16.639  -5.223  1.00  0.00    -0.361 OA
HETATM   25  H   UNL     1      38.217 -16.366  -5.803  1.00  0.00     0.217 HD
ENDBRANCH  20  24
ENDBRANCH  17  18
ENDBRANCH  16  17
ENDBRANCH   1  16
TORSDOF 6
ENDMDL
MODEL 5
REMARK VINA RESULT:      -8.3      3.853      6.019
REMARK  6 active torsions:
REMARK  status: ('A' for Active; 'I' for Inactive)
REMARK    1  A    between atoms: C_3  and  O_4 
REMARK    2  A    between atoms: C_6  and  C_7 
REMARK    3  A    between atoms: C_7  and  C_8 
REMARK    4  A    between atoms: C_8  and  N_9 
REMARK       I    between atoms: N_9  and  C_10 
REMARK    5  A    between atoms: C_10  and  C_11 
REMARK    6  A    between atoms: C_13  and  C_14 
ROOT
HETATM    1  N   UNL     1      41.968 -15.449   4.496  1.00  0.00    -0.357 N 
HETATM    2  C   UNL     1      41.905 -16.483   5.411  1.00  0.00     0.251 C 
HETATM    3  O   UNL     1      40.979 -16.626   6.201  1.00  0.00    -0.268 OA
HETATM    4  H   UNL     1      42.869 -15.223   4.099  1.00  0.00     0.162 HD
ENDROOT
BRANCH   2   5
HETATM    5  C   UNL     1      43.052 -17.435   5.432  1.00  0.00     0.032 A 
HETATM    6  C   UNL     1      43.064 -18.472   4.485  1.00  0.00     0.029 A 
HETATM    7  C   UNL     1      44.123 -19.389   4.437  1.00  0.00    -0.023 A 
HETATM    8  C   UNL     1      45.177 -19.247   5.350  1.00  0.00     0.012 A 
HETATM    9  C   UNL     1      45.176 -18.210   6.287  1.00  0.00     0.002 A 
HETATM   10  C   UNL     1      44.119 -17.301   6.326  1.00  0.00     0.017 A 
BRANCH   7  11
HETATM   11  C   UNL     1      44.149 -20.460   3.451  1.00  0.00    -0.002 A 
HETATM   12  C   UNL     1      44.647 -21.727   3.681  1.00  0.00     0.153 A 
HETATM   13  O   UNL     1      44.536 -22.501   2.570  1.00  0.00    -0.334 OA
HETATM   14  C   UNL     1      43.960 -21.732   1.612  1.00  0.00     0.142 A 
HETATM   15  C   UNL     1      43.708 -20.471   2.097  1.00  0.00     0.038 A 
ENDBRANCH   7  11
ENDBRANCH   2   5
BRANCH   1  16
HETATM   16  C   UNL     1      40.958 -14.404   4.511  1.00  0.00     0.127 C 
BRANCH  16  17
HETATM   17  C   UNL     1      39.874 -14.641   3.461  1.00  0.00     0.058 C 
BRANCH  17  18
HETATM   18  C   UNL     1      40.422 -15.349   2.249  1.00  0.00    -0.054 A 
HETATM   19  C   UNL     1      40.966 -14.614   1.187  1.00  0.00     0.043 A 
HETATM   20  C   UNL     1      41.507 -15.273   0.087  1.00  0.00     0.066 A 
HETATM   21  C   UNL     1      41.521 -16.662   0.022  1.00  0.00     0.036 A 
HETATM   22  C   UNL     1      40.983 -17.401   1.076  1.00  0.00     0.003 A 
HETATM   23  C   UNL     1      40.439 -16.749   2.185  1.00  0.00     0.007 A 
BRANCH  20  24
HETATM   24  O   UNL     1      42.026 -14.509  -0.917  1.00  0.00    -0.361 OA
HETATM   25  H   UNL     1      42.092 -13.592  -0.605  1.00  0.00     0.217 HD
ENDBRANCH  20  24
ENDBRANCH  17  18
ENDBRANCH  16  17
ENDBRANCH   1  16
TORSDOF 6
ENDMDL
MODEL 6
REMARK VINA RESULT:      -8.3      3.092      5.932
REMARK  6 active torsions:
REMARK  status: ('A' for Active; 'I' for Inactive)
REMARK    1  A    between atoms: C_3  and  O_4 
REMARK    2  A    between atoms: C_6  and  C_7 
REMARK    3  A    between atoms: C_7  and  C_8 
REMARK    4  A    between atoms: C_8  and  N_9 
REMARK       I    between atoms: N_9  and  C_10 
REMARK    5  A    between atoms: C_10  and  C_11 
REMARK    6  A    between atoms: C_13  and  C_14 
ROOT
HETATM    1  N   UNL     1      43.444 -15.959   5.116  1.00  0.00    -0.357 N 
HETATM    2  C   UNL     1      44.120 -16.516   6.186  1.00  0.00     0.251 C 
HETATM    3  O   UNL     1      44.783 -15.857   6.978  1.00  0.00    -0.268 OA
HETATM    4  H   UNL     1      43.179 -16.569   4.356  1.00  0.00     0.162 HD
ENDROOT
BRANCH   2   5
HETATM    5  C   UNL     1      44.043 -17.997   6.335  1.00  0.00     0.032 A 
HETATM    6  C   UNL     1      44.210 -18.784   5.184  1.00  0.00     0.029 A 
HETATM    7  C   UNL     1      44.170 -20.183   5.258  1.00  0.00    -0.023 A 
HETATM    8  C   UNL     1      43.966 -20.784   6.507  1.00  0.00     0.012 A 
HETATM    9  C   UNL     1      43.812 -20.007   7.658  1.00  0.00     0.002 A 
HETATM   10  C   UNL     1      43.855 -18.615   7.575  1.00  0.00     0.017 A 
BRANCH   7  11
HETATM   11  C   UNL     1      44.354 -21.006   4.071  1.00  0.00    -0.002 A 
HETATM   12  C   UNL     1      44.611 -22.362   4.089  1.00  0.00     0.153 A 
HETATM   13  O   UNL     1      44.736 -22.849   2.826  1.00  0.00    -0.334 OA
HETATM   14  C   UNL     1      44.557 -21.802   1.983  1.00  0.00     0.142 A 
HETATM   15  C   UNL     1      44.326 -20.648   2.693  1.00  0.00     0.038 A 
ENDBRANCH   7  11
ENDBRANCH   2   5
BRANCH   1  16
HETATM   16  C   UNL     1      43.586 -14.543   4.826  1.00  0.00     0.127 C 
BRANCH  16  17
HETATM   17  C   UNL     1      43.332 -14.232   3.352  1.00  0.00     0.058 C 
BRANCH  17  18
HETATM   18  C   UNL     1      42.716 -15.407   2.636  1.00  0.00    -0.054 A 
HETATM   19  C   UNL     1      41.325 -15.584   2.636  1.00  0.00     0.043 A 
HETATM   20  C   UNL     1      40.758 -16.648   1.941  1.00  0.00     0.066 A 
HETATM   21  C   UNL     1      41.552 -17.547   1.237  1.00  0.00     0.036 A 
HETATM   22  C   UNL     1      42.937 -17.376   1.231  1.00  0.00     0.003 A 
HETATM   23  C   UNL     1      43.516 -16.311   1.924  1.00  0.00     0.007 A 
BRANCH  20  24
HETATM   24  O   UNL     1      39.400 -16.772   1.971  1.00  0.00    -0.361 OA
HETATM   25  H   UNL     1      39.043 -16.461   1.123  1.00  0.00     0.217 HD
ENDBRANCH  20  24
ENDBRANCH  17  18
ENDBRANCH  16  17
ENDBRANCH   1  16
TORSDOF 6
ENDMDL
MODEL 7
REMARK VINA RESULT:      -8.3      3.770      5.220
REMARK  6 active torsions:
REMARK  status: ('A' for Active; 'I' for Inactive)
REMARK    1  A    between atoms: C_3  and  O_4 
REMARK    2  A    between atoms: C_6  and  C_7 
REMARK    3  A    between atoms: C_7  and  C_8 
REMARK    4  A    between atoms: C_8  and  N_9 
REMARK       I    between atoms: N_9  and  C_10 
REMARK    5  A    between atoms: C_10  and  C_11 
REMARK    6  A    between atoms: C_13  and  C_14 
ROOT
HETATM    1  N   UNL     1      42.726 -16.315   1.383  1.00  0.00    -0.357 N 
HETATM    2  C   UNL     1      42.157 -17.551   1.626  1.00  0.00     0.251 C 
HETATM    3  O   UNL     1      41.015 -17.842   1.291  1.00  0.00    -0.268 OA
HETATM    4  H   UNL     1      43.529 -16.047   1.935  1.00  0.00     0.162 HD
ENDROOT
BRANCH   2   5
HETATM    5  C   UNL     1      42.990 -18.543   2.361  1.00  0.00     0.032 A 
HETATM    6  C   UNL     1      43.128 -18.387   3.750  1.00  0.00     0.029 A 
HETATM    7  C   UNL     1      43.881 -19.297   4.505  1.00  0.00    -0.023 A 
HETATM    8  C   UNL     1      44.490 -20.374   3.847  1.00  0.00     0.012 A 
HETATM    9  C   UNL     1      44.347 -20.542   2.467  1.00  0.00     0.002 A 
HETATM   10  C   UNL     1      43.594 -19.632   1.724  1.00  0.00     0.017 A 
BRANCH   7  11
HETATM   11  C   UNL     1      44.018 -19.149   5.946  1.00  0.00    -0.002 A 
HETATM   12  C   UNL     1      43.670 -20.113   6.872  1.00  0.00     0.153 A 
HETATM   13  O   UNL     1      43.912 -19.681   8.137  1.00  0.00    -0.334 OA
HETATM   14  C   UNL     1      44.422 -18.428   8.034  1.00  0.00     0.142 A 
HETATM   15  C   UNL     1      44.503 -18.051   6.714  1.00  0.00     0.038 A 
ENDBRANCH   7  11
ENDBRANCH   2   5
BRANCH   1  16
HETATM   16  C   UNL     1      41.928 -15.251   0.796  1.00  0.00     0.127 C 
BRANCH  16  17
HETATM   17  C   UNL     1      41.836 -14.032   1.713  1.00  0.00     0.058 C 
BRANCH  17  18
HETATM   18  C   UNL     1      41.966 -14.418   3.164  1.00  0.00    -0.054 A 
HETATM   19  C   UNL     1      40.846 -14.862   3.881  1.00  0.00     0.043 A 
HETATM   20  C   UNL     1      40.979 -15.255   5.209  1.00  0.00     0.066 A 
HETATM   21  C   UNL     1      42.216 -15.219   5.845  1.00  0.00     0.036 A 
HETATM   22  C   UNL     1      43.335 -14.780   5.137  1.00  0.00     0.003 A 
HETATM   23  C   UNL     1      43.213 -14.384   3.804  1.00  0.00     0.007 A 
BRANCH  20  24
HETATM   24  O   UNL     1      39.859 -15.682   5.859  1.00  0.00    -0.361 OA
HETATM   25  H   UNL     1      39.623 -15.024   6.532  1.00  0.00     0.217 HD
ENDBRANCH  20  24
ENDBRANCH  17  18
ENDBRANCH  16  17
ENDBRANCH   1  16
TORSDOF 6
ENDMDL
MODEL 8
REMARK VINA RESULT:      -8.2      4.573      8.483
REMARK  6 active torsions:
REMARK  status: ('A' for Active; 'I' for Inactive)
REMARK    1  A    between atoms: C_3  and  O_4 
REMARK    2  A    between atoms: C_6  and  C_7 
REMARK    3  A    between atoms: C_7  and  C_8 
REMARK    4  A    between atoms: C_8  and  N_9 
REMARK       I    between atoms: N_9  and  C_10 
REMARK    5  A    between atoms: C_10  and  C_11 
REMARK    6  A    between atoms: C_13  and  C_14 
ROOT
HETATM    1  N   UNL     1      41.265 -15.695   1.289  1.00  0.00    -0.357 N 
HETATM    2  C   UNL     1      42.250 -15.262   2.157  1.00  0.00     0.251 C 
HETATM    3  O   UNL     1      42.696 -14.120   2.152  1.00  0.00    -0.268 OA
HETATM    4  H   UNL     1      41.165 -16.690   1.147  1.00  0.00     0.162 HD
ENDROOT
BRANCH   2   5
HETATM    5  C   UNL     1      42.798 -16.268   3.111  1.00  0.00     0.032 A 
HETATM    6  C   UNL     1      43.057 -17.560   2.627  1.00  0.00     0.029 A 
HETATM    7  C   UNL     1      43.591 -18.548   3.466  1.00  0.00    -0.023 A 
HETATM    8  C   UNL     1      43.870 -18.218   4.799  1.00  0.00     0.012 A 
HETATM    9  C   UNL     1      43.626 -16.930   5.283  1.00  0.00     0.002 A 
HETATM   10  C   UNL     1      43.096 -15.953   4.441  1.00  0.00     0.017 A 
BRANCH   7  11
HETATM   11  C   UNL     1      43.874 -19.886   2.969  1.00  0.00    -0.002 A 
HETATM   12  C   UNL     1      44.642 -20.824   3.632  1.00  0.00     0.153 A 
HETATM   13  O   UNL     1      44.726 -21.976   2.916  1.00  0.00    -0.334 OA
HETATM   14  C   UNL     1      44.007 -21.786   1.781  1.00  0.00     0.142 A 
HETATM   15  C   UNL     1      43.469 -20.521   1.761  1.00  0.00     0.038 A 
ENDBRANCH   7  11
ENDBRANCH   2   5
BRANCH   1  16
HETATM   16  C   UNL     1      40.783 -14.812   0.240  1.00  0.00     0.127 C 
BRANCH  16  17
HETATM   17  C   UNL     1      41.182 -15.303  -1.150  1.00  0.00     0.058 C 
BRANCH  17  18
HETATM   18  C   UNL     1      40.046 -15.170  -2.132  1.00  0.00    -0.054 A 
HETATM   19  C   UNL     1      40.017 -15.957  -3.291  1.00  0.00     0.043 A 
HETATM   20  C   UNL     1      38.946 -15.859  -4.175  1.00  0.00     0.066 A 
HETATM   21  C   UNL     1      37.892 -14.987  -3.926  1.00  0.00     0.036 A 
HETATM   22  C   UNL     1      37.912 -14.202  -2.773  1.00  0.00     0.003 A 
HETATM   23  C   UNL     1      38.981 -14.293  -1.879  1.00  0.00     0.007 A 
BRANCH  20  24
HETATM   24  O   UNL     1      38.967 -16.651  -5.285  1.00  0.00    -0.361 OA
HETATM   25  H   UNL     1      38.230 -16.393  -5.862  1.00  0.00     0.217 HD
ENDBRANCH  20  24
ENDBRANCH  17  18
ENDBRANCH  16  17
ENDBRANCH   1  16
TORSDOF 6
ENDMDL
MODEL 9
REMARK VINA RESULT:      -8.2      3.704      4.879
REMARK  6 active torsions:
REMARK  status: ('A' for Active; 'I' for Inactive)
REMARK    1  A    between atoms: C_3  and  O_4 
REMARK    2  A    between atoms: C_6  and  C_7 
REMARK    3  A    between atoms: C_7  and  C_8 
REMARK    4  A    between atoms: C_8  and  N_9 
REMARK       I    between atoms: N_9  and  C_10 
REMARK    5  A    between atoms: C_10  and  C_11 
REMARK    6  A    between atoms: C_13  and  C_14 
ROOT
HETATM    1  N   UNL     1      41.358 -16.230   4.898  1.00  0.00    -0.357 N 
HETATM    2  C   UNL     1      42.724 -16.220   4.687  1.00  0.00     0.251 C 
HETATM    3  O   UNL     1      43.494 -15.492   5.301  1.00  0.00    -0.268 OA
HETATM    4  H   UNL     1      40.771 -16.616   4.172  1.00  0.00     0.162 HD
ENDROOT
BRANCH   2   5
HETATM    5  C   UNL     1      43.249 -17.129   3.628  1.00  0.00     0.032 A 
HETATM    6  C   UNL     1      43.572 -18.446   3.993  1.00  0.00     0.029 A 
HETATM    7  C   UNL     1      44.051 -19.358   3.042  1.00  0.00    -0.023 A 
HETATM    8  C   UNL     1      44.196 -18.932   1.715  1.00  0.00     0.012 A 
HETATM    9  C   UNL     1      43.865 -17.626   1.344  1.00  0.00     0.002 A 
HETATM   10  C   UNL     1      43.387 -16.726   2.296  1.00  0.00     0.017 A 
BRANCH   7  11
HETATM   11  C   UNL     1      44.376 -20.729   3.409  1.00  0.00    -0.002 A 
HETATM   12  C   UNL     1      44.347 -21.803   2.542  1.00  0.00     0.153 A 
HETATM   13  O   UNL     1      44.697 -22.951   3.178  1.00  0.00    -0.334 OA
HETATM   14  C   UNL     1      44.958 -22.621   4.467  1.00  0.00     0.142 A 
HETATM   15  C   UNL     1      44.771 -21.273   4.665  1.00  0.00     0.038 A 
ENDBRANCH   7  11
ENDBRANCH   2   5
BRANCH   1  16
HETATM   16  C   UNL     1      40.759 -15.273   5.812  1.00  0.00     0.127 C 
BRANCH  16  17
HETATM   17  C   UNL     1      39.829 -14.297   5.092  1.00  0.00     0.058 C 
BRANCH  17  18
HETATM   18  C   UNL     1      40.206 -14.143   3.641  1.00  0.00    -0.054 A 
HETATM   19  C   UNL     1      41.212 -13.242   3.263  1.00  0.00     0.043 A 
HETATM   20  C   UNL     1      41.583 -13.132   1.927  1.00  0.00     0.066 A 
HETATM   21  C   UNL     1      40.971 -13.908   0.948  1.00  0.00     0.036 A 
HETATM   22  C   UNL     1      39.971 -14.808   1.316  1.00  0.00     0.003 A 
HETATM   23  C   UNL     1      39.591 -14.927   2.655  1.00  0.00     0.007 A 
BRANCH  20  24
HETATM   24  O   UNL     1      42.569 -12.243   1.615  1.00  0.00    -0.361 OA
HETATM   25  H   UNL     1      43.003 -12.537   0.797  1.00  0.00     0.217 HD
ENDBRANCH  20  24
ENDBRANCH  17  18
ENDBRANCH  16  17
ENDBRANCH   1  16
TORSDOF 6
ENDMDL
MODEL 10
REMARK VINA RESULT:      -7.9      4.958      7.135
REMARK  6 active torsions:
REMARK  status: ('A' for Active; 'I' for Inactive)
REMARK    1  A    between atoms: C_3  and  O_4 
REMARK    2  A    between atoms: C_6  and  C_7 
REMARK    3  A    between atoms: C_7  and  C_8 
REMARK    4  A    between atoms: C_8  and  N_9 
REMARK       I    between atoms: N_9  and  C_10 
REMARK    5  A    between atoms: C_10  and  C_11 
REMARK    6  A    between atoms: C_13  and  C_14 
ROOT
HETATM    1  N   UNL     1      39.830 -15.618   1.346  1.00  0.00    -0.357 N 
HETATM    2  C   UNL     1      40.871 -15.506   2.249  1.00  0.00     0.251 C 
HETATM    3  O   UNL     1      40.933 -14.623   3.097  1.00  0.00    -0.268 OA
HETATM    4  H   UNL     1      39.986 -16.162   0.510  1.00  0.00     0.162 HD
ENDROOT
BRANCH   2   5
HETATM    5  C   UNL     1      41.971 -16.505   2.136  1.00  0.00     0.032 A 
HETATM    6  C   UNL     1      42.302 -17.251   3.278  1.00  0.00     0.029 A 
HETATM    7  C   UNL     1      43.313 -18.222   3.235  1.00  0.00    -0.023 A 
HETATM    8  C   UNL     1      43.985 -18.438   2.025  1.00  0.00     0.012 A 
HETATM    9  C   UNL     1      43.652 -17.707   0.881  1.00  0.00     0.002 A 
HETATM   10  C   UNL     1      42.643 -16.745   0.933  1.00  0.00     0.017 A 
BRANCH   7  11
HETATM   11  C   UNL     1      43.653 -19.008   4.411  1.00  0.00    -0.002 A 
HETATM   12  C   UNL     1      44.503 -20.097   4.409  1.00  0.00     0.153 A 
HETATM   13  O   UNL     1      44.621 -20.623   5.656  1.00  0.00    -0.334 OA
HETATM   14  C   UNL     1      43.844 -19.871   6.475  1.00  0.00     0.142 A 
HETATM   15  C   UNL     1      43.223 -18.872   5.762  1.00  0.00     0.038 A 
ENDBRANCH   7  11
ENDBRANCH   2   5
BRANCH   1  16
HETATM   16  C   UNL     1      38.793 -14.600   1.304  1.00  0.00     0.127 C 
BRANCH  16  17
HETATM   17  C   UNL     1      38.614 -14.023  -0.100  1.00  0.00     0.058 C 
BRANCH  17  18
HETATM   18  C   UNL     1      39.941 -13.708  -0.743  1.00  0.00    -0.054 A 
HETATM   19  C   UNL     1      40.378 -14.440  -1.856  1.00  0.00     0.043 A 
HETATM   20  C   UNL     1      41.585 -14.119  -2.470  1.00  0.00     0.066 A 
HETATM   21  C   UNL     1      42.372 -13.075  -1.998  1.00  0.00     0.036 A 
HETATM   22  C   UNL     1      41.943 -12.341  -0.892  1.00  0.00     0.003 A 
HETATM   23  C   UNL     1      40.733 -12.653  -0.269  1.00  0.00     0.007 A 
BRANCH  20  24
HETATM   24  O   UNL     1      41.962 -14.860  -3.551  1.00  0.00    -0.361 OA
HETATM   25  H   UNL     1      42.711 -15.422  -3.295  1.00  0.00     0.217 HD
ENDBRANCH  20  24
ENDBRANCH  17  18
ENDBRANCH  16  17
ENDBRANCH   1  16
TORSDOF 6
ENDMDL
