MODEL 1
REMARK VINA RESULT:      -9.5      0.000      0.000
REMARK  8 active torsions:
REMARK  status: ('A' for Active; 'I' for Inactive)
REMARK    1  A    between atoms: C_2  and  N_3 
REMARK    2  A    between atoms: C_2  and  C_34 
REMARK       I    between atoms: N_3  and  C_4 
REMARK    3  A    between atoms: C_4  and  C_5 
REMARK    4  A    between atoms: C_5  and  N_6 
REMARK       I    between atoms: N_12  and  C_13 
REMARK    5  A    between atoms: C_13  and  C_14 
REMARK    6  A    between atoms: C_14  and  O_15 
REMARK    7  A    between atoms: O_15  and  C_16 
REMARK    8  A    between atoms: N_25  and  C_26 
ROOT
HETATM    1  N   UNL     1      40.711 -15.440   4.198  1.00  0.00    -0.325 N 
HETATM    2  C   UNL     1      40.334 -15.430   2.878  1.00  0.00     0.250 C 
HETATM    3  O   UNL     1      40.202 -16.426   2.184  1.00  0.00    -0.270 OA
HETATM    4  C   UNL     1      40.175 -13.954   2.452  1.00  0.00     0.118 C 
HETATM    5  C   UNL     1      38.881 -13.807   1.647  1.00  0.00     0.061 C 
HETATM    6  C   UNL     1      39.009 -14.323   0.215  1.00  0.00     0.129 C 
HETATM    7  N   UNL     1      40.233 -13.873  -0.442  1.00  0.00    -0.350 N 
HETATM    8  C   UNL     1      40.184 -13.645  -1.822  1.00  0.00     0.244 C 
HETATM    9  O   UNL     1      39.127 -13.709  -2.457  1.00  0.00    -0.271 OA
HETATM   10  C   UNL     1      41.473 -14.152   0.277  1.00  0.00     0.129 C 
HETATM   11  C   UNL     1      41.451 -13.572   1.685  1.00  0.00     0.061 C 
HETATM   12  N   UNL     1      40.120 -13.269   3.779  1.00  0.00    -0.346 N 
HETATM   13  C   UNL     1      40.513 -14.183   4.848  1.00  0.00     0.254 C 
ENDROOT
BRANCH  12  14
HETATM   14  C   UNL     1      40.003 -11.916   4.047  1.00  0.00     0.032 A 
HETATM   15  C   UNL     1      41.102 -11.071   4.267  1.00  0.00     0.029 A 
HETATM   16  C   UNL     1      40.965  -9.704   4.550  1.00  0.00     0.002 A 
HETATM   17  C   UNL     1      39.706  -9.125   4.610  1.00  0.00     0.000 A 
HETATM   18  C   UNL     1      38.592  -9.916   4.381  1.00  0.00     0.002 A 
HETATM   19  C   UNL     1      38.743 -11.282   4.101  1.00  0.00     0.029 A 
ENDBRANCH  12  14
BRANCH   1  20
HETATM   20  C   UNL     1      41.082 -16.625   4.951  1.00  0.00     0.230 C 
BRANCH  20  21
HETATM   21  C   UNL     1      42.486 -17.140   4.634  1.00  0.00     0.236 C 
HETATM   22  N   UNL     1      42.588 -17.800   3.430  1.00  0.00    -0.351 N 
HETATM   23  H   UNL     1      41.791 -17.704   2.810  1.00  0.00     0.163 HD
HETATM   24  O   UNL     1      43.432 -16.886   5.374  1.00  0.00    -0.272 OA
BRANCH  22  25
HETATM   25  C   UNL     1      43.847 -18.154   2.785  1.00  0.00     0.113 C 
HETATM   26  C   UNL     1      44.038 -17.564   1.384  1.00  0.00     0.037 C 
BRANCH  25  27
HETATM   27  C   UNL     1      44.095 -19.650   2.869  1.00  0.00    -0.036 A 
HETATM   28  C   UNL     1      44.587 -20.210   4.060  1.00  0.00     0.009 A 
HETATM   29  C   UNL     1      44.802 -21.585   4.169  1.00  0.00     0.001 A 
HETATM   30  C   UNL     1      44.521 -22.424   3.094  1.00  0.00     0.000 A 
HETATM   31  C   UNL     1      44.023 -21.887   1.909  1.00  0.00     0.001 A 
HETATM   32  C   UNL     1      43.809 -20.511   1.799  1.00  0.00     0.009 A 
ENDBRANCH  25  27
ENDBRANCH  22  25
ENDBRANCH  20  21
ENDBRANCH   1  20
BRANCH   8  33
HETATM   33  C   UNL     1      41.491 -13.332  -2.555  1.00  0.00     0.278 C 
BRANCH  33  34
HETATM   34  O   UNL     1      41.416 -12.046  -3.159  1.00  0.00    -0.342 OA
BRANCH  34  35
HETATM   35  C   UNL     1      42.168 -11.061  -2.578  1.00  0.00     0.069 A 
HETATM   36  C   UNL     1      42.998 -11.220  -1.466  1.00  0.00     0.037 A 
HETATM   37  C   UNL     1      43.704 -10.126  -0.956  1.00  0.00     0.003 A 
HETATM   38  C   UNL     1      43.584  -8.872  -1.553  1.00  0.00     0.000 A 
HETATM   39  C   UNL     1      42.750  -8.707  -2.657  1.00  0.00     0.003 A 
HETATM   40  C   UNL     1      42.039  -9.798  -3.162  1.00  0.00     0.037 A 
ENDBRANCH  34  35
ENDBRANCH  33  34
ENDBRANCH   8  33
TORSDOF 8
ENDMDL
MODEL 2
REMARK VINA RESULT:      -9.3      2.143      9.047
REMARK  8 active torsions:
REMARK  status: ('A' for Active; 'I' for Inactive)
REMARK    1  A    between atoms: C_2  and  N_3 
REMARK    2  A    between atoms: C_2  and  C_34 
REMARK       I    between atoms: N_3  and  C_4 
REMARK    3  A    between atoms: C_4  and  C_5 
REMARK    4  A    between atoms: C_5  and  N_6 
REMARK       I    between atoms: N_12  and  C_13 
REMARK    5  A    between atoms: C_13  and  C_14 
REMARK    6  A    between atoms: C_14  and  O_15 
REMARK    7  A    between atoms: O_15  and  C_16 
REMARK    8  A    between atoms: N_25  and  C_26 
ROOT
HETATM    1  N   UNL     1      40.654 -11.481   1.208  1.00  0.00    -0.325 N 
HETATM    2  C   UNL     1      40.690 -12.508   2.118  1.00  0.00     0.250 C 
HETATM    3  O   UNL     1      40.784 -12.363   3.328  1.00  0.00    -0.270 OA
HETATM    4  C   UNL     1      40.651 -13.832   1.326  1.00  0.00     0.118 C 
HETATM    5  C   UNL     1      39.657 -14.783   1.999  1.00  0.00     0.061 C 
HETATM    6  C   UNL     1      40.214 -15.428   3.267  1.00  0.00     0.129 C 
HETATM    7  N   UNL     1      41.574 -15.931   3.094  1.00  0.00    -0.350 N 
HETATM    8  C   UNL     1      41.939 -17.076   3.813  1.00  0.00     0.244 C 
HETATM    9  O   UNL     1      41.122 -17.713   4.484  1.00  0.00    -0.271 OA
HETATM   10  C   UNL     1      42.544 -14.966   2.585  1.00  0.00     0.129 C 
HETATM   11  C   UNL     1      42.095 -14.357   1.264  1.00  0.00     0.061 C 
HETATM   12  N   UNL     1      40.193 -13.359  -0.016  1.00  0.00    -0.346 N 
HETATM   13  C   UNL     1      40.256 -11.902  -0.098  1.00  0.00     0.254 C 
ENDROOT
BRANCH  12  14
HETATM   14  C   UNL     1      39.987 -14.100  -1.167  1.00  0.00     0.032 A 
HETATM   15  C   UNL     1      38.798 -14.058  -1.912  1.00  0.00     0.029 A 
HETATM   16  C   UNL     1      38.601 -14.826  -3.069  1.00  0.00     0.002 A 
HETATM   17  C   UNL     1      39.604 -15.664  -3.533  1.00  0.00     0.000 A 
HETATM   18  C   UNL     1      40.802 -15.725  -2.840  1.00  0.00     0.002 A 
HETATM   19  C   UNL     1      40.986 -14.953  -1.683  1.00  0.00     0.029 A 
ENDBRANCH  12  14
BRANCH   1  20
HETATM   20  C   UNL     1      40.795 -10.073   1.532  1.00  0.00     0.230 C 
BRANCH  20  21
HETATM   21  C   UNL     1      41.560  -9.272   0.479  1.00  0.00     0.236 C 
HETATM   22  N   UNL     1      42.819  -9.757   0.204  1.00  0.00    -0.351 N 
HETATM   23  H   UNL     1      43.023 -10.680   0.574  1.00  0.00     0.163 HD
HETATM   24  O   UNL     1      41.027  -8.338  -0.114  1.00  0.00    -0.272 OA
BRANCH  22  25
HETATM   25  C   UNL     1      43.638  -9.338  -0.928  1.00  0.00     0.113 C 
HETATM   26  C   UNL     1      43.903  -7.832  -1.005  1.00  0.00     0.037 C 
BRANCH  25  27
HETATM   27  C   UNL     1      43.124  -9.946  -2.221  1.00  0.00    -0.036 A 
HETATM   28  C   UNL     1      42.926 -11.334  -2.310  1.00  0.00     0.009 A 
HETATM   29  C   UNL     1      42.433 -11.914  -3.481  1.00  0.00     0.001 A 
HETATM   30  C   UNL     1      42.121 -11.116  -4.578  1.00  0.00     0.000 A 
HETATM   31  C   UNL     1      42.301  -9.737  -4.504  1.00  0.00     0.001 A 
HETATM   32  C   UNL     1      42.795  -9.156  -3.333  1.00  0.00     0.009 A 
ENDBRANCH  25  27
ENDBRANCH  22  25
ENDBRANCH  20  21
ENDBRANCH   1  20
BRANCH   8  33
HETATM   33  C   UNL     1      43.402 -17.524   3.774  1.00  0.00     0.278 C 
BRANCH  33  34
HETATM   34  O   UNL     1      43.659 -18.250   2.577  1.00  0.00    -0.342 OA
BRANCH  34  35
HETATM   35  C   UNL     1      43.933 -19.582   2.726  1.00  0.00     0.069 A 
HETATM   36  C   UNL     1      43.669 -20.578   1.784  1.00  0.00     0.037 A 
HETATM   37  C   UNL     1      43.983 -21.911   2.066  1.00  0.00     0.003 A 
HETATM   38  C   UNL     1      44.561 -22.254   3.287  1.00  0.00     0.000 A 
HETATM   39  C   UNL     1      44.817 -21.265   4.234  1.00  0.00     0.003 A 
HETATM   40  C   UNL     1      44.497 -19.934   3.955  1.00  0.00     0.037 A 
ENDBRANCH  34  35
ENDBRANCH  33  34
ENDBRANCH   8  33
TORSDOF 8
ENDMDL
MODEL 3
REMARK VINA RESULT:      -9.1      1.620      2.794
REMARK  8 active torsions:
REMARK  status: ('A' for Active; 'I' for Inactive)
REMARK    1  A    between atoms: C_2  and  N_3 
REMARK    2  A    between atoms: C_2  and  C_34 
REMARK       I    between atoms: N_3  and  C_4 
REMARK    3  A    between atoms: C_4  and  C_5 
REMARK    4  A    between atoms: C_5  and  N_6 
REMARK       I    between atoms: N_12  and  C_13 
REMARK    5  A    between atoms: C_13  and  C_14 
REMARK    6  A    between atoms: C_14  and  O_15 
REMARK    7  A    between atoms: O_15  and  C_16 
REMARK    8  A    between atoms: N_25  and  C_26 
ROOT
HETATM    1  N   UNL     1      40.984 -14.995   4.667  1.00  0.00    -0.325 N 
HETATM    2  C   UNL     1      40.329 -14.611   3.523  1.00  0.00     0.250 C 
HETATM    3  O   UNL     1      39.816 -15.379   2.723  1.00  0.00    -0.270 OA
HETATM    4  C   UNL     1      40.420 -13.072   3.430  1.00  0.00     0.118 C 
HETATM    5  C   UNL     1      39.046 -12.516   3.047  1.00  0.00     0.061 C 
HETATM    6  C   UNL     1      38.722 -12.698   1.566  1.00  0.00     0.129 C 
HETATM    7  N   UNL     1      39.834 -12.330   0.694  1.00  0.00    -0.350 N 
HETATM    8  C   UNL     1      39.525 -11.781  -0.556  1.00  0.00     0.244 C 
HETATM    9  O   UNL     1      38.365 -11.507  -0.880  1.00  0.00    -0.271 OA
HETATM   10  C   UNL     1      41.107 -12.982   0.986  1.00  0.00     0.129 C 
HETATM   11  C   UNL     1      41.541 -12.753   2.427  1.00  0.00     0.061 C 
HETATM   12  N   UNL     1      40.829 -12.717   4.824  1.00  0.00    -0.346 N 
HETATM   13  C   UNL     1      41.234 -13.911   5.562  1.00  0.00     0.254 C 
ENDROOT
BRANCH  12  14
HETATM   14  C   UNL     1      41.090 -11.465   5.353  1.00  0.00     0.032 A 
HETATM   15  C   UNL     1      41.157 -10.296   4.579  1.00  0.00     0.029 A 
HETATM   16  C   UNL     1      41.436  -9.037   5.130  1.00  0.00     0.002 A 
HETATM   17  C   UNL     1      41.648  -8.900   6.494  1.00  0.00     0.000 A 
HETATM   18  C   UNL     1      41.573 -10.024   7.301  1.00  0.00     0.002 A 
HETATM   19  C   UNL     1      41.295 -11.278   6.737  1.00  0.00     0.029 A 
ENDBRANCH  12  14
BRANCH   1  20
HETATM   20  C   UNL     1      41.234 -16.369   5.063  1.00  0.00     0.230 C 
BRANCH  20  21
HETATM   21  C   UNL     1      42.611 -16.888   4.647  1.00  0.00     0.236 C 
HETATM   22  N   UNL     1      42.611 -17.622   3.482  1.00  0.00    -0.351 N 
HETATM   23  H   UNL     1      41.757 -17.574   2.935  1.00  0.00     0.163 HD
HETATM   24  O   UNL     1      43.618 -16.578   5.277  1.00  0.00    -0.272 OA
BRANCH  22  25
HETATM   25  C   UNL     1      43.810 -18.002   2.744  1.00  0.00     0.113 C 
HETATM   26  C   UNL     1      43.899 -17.429   1.326  1.00  0.00     0.037 C 
BRANCH  25  27
HETATM   27  C   UNL     1      44.040 -19.502   2.824  1.00  0.00    -0.036 A 
HETATM   28  C   UNL     1      44.617 -20.058   3.977  1.00  0.00     0.009 A 
HETATM   29  C   UNL     1      44.819 -21.436   4.083  1.00  0.00     0.001 A 
HETATM   30  C   UNL     1      44.439 -22.280   3.043  1.00  0.00     0.000 A 
HETATM   31  C   UNL     1      43.856 -21.746   1.896  1.00  0.00     0.001 A 
HETATM   32  C   UNL     1      43.655 -20.368   1.789  1.00  0.00     0.009 A 
ENDBRANCH  25  27
ENDBRANCH  22  25
ENDBRANCH  20  21
ENDBRANCH   1  20
BRANCH   8  33
HETATM   33  C   UNL     1      40.667 -11.540  -1.548  1.00  0.00     0.278 C 
BRANCH  33  34
HETATM   34  O   UNL     1      40.294 -11.999  -2.842  1.00  0.00    -0.342 OA
BRANCH  34  35
HETATM   35  C   UNL     1      40.234 -13.356  -3.006  1.00  0.00     0.069 A 
HETATM   36  C   UNL     1      41.267 -14.256  -2.737  1.00  0.00     0.037 A 
HETATM   37  C   UNL     1      41.084 -15.623  -2.963  1.00  0.00     0.003 A 
HETATM   38  C   UNL     1      39.870 -16.097  -3.458  1.00  0.00     0.000 A 
HETATM   39  C   UNL     1      38.839 -15.202  -3.737  1.00  0.00     0.003 A 
HETATM   40  C   UNL     1      39.025 -13.835  -3.518  1.00  0.00     0.037 A 
ENDBRANCH  34  35
ENDBRANCH  33  34
ENDBRANCH   8  33
TORSDOF 8
ENDMDL
MODEL 4
REMARK VINA RESULT:      -9.0      3.498      9.010
REMARK  8 active torsions:
REMARK  status: ('A' for Active; 'I' for Inactive)
REMARK    1  A    between atoms: C_2  and  N_3 
REMARK    2  A    between atoms: C_2  and  C_34 
REMARK       I    between atoms: N_3  and  C_4 
REMARK    3  A    between atoms: C_4  and  C_5 
REMARK    4  A    between atoms: C_5  and  N_6 
REMARK       I    between atoms: N_12  and  C_13 
REMARK    5  A    between atoms: C_13  and  C_14 
REMARK    6  A    between atoms: C_14  and  O_15 
REMARK    7  A    between atoms: O_15  and  C_16 
REMARK    8  A    between atoms: N_25  and  C_26 
ROOT
HETATM    1  N   UNL     1      40.829 -11.264   4.419  1.00  0.00    -0.325 N 
HETATM    2  C   UNL     1      41.061 -12.507   4.952  1.00  0.00     0.250 C 
HETATM    3  O   UNL     1      41.458 -12.715   6.088  1.00  0.00    -0.270 OA
HETATM    4  C   UNL     1      40.786 -13.547   3.843  1.00  0.00     0.118 C 
HETATM    5  C   UNL     1      39.963 -14.695   4.433  1.00  0.00     0.061 C 
HETATM    6  C   UNL     1      40.800 -15.653   5.279  1.00  0.00     0.129 C 
HETATM    7  N   UNL     1      42.058 -16.024   4.637  1.00  0.00    -0.350 N 
HETATM    8  C   UNL     1      42.556 -17.309   4.877  1.00  0.00     0.244 C 
HETATM    9  O   UNL     1      41.914 -18.150   5.514  1.00  0.00    -0.271 OA
HETATM   10  C   UNL     1      42.899 -14.909   4.209  1.00  0.00     0.129 C 
HETATM   11  C   UNL     1      42.152 -13.965   3.276  1.00  0.00     0.061 C 
HETATM   12  N   UNL     1      40.022 -12.726   2.854  1.00  0.00    -0.346 N 
HETATM   13  C   UNL     1      40.106 -11.307   3.187  1.00  0.00     0.254 C 
ENDROOT
BRANCH  12  14
HETATM   14  C   UNL     1      39.513 -13.111   1.626  1.00  0.00     0.032 A 
HETATM   15  C   UNL     1      40.316 -13.448   0.526  1.00  0.00     0.029 A 
HETATM   16  C   UNL     1      39.783 -13.823  -0.717  1.00  0.00     0.002 A 
HETATM   17  C   UNL     1      38.410 -13.885  -0.899  1.00  0.00     0.000 A 
HETATM   18  C   UNL     1      37.577 -13.579   0.165  1.00  0.00     0.002 A 
HETATM   19  C   UNL     1      38.123 -13.204   1.401  1.00  0.00     0.029 A 
ENDBRANCH  12  14
BRANCH   1  20
HETATM   20  C   UNL     1      41.089 -10.005   5.094  1.00  0.00     0.230 C 
BRANCH  20  21
HETATM   21  C   UNL     1      40.517  -9.938   6.511  1.00  0.00     0.236 C 
HETATM   22  N   UNL     1      41.469  -9.834   7.500  1.00  0.00    -0.351 N 
HETATM   23  H   UNL     1      42.408  -9.621   7.183  1.00  0.00     0.163 HD
HETATM   24  O   UNL     1      39.305  -9.891   6.699  1.00  0.00    -0.272 OA
BRANCH  22  25
HETATM   25  C   UNL     1      41.183  -9.498   8.891  1.00  0.00     0.113 C 
HETATM   26  C   UNL     1      40.749  -8.048   9.124  1.00  0.00     0.037 C 
BRANCH  25  27
HETATM   27  C   UNL     1      42.306  -9.966   9.801  1.00  0.00    -0.036 A 
HETATM   28  C   UNL     1      43.254 -10.886   9.323  1.00  0.00     0.009 A 
HETATM   29  C   UNL     1      44.308 -11.314  10.134  1.00  0.00     0.001 A 
HETATM   30  C   UNL     1      44.437 -10.822  11.430  1.00  0.00     0.000 A 
HETATM   31  C   UNL     1      43.512  -9.901  11.915  1.00  0.00     0.001 A 
HETATM   32  C   UNL     1      42.457  -9.473  11.106  1.00  0.00     0.009 A 
ENDBRANCH  25  27
ENDBRANCH  22  25
ENDBRANCH  20  21
ENDBRANCH   1  20
BRANCH   8  33
HETATM   33  C   UNL     1      43.950 -17.661   4.349  1.00  0.00     0.278 C 
BRANCH  33  34
HETATM   34  O   UNL     1      43.854 -18.180   3.027  1.00  0.00    -0.342 OA
BRANCH  34  35
HETATM   35  C   UNL     1      44.009 -19.533   2.898  1.00  0.00     0.069 A 
HETATM   36  C   UNL     1      43.563 -20.305   1.824  1.00  0.00     0.037 A 
HETATM   37  C   UNL     1      43.770 -21.688   1.819  1.00  0.00     0.003 A 
HETATM   38  C   UNL     1      44.421 -22.304   2.887  1.00  0.00     0.000 A 
HETATM   39  C   UNL     1      44.860 -21.539   3.966  1.00  0.00     0.003 A 
HETATM   40  C   UNL     1      44.647 -20.159   3.973  1.00  0.00     0.037 A 
ENDBRANCH  34  35
ENDBRANCH  33  34
ENDBRANCH   8  33
TORSDOF 8
ENDMDL
MODEL 5
REMARK VINA RESULT:      -8.9      3.824      8.124
REMARK  8 active torsions:
REMARK  status: ('A' for Active; 'I' for Inactive)
REMARK    1  A    between atoms: C_2  and  N_3 
REMARK    2  A    between atoms: C_2  and  C_34 
REMARK       I    between atoms: N_3  and  C_4 
REMARK    3  A    between atoms: C_4  and  C_5 
REMARK    4  A    between atoms: C_5  and  N_6 
REMARK       I    between atoms: N_12  and  C_13 
REMARK    5  A    between atoms: C_13  and  C_14 
REMARK    6  A    between atoms: C_14  and  O_15 
REMARK    7  A    between atoms: O_15  and  C_16 
REMARK    8  A    between atoms: N_25  and  C_26 
ROOT
HETATM    1  N   UNL     1      43.666 -15.913   6.154  1.00  0.00    -0.325 N 
HETATM    2  C   UNL     1      43.123 -15.190   5.121  1.00  0.00     0.250 C 
HETATM    3  O   UNL     1      42.876 -13.994   5.162  1.00  0.00    -0.270 OA
HETATM    4  C   UNL     1      42.845 -16.172   3.962  1.00  0.00     0.118 C 
HETATM    5  C   UNL     1      43.321 -15.542   2.651  1.00  0.00     0.061 C 
HETATM    6  C   UNL     1      42.366 -14.473   2.123  1.00  0.00     0.129 C 
HETATM    7  N   UNL     1      40.968 -14.893   2.167  1.00  0.00    -0.350 N 
HETATM    8  C   UNL     1      40.115 -14.418   1.164  1.00  0.00     0.244 C 
HETATM    9  O   UNL     1      40.536 -13.759   0.208  1.00  0.00    -0.271 OA
HETATM   10  C   UNL     1      40.490 -15.358   3.466  1.00  0.00     0.129 C 
HETATM   11  C   UNL     1      41.343 -16.498   4.006  1.00  0.00     0.061 C 
HETATM   12  N   UNL     1      43.662 -17.354   4.376  1.00  0.00    -0.346 N 
HETATM   13  C   UNL     1      44.116 -17.209   5.757  1.00  0.00     0.254 C 
ENDROOT
BRANCH  12  14
HETATM   14  C   UNL     1      43.800 -18.573   3.736  1.00  0.00     0.032 A 
HETATM   15  C   UNL     1      43.209 -18.869   2.498  1.00  0.00     0.029 A 
HETATM   16  C   UNL     1      43.349 -20.116   1.869  1.00  0.00     0.002 A 
HETATM   17  C   UNL     1      44.105 -21.117   2.460  1.00  0.00     0.000 A 
HETATM   18  C   UNL     1      44.723 -20.864   3.674  1.00  0.00     0.002 A 
HETATM   19  C   UNL     1      44.574 -19.614   4.293  1.00  0.00     0.029 A 
ENDBRANCH  12  14
BRANCH   1  20
HETATM   20  C   UNL     1      43.960 -15.387   7.475  1.00  0.00     0.230 C 
BRANCH  20  21
HETATM   21  C   UNL     1      44.646 -14.022   7.455  1.00  0.00     0.236 C 
HETATM   22  N   UNL     1      44.144 -13.123   8.370  1.00  0.00    -0.351 N 
HETATM   23  H   UNL     1      43.525 -13.513   9.072  1.00  0.00     0.163 HD
HETATM   24  O   UNL     1      45.618 -13.815   6.734  1.00  0.00    -0.272 OA
BRANCH  22  25
HETATM   25  C   UNL     1      44.783 -11.861   8.726  1.00  0.00     0.113 C 
HETATM   26  C   UNL     1      46.275 -11.968   9.055  1.00  0.00     0.037 C 
BRANCH  25  27
HETATM   27  C   UNL     1      43.967 -11.119   9.770  1.00  0.00    -0.036 A 
HETATM   28  C   UNL     1      44.527 -10.845  11.029  1.00  0.00     0.009 A 
HETATM   29  C   UNL     1      43.805 -10.145  11.998  1.00  0.00     0.001 A 
HETATM   30  C   UNL     1      42.515  -9.700  11.721  1.00  0.00     0.000 A 
HETATM   31  C   UNL     1      41.948  -9.953  10.475  1.00  0.00     0.001 A 
HETATM   32  C   UNL     1      42.669 -10.654   9.506  1.00  0.00     0.009 A 
ENDBRANCH  25  27
ENDBRANCH  22  25
ENDBRANCH  20  21
ENDBRANCH   1  20
BRANCH   8  33
HETATM   33  C   UNL     1      38.617 -14.711   1.283  1.00  0.00     0.278 C 
BRANCH  33  34
HETATM   34  O   UNL     1      37.879 -13.827   0.447  1.00  0.00    -0.342 OA
BRANCH  34  35
HETATM   35  C   UNL     1      37.549 -12.616   0.993  1.00  0.00     0.069 A 
HETATM   36  C   UNL     1      38.206 -11.997   2.058  1.00  0.00     0.037 A 
HETATM   37  C   UNL     1      37.759 -10.761   2.535  1.00  0.00     0.003 A 
HETATM   38  C   UNL     1      36.657 -10.139   1.950  1.00  0.00     0.000 A 
HETATM   39  C   UNL     1      35.992 -10.757   0.892  1.00  0.00     0.003 A 
HETATM   40  C   UNL     1      36.434 -11.995   0.421  1.00  0.00     0.037 A 
ENDBRANCH  34  35
ENDBRANCH  33  34
ENDBRANCH   8  33
TORSDOF 8
ENDMDL
MODEL 6
REMARK VINA RESULT:      -8.7      4.169      9.002
REMARK  8 active torsions:
REMARK  status: ('A' for Active; 'I' for Inactive)
REMARK    1  A    between atoms: C_2  and  N_3 
REMARK    2  A    between atoms: C_2  and  C_34 
REMARK       I    between atoms: N_3  and  C_4 
REMARK    3  A    between atoms: C_4  and  C_5 
REMARK    4  A    between atoms: C_5  and  N_6 
REMARK       I    between atoms: N_12  and  C_13 
REMARK    5  A    between atoms: C_13  and  C_14 
REMARK    6  A    between atoms: C_14  and  O_15 
REMARK    7  A    between atoms: O_15  and  C_16 
REMARK    8  A    between atoms: N_25  and  C_26 
ROOT
HETATM    1  N   UNL     1      40.395 -11.068   5.723  1.00  0.00    -0.325 N 
HETATM    2  C   UNL     1      40.375 -12.440   5.713  1.00  0.00     0.250 C 
HETATM    3  O   UNL     1      40.047 -13.140   6.659  1.00  0.00    -0.270 OA
HETATM    4  C   UNL     1      40.890 -12.902   4.332  1.00  0.00     0.118 C 
HETATM    5  C   UNL     1      39.978 -14.015   3.809  1.00  0.00     0.061 C 
HETATM    6  C   UNL     1      40.239 -15.362   4.481  1.00  0.00     0.129 C 
HETATM    7  N   UNL     1      41.661 -15.682   4.574  1.00  0.00    -0.350 N 
HETATM    8  C   UNL     1      42.030 -17.029   4.486  1.00  0.00     0.244 C 
HETATM    9  O   UNL     1      41.211 -17.915   4.227  1.00  0.00    -0.271 OA
HETATM   10  C   UNL     1      42.495 -14.665   5.208  1.00  0.00     0.129 C 
HETATM   11  C   UNL     1      42.359 -13.314   4.519  1.00  0.00     0.061 C 
HETATM   12  N   UNL     1      40.783 -11.637   3.541  1.00  0.00    -0.346 N 
HETATM   13  C   UNL     1      40.536 -10.498   4.421  1.00  0.00     0.254 C 
ENDROOT
BRANCH  12  14
HETATM   14  C   UNL     1      41.124 -11.417   2.218  1.00  0.00     0.032 A 
HETATM   15  C   UNL     1      41.627 -12.417   1.371  1.00  0.00     0.029 A 
HETATM   16  C   UNL     1      41.979 -12.172   0.035  1.00  0.00     0.002 A 
HETATM   17  C   UNL     1      41.828 -10.906  -0.509  1.00  0.00     0.000 A 
HETATM   18  C   UNL     1      41.318  -9.891   0.285  1.00  0.00     0.002 A 
HETATM   19  C   UNL     1      40.971 -10.148   1.619  1.00  0.00     0.029 A 
ENDBRANCH  12  14
BRANCH   1  20
HETATM   20  C   UNL     1      40.102 -10.238   6.879  1.00  0.00     0.230 C 
BRANCH  20  21
HETATM   21  C   UNL     1      41.347  -9.771   7.632  1.00  0.00     0.236 C 
HETATM   22  N   UNL     1      41.619 -10.489   8.775  1.00  0.00    -0.351 N 
HETATM   23  H   UNL     1      41.095 -11.350   8.887  1.00  0.00     0.163 HD
HETATM   24  O   UNL     1      42.067  -8.888   7.174  1.00  0.00    -0.272 OA
BRANCH  22  25
HETATM   25  C   UNL     1      42.871 -10.415   9.520  1.00  0.00     0.113 C 
HETATM   26  C   UNL     1      43.946 -11.407   9.068  1.00  0.00     0.037 C 
BRANCH  25  27
HETATM   27  C   UNL     1      42.610 -10.420  11.017  1.00  0.00    -0.036 A 
HETATM   28  C   UNL     1      41.451 -11.034  11.521  1.00  0.00     0.009 A 
HETATM   29  C   UNL     1      41.200 -11.071  12.894  1.00  0.00     0.001 A 
HETATM   30  C   UNL     1      42.106 -10.502  13.786  1.00  0.00     0.000 A 
HETATM   31  C   UNL     1      43.265  -9.898  13.304  1.00  0.00     0.001 A 
HETATM   32  C   UNL     1      43.516  -9.860  11.930  1.00  0.00     0.009 A 
ENDBRANCH  25  27
ENDBRANCH  22  25
ENDBRANCH  20  21
ENDBRANCH   1  20
BRANCH   8  33
HETATM   33  C   UNL     1      43.493 -17.400   4.745  1.00  0.00     0.278 C 
BRANCH  33  34
HETATM   34  O   UNL     1      44.108 -17.833   3.537  1.00  0.00    -0.342 OA
BRANCH  34  35
HETATM   35  C   UNL     1      44.186 -19.187   3.351  1.00  0.00     0.069 A 
HETATM   36  C   UNL     1      44.766 -20.098   4.236  1.00  0.00     0.037 A 
HETATM   37  C   UNL     1      44.796 -21.460   3.921  1.00  0.00     0.003 A 
HETATM   38  C   UNL     1      44.248 -21.916   2.723  1.00  0.00     0.000 A 
HETATM   39  C   UNL     1      43.676 -21.010   1.833  1.00  0.00     0.003 A 
HETATM   40  C   UNL     1      43.653 -19.649   2.144  1.00  0.00     0.037 A 
ENDBRANCH  34  35
ENDBRANCH  33  34
ENDBRANCH   8  33
TORSDOF 8
ENDMDL
MODEL 7
REMARK VINA RESULT:      -8.6      4.217      9.179
REMARK  8 active torsions:
REMARK  status: ('A' for Active; 'I' for Inactive)
REMARK    1  A    between atoms: C_2  and  N_3 
REMARK    2  A    between atoms: C_2  and  C_34 
REMARK       I    between atoms: N_3  and  C_4 
REMARK    3  A    between atoms: C_4  and  C_5 
REMARK    4  A    between atoms: C_5  and  N_6 
REMARK       I    between atoms: N_12  and  C_13 
REMARK    5  A    between atoms: C_13  and  C_14 
REMARK    6  A    between atoms: C_14  and  O_15 
REMARK    7  A    between atoms: O_15  and  C_16 
REMARK    8  A    between atoms: N_25  and  C_26 
ROOT
HETATM    1  N   UNL     1      41.815 -12.864   2.388  1.00  0.00    -0.325 N 
HETATM    2  C   UNL     1      41.013 -12.404   3.402  1.00  0.00     0.250 C 
HETATM    3  O   UNL     1      40.339 -11.386   3.350  1.00  0.00    -0.270 OA
HETATM    4  C   UNL     1      41.178 -13.366   4.599  1.00  0.00     0.118 C 
HETATM    5  C   UNL     1      39.795 -13.679   5.177  1.00  0.00     0.061 C 
HETATM    6  C   UNL     1      39.234 -12.540   6.027  1.00  0.00     0.129 C 
HETATM    7  N   UNL     1      40.216 -11.993   6.959  1.00  0.00    -0.350 N 
HETATM    8  C   UNL     1      39.748 -11.515   8.188  1.00  0.00     0.244 C 
HETATM    9  O   UNL     1      38.570 -11.645   8.534  1.00  0.00    -0.271 OA
HETATM   10  C   UNL     1      41.479 -11.566   6.365  1.00  0.00     0.129 C 
HETATM   11  C   UNL     1      42.145 -12.690   5.584  1.00  0.00     0.061 C 
HETATM   12  N   UNL     1      41.818 -14.546   3.941  1.00  0.00    -0.346 N 
HETATM   13  C   UNL     1      42.264 -14.205   2.592  1.00  0.00     0.254 C 
ENDROOT
BRANCH  12  14
HETATM   14  C   UNL     1      42.230 -15.735   4.516  1.00  0.00     0.032 A 
HETATM   15  C   UNL     1      43.405 -15.863   5.274  1.00  0.00     0.029 A 
HETATM   16  C   UNL     1      43.814 -17.080   5.839  1.00  0.00     0.002 A 
HETATM   17  C   UNL     1      43.046 -18.223   5.674  1.00  0.00     0.000 A 
HETATM   18  C   UNL     1      41.868 -18.141   4.949  1.00  0.00     0.002 A 
HETATM   19  C   UNL     1      41.471 -16.918   4.387  1.00  0.00     0.029 A 
ENDBRANCH  12  14
BRANCH   1  20
HETATM   20  C   UNL     1      42.045 -12.179   1.129  1.00  0.00     0.230 C 
BRANCH  20  21
HETATM   21  C   UNL     1      40.787 -12.028   0.273  1.00  0.00     0.236 C 
HETATM   22  N   UNL     1      40.241 -13.221  -0.145  1.00  0.00    -0.351 N 
HETATM   23  H   UNL     1      40.605 -14.052   0.310  1.00  0.00     0.163 HD
HETATM   24  O   UNL     1      40.288 -10.924   0.075  1.00  0.00    -0.272 OA
BRANCH  22  25
HETATM   25  C   UNL     1      38.919 -13.360  -0.744  1.00  0.00     0.113 C 
HETATM   26  C   UNL     1      37.794 -13.670   0.249  1.00  0.00     0.037 C 
BRANCH  25  27
HETATM   27  C   UNL     1      38.964 -14.293  -1.942  1.00  0.00    -0.036 A 
HETATM   28  C   UNL     1      37.815 -14.475  -2.729  1.00  0.00     0.009 A 
HETATM   29  C   UNL     1      37.838 -15.310  -3.848  1.00  0.00     0.001 A 
HETATM   30  C   UNL     1      39.012 -15.969  -4.204  1.00  0.00     0.000 A 
HETATM   31  C   UNL     1      40.163 -15.792  -3.440  1.00  0.00     0.001 A 
HETATM   32  C   UNL     1      40.141 -14.958  -2.320  1.00  0.00     0.009 A 
ENDBRANCH  25  27
ENDBRANCH  22  25
ENDBRANCH  20  21
ENDBRANCH   1  20
BRANCH   8  33
HETATM   33  C   UNL     1      40.733 -10.790   9.110  1.00  0.00     0.278 C 
BRANCH  33  34
HETATM   34  O   UNL     1      40.487 -11.148  10.466  1.00  0.00    -0.342 OA
BRANCH  34  35
HETATM   35  C   UNL     1      41.432 -10.754  11.374  1.00  0.00     0.069 A 
HETATM   36  C   UNL     1      41.303 -10.819  12.762  1.00  0.00     0.037 A 
HETATM   37  C   UNL     1      42.339 -10.368  13.585  1.00  0.00     0.003 A 
HETATM   38  C   UNL     1      43.507  -9.851  13.025  1.00  0.00     0.000 A 
HETATM   39  C   UNL     1      43.636  -9.776  11.640  1.00  0.00     0.003 A 
HETATM   40  C   UNL     1      42.598 -10.220  10.819  1.00  0.00     0.037 A 
ENDBRANCH  34  35
ENDBRANCH  33  34
ENDBRANCH   8  33
TORSDOF 8
ENDMDL
MODEL 8
REMARK VINA RESULT:      -8.6      4.328      8.194
REMARK  8 active torsions:
REMARK  status: ('A' for Active; 'I' for Inactive)
REMARK    1  A    between atoms: C_2  and  N_3 
REMARK    2  A    between atoms: C_2  and  C_34 
REMARK       I    between atoms: N_3  and  C_4 
REMARK    3  A    between atoms: C_4  and  C_5 
REMARK    4  A    between atoms: C_5  and  N_6 
REMARK       I    between atoms: N_12  and  C_13 
REMARK    5  A    between atoms: C_13  and  C_14 
REMARK    6  A    between atoms: C_14  and  O_15 
REMARK    7  A    between atoms: O_15  and  C_16 
REMARK    8  A    between atoms: N_25  and  C_26 
ROOT
HETATM    1  N   UNL     1      41.321 -12.462   3.551  1.00  0.00    -0.325 N 
HETATM    2  C   UNL     1      40.684 -11.848   4.601  1.00  0.00     0.250 C 
HETATM    3  O   UNL     1      39.975 -10.858   4.503  1.00  0.00    -0.270 OA
HETATM    4  C   UNL     1      41.080 -12.602   5.889  1.00  0.00     0.118 C 
HETATM    5  C   UNL     1      39.826 -12.827   6.738  1.00  0.00     0.061 C 
HETATM    6  C   UNL     1      39.375 -11.569   7.478  1.00  0.00     0.129 C 
HETATM    7  N   UNL     1      40.479 -10.870   8.131  1.00  0.00    -0.350 N 
HETATM    8  C   UNL     1      40.206 -10.201   9.329  1.00  0.00     0.244 C 
HETATM    9  O   UNL     1      39.107 -10.282   9.887  1.00  0.00    -0.271 OA
HETATM   10  C   UNL     1      41.609 -10.535   7.269  1.00  0.00     0.129 C 
HETATM   11  C   UNL     1      42.174 -11.767   6.575  1.00  0.00     0.061 C 
HETATM   12  N   UNL     1      41.643 -13.868   5.328  1.00  0.00    -0.346 N 
HETATM   13  C   UNL     1      41.844 -13.748   3.886  1.00  0.00     0.254 C 
ENDROOT
BRANCH  12  14
HETATM   14  C   UNL     1      42.187 -14.944   6.007  1.00  0.00     0.032 A 
HETATM   15  C   UNL     1      43.516 -14.986   6.456  1.00  0.00     0.029 A 
HETATM   16  C   UNL     1      44.055 -16.091   7.131  1.00  0.00     0.002 A 
HETATM   17  C   UNL     1      43.268 -17.203   7.394  1.00  0.00     0.000 A 
HETATM   18  C   UNL     1      41.944 -17.200   6.986  1.00  0.00     0.002 A 
HETATM   19  C   UNL     1      41.418 -16.089   6.310  1.00  0.00     0.029 A 
ENDBRANCH  12  14
BRANCH   1  20
HETATM   20  C   UNL     1      41.313 -11.988   2.179  1.00  0.00     0.230 C 
BRANCH  20  21
HETATM   21  C   UNL     1      41.977 -12.949   1.193  1.00  0.00     0.236 C 
HETATM   22  N   UNL     1      41.826 -14.280   1.511  1.00  0.00    -0.351 N 
HETATM   23  H   UNL     1      41.143 -14.482   2.234  1.00  0.00     0.163 HD
HETATM   24  O   UNL     1      42.511 -12.532   0.169  1.00  0.00    -0.272 OA
BRANCH  22  25
HETATM   25  C   UNL     1      42.135 -15.386   0.611  1.00  0.00     0.113 C 
HETATM   26  C   UNL     1      41.078 -15.653  -0.464  1.00  0.00     0.037 C 
BRANCH  25  27
HETATM   27  C   UNL     1      42.550 -16.620   1.395  1.00  0.00    -0.036 A 
HETATM   28  C   UNL     1      43.633 -17.397   0.951  1.00  0.00     0.009 A 
HETATM   29  C   UNL     1      44.047 -18.522   1.667  1.00  0.00     0.001 A 
HETATM   30  C   UNL     1      43.391 -18.885   2.840  1.00  0.00     0.000 A 
HETATM   31  C   UNL     1      42.322 -18.119   3.300  1.00  0.00     0.001 A 
HETATM   32  C   UNL     1      41.907 -16.994   2.585  1.00  0.00     0.009 A 
ENDBRANCH  25  27
ENDBRANCH  22  25
ENDBRANCH  20  21
ENDBRANCH   1  20
BRANCH   8  33
HETATM   33  C   UNL     1      41.305  -9.329   9.943  1.00  0.00     0.278 C 
BRANCH  33  34
HETATM   34  O   UNL     1      41.761  -9.903  11.162  1.00  0.00    -0.342 OA
BRANCH  34  35
HETATM   35  C   UNL     1      42.893 -10.669  11.082  1.00  0.00     0.069 A 
HETATM   36  C   UNL     1      43.138 -11.837  11.805  1.00  0.00     0.037 A 
HETATM   37  C   UNL     1      44.347 -12.522  11.644  1.00  0.00     0.003 A 
HETATM   38  C   UNL     1      45.313 -12.042  10.761  1.00  0.00     0.000 A 
HETATM   39  C   UNL     1      45.076 -10.871  10.044  1.00  0.00     0.003 A 
HETATM   40  C   UNL     1      43.872 -10.184  10.211  1.00  0.00     0.037 A 
ENDBRANCH  34  35
ENDBRANCH  33  34
ENDBRANCH   8  33
TORSDOF 8
ENDMDL
MODEL 9
REMARK VINA RESULT:      -8.5      1.880      2.742
REMARK  8 active torsions:
REMARK  status: ('A' for Active; 'I' for Inactive)
REMARK    1  A    between atoms: C_2  and  N_3 
REMARK    2  A    between atoms: C_2  and  C_34 
REMARK       I    between atoms: N_3  and  C_4 
REMARK    3  A    between atoms: C_4  and  C_5 
REMARK    4  A    between atoms: C_5  and  N_6 
REMARK       I    between atoms: N_12  and  C_13 
REMARK    5  A    between atoms: C_13  and  C_14 
REMARK    6  A    between atoms: C_14  and  O_15 
REMARK    7  A    between atoms: O_15  and  C_16 
REMARK    8  A    between atoms: N_25  and  C_26 
ROOT
HETATM    1  N   UNL     1      40.967 -13.622   3.392  1.00  0.00    -0.325 N 
HETATM    2  C   UNL     1      41.255 -14.088   2.133  1.00  0.00     0.250 C 
HETATM    3  O   UNL     1      42.135 -14.893   1.873  1.00  0.00    -0.270 OA
HETATM    4  C   UNL     1      40.312 -13.367   1.145  1.00  0.00     0.118 C 
HETATM    5  C   UNL     1      39.744 -14.395   0.163  1.00  0.00     0.061 C 
HETATM    6  C   UNL     1      40.745 -14.804  -0.916  1.00  0.00     0.129 C 
HETATM    7  N   UNL     1      41.439 -13.662  -1.505  1.00  0.00    -0.350 N 
HETATM    8  C   UNL     1      41.800 -13.748  -2.855  1.00  0.00     0.244 C 
HETATM    9  O   UNL     1      41.453 -14.697  -3.565  1.00  0.00    -0.271 OA
HETATM   10  C   UNL     1      42.099 -12.769  -0.558  1.00  0.00     0.129 C 
HETATM   11  C   UNL     1      41.129 -12.242   0.490  1.00  0.00     0.061 C 
HETATM   12  N   UNL     1      39.280 -12.812   2.074  1.00  0.00    -0.346 N 
HETATM   13  C   UNL     1      39.724 -12.921   3.461  1.00  0.00     0.254 C 
ENDROOT
BRANCH  12  14
HETATM   14  C   UNL     1      38.172 -12.041   1.770  1.00  0.00     0.032 A 
HETATM   15  C   UNL     1      37.887 -10.815   2.391  1.00  0.00     0.029 A 
HETATM   16  C   UNL     1      36.751 -10.053   2.080  1.00  0.00     0.002 A 
HETATM   17  C   UNL     1      35.857 -10.490   1.114  1.00  0.00     0.000 A 
HETATM   18  C   UNL     1      36.108 -11.686   0.460  1.00  0.00     0.002 A 
HETATM   19  C   UNL     1      37.246 -12.440   0.782  1.00  0.00     0.029 A 
ENDBRANCH  12  14
BRANCH   1  20
HETATM   20  C   UNL     1      41.710 -13.955   4.595  1.00  0.00     0.230 C 
BRANCH  20  21
HETATM   21  C   UNL     1      41.473 -15.382   5.088  1.00  0.00     0.236 C 
HETATM   22  N   UNL     1      42.473 -16.269   4.755  1.00  0.00    -0.351 N 
HETATM   23  H   UNL     1      43.328 -15.851   4.401  1.00  0.00     0.163 HD
HETATM   24  O   UNL     1      40.507 -15.653   5.795  1.00  0.00    -0.272 OA
BRANCH  22  25
HETATM   25  C   UNL     1      42.614 -17.607   5.318  1.00  0.00     0.113 C 
HETATM   26  C   UNL     1      43.297 -17.658   6.688  1.00  0.00     0.037 C 
BRANCH  25  27
HETATM   27  C   UNL     1      43.199 -18.564   4.294  1.00  0.00    -0.036 A 
HETATM   28  C   UNL     1      44.145 -19.523   4.696  1.00  0.00     0.009 A 
HETATM   29  C   UNL     1      44.681 -20.428   3.778  1.00  0.00     0.001 A 
HETATM   30  C   UNL     1      44.275 -20.396   2.446  1.00  0.00     0.000 A 
HETATM   31  C   UNL     1      43.331 -19.459   2.033  1.00  0.00     0.001 A 
HETATM   32  C   UNL     1      42.795 -18.552   2.951  1.00  0.00     0.009 A 
ENDBRANCH  25  27
ENDBRANCH  22  25
ENDBRANCH  20  21
ENDBRANCH   1  20
BRANCH   8  33
HETATM   33  C   UNL     1      42.669 -12.636  -3.448  1.00  0.00     0.278 C 
BRANCH  33  34
HETATM   34  O   UNL     1      41.871 -11.759  -4.235  1.00  0.00    -0.342 OA
BRANCH  34  35
HETATM   35  C   UNL     1      42.129 -10.422  -4.097  1.00  0.00     0.069 A 
HETATM   36  C   UNL     1      42.304  -9.747  -2.888  1.00  0.00     0.037 A 
HETATM   37  C   UNL     1      42.547  -8.370  -2.881  1.00  0.00     0.003 A 
HETATM   38  C   UNL     1      42.616  -7.664  -4.081  1.00  0.00     0.000 A 
HETATM   39  C   UNL     1      42.433  -8.331  -5.290  1.00  0.00     0.003 A 
HETATM   40  C   UNL     1      42.183  -9.705  -5.295  1.00  0.00     0.037 A 
ENDBRANCH  34  35
ENDBRANCH  33  34
ENDBRANCH   8  33
TORSDOF 8
ENDMDL
MODEL 10
REMARK VINA RESULT:      -8.4      3.934      9.026
REMARK  8 active torsions:
REMARK  status: ('A' for Active; 'I' for Inactive)
REMARK    1  A    between atoms: C_2  and  N_3 
REMARK    2  A    between atoms: C_2  and  C_34 
REMARK       I    between atoms: N_3  and  C_4 
REMARK    3  A    between atoms: C_4  and  C_5 
REMARK    4  A    between atoms: C_5  and  N_6 
REMARK       I    between atoms: N_12  and  C_13 
REMARK    5  A    between atoms: C_13  and  C_14 
REMARK    6  A    between atoms: C_14  and  O_15 
REMARK    7  A    between atoms: O_15  and  C_16 
REMARK    8  A    between atoms: N_25  and  C_26 
ROOT
HETATM    1  N   UNL     1      41.333 -13.413   2.314  1.00  0.00    -0.325 N 
HETATM    2  C   UNL     1      40.588 -12.902   3.348  1.00  0.00     0.250 C 
HETATM    3  O   UNL     1      39.678 -12.098   3.220  1.00  0.00    -0.270 OA
HETATM    4  C   UNL     1      41.155 -13.486   4.661  1.00  0.00     0.118 C 
HETATM    5  C   UNL     1      39.991 -13.937   5.547  1.00  0.00     0.061 C 
HETATM    6  C   UNL     1      39.283 -12.774   6.238  1.00  0.00     0.129 C 
HETATM    7  N   UNL     1      40.214 -11.818   6.833  1.00  0.00    -0.350 N 
HETATM    8  C   UNL     1      39.815 -11.166   8.005  1.00  0.00     0.244 C 
HETATM    9  O   UNL     1      38.767 -11.458   8.590  1.00  0.00    -0.271 OA
HETATM   10  C   UNL     1      41.233 -11.287   5.931  1.00  0.00     0.129 C 
HETATM   11  C   UNL     1      42.046 -12.398   5.283  1.00  0.00     0.061 C 
HETATM   12  N   UNL     1      41.976 -14.624   4.147  1.00  0.00    -0.346 N 
HETATM   13  C   UNL     1      42.130 -14.535   2.697  1.00  0.00     0.254 C 
ENDROOT
BRANCH  12  14
HETATM   14  C   UNL     1      42.752 -15.520   4.862  1.00  0.00     0.032 A 
HETATM   15  C   UNL     1      43.480 -15.170   6.009  1.00  0.00     0.029 A 
HETATM   16  C   UNL     1      44.272 -16.088   6.715  1.00  0.00     0.002 A 
HETATM   17  C   UNL     1      44.353 -17.409   6.298  1.00  0.00     0.000 A 
HETATM   18  C   UNL     1      43.636 -17.805   5.181  1.00  0.00     0.002 A 
HETATM   19  C   UNL     1      42.849 -16.876   4.483  1.00  0.00     0.029 A 
ENDBRANCH  12  14
BRANCH   1  20
HETATM   20  C   UNL     1      41.205 -13.022   0.922  1.00  0.00     0.230 C 
BRANCH  20  21
HETATM   21  C   UNL     1      40.263 -13.918   0.116  1.00  0.00     0.236 C 
HETATM   22  N   UNL     1      40.544 -13.966  -1.231  1.00  0.00    -0.351 N 
HETATM   23  H   UNL     1      41.437 -13.571  -1.507  1.00  0.00     0.163 HD
HETATM   24  O   UNL     1      39.401 -14.590   0.674  1.00  0.00    -0.272 OA
BRANCH  22  25
HETATM   25  C   UNL     1      39.969 -14.930  -2.162  1.00  0.00     0.113 C 
HETATM   26  C   UNL     1      40.986 -15.636  -3.064  1.00  0.00     0.037 C 
BRANCH  25  27
HETATM   27  C   UNL     1      38.791 -14.326  -2.907  1.00  0.00    -0.036 A 
HETATM   28  C   UNL     1      37.850 -15.167  -3.525  1.00  0.00     0.009 A 
HETATM   29  C   UNL     1      36.747 -14.635  -4.197  1.00  0.00     0.001 A 
HETATM   30  C   UNL     1      36.563 -13.256  -4.255  1.00  0.00     0.000 A 
HETATM   31  C   UNL     1      37.480 -12.409  -3.640  1.00  0.00     0.001 A 
HETATM   32  C   UNL     1      38.584 -12.939  -2.968  1.00  0.00     0.009 A 
ENDBRANCH  25  27
ENDBRANCH  22  25
ENDBRANCH  20  21
ENDBRANCH   1  20
BRANCH   8  33
HETATM   33  C   UNL     1      40.702 -10.045   8.552  1.00  0.00     0.278 C 
BRANCH  33  34
HETATM   34  O   UNL     1      41.058 -10.319   9.903  1.00  0.00    -0.342 OA
BRANCH  34  35
HETATM   35  C   UNL     1      42.312 -10.827  10.104  1.00  0.00     0.069 A 
HETATM   36  C   UNL     1      43.291 -10.994   9.123  1.00  0.00     0.037 A 
HETATM   37  C   UNL     1      44.533 -11.543   9.456  1.00  0.00     0.003 A 
HETATM   38  C   UNL     1      44.802 -11.926  10.769  1.00  0.00     0.000 A 
HETATM   39  C   UNL     1      43.825 -11.770  11.750  1.00  0.00     0.003 A 
HETATM   40  C   UNL     1      42.582 -11.229  11.415  1.00  0.00     0.037 A 
ENDBRANCH  34  35
ENDBRANCH  33  34
ENDBRANCH   8  33
TORSDOF 8
ENDMDL
