MODEL 1
REMARK VINA RESULT:      -9.7      0.000      0.000
REMARK  6 active torsions:
REMARK  status: ('A' for Active; 'I' for Inactive)
REMARK       I    between atoms: N_1  and  C_2 
REMARK    1  A    between atoms: C_2  and  C_4 
REMARK    2  A    between atoms: C_9  and  C_13 
REMARK       I    between atoms: C_13  and  N_15 
REMARK    3  A    between atoms: C_19  and  C_20 
REMARK    4  A    between atoms: C_24  and  C_26 
REMARK       I    between atoms: C_26  and  N_28 
REMARK    5  A    between atoms: N_28  and  C_29 
REMARK    6  A    between atoms: C_34  and  N_38 
ROOT
HETATM    1  C   UNL     1      38.784 -12.948   0.625  1.00  0.00    -0.034 A 
HETATM    2  C   UNL     1      37.631 -12.693  -0.138  1.00  0.00     0.009 A 
HETATM    3  C   UNL     1      36.689 -11.748   0.275  1.00  0.00     0.002 A 
HETATM    4  C   UNL     1      36.878 -11.048   1.465  1.00  0.00     0.017 A 
HETATM    5  C   UNL     1      38.017 -11.296   2.239  1.00  0.00     0.033 A 
HETATM    6  C   UNL     1      38.974 -12.222   1.812  1.00  0.00     0.026 A 
ENDROOT
BRANCH   1   7
HETATM    7  C   UNL     1      39.781 -13.987   0.135  1.00  0.00     0.120 C 
HETATM    8  N   UNL     1      40.554 -14.609   1.204  1.00  0.00    -0.338 N 
HETATM    9  C   UNL     1      39.976 -15.550   2.043  1.00  0.00     0.274 C 
HETATM   10  C   UNL     1      41.952 -14.203   1.158  1.00  0.00     0.127 C 
HETATM   11  O   UNL     1      38.779 -15.832   1.960  1.00  0.00    -0.266 OA
HETATM   12  C   UNL     1      41.995 -13.053   0.160  1.00  0.00     0.022 C 
HETATM   13  C   UNL     1      40.845 -13.376  -0.786  1.00  0.00     0.032 C 
BRANCH   9  14
HETATM   14  C   UNL     1      40.818 -16.204   3.059  1.00  0.00     0.142 A 
HETATM   15  N   UNL     1      41.640 -17.302   2.857  1.00  0.00    -0.224 NA
HETATM   16  C   UNL     1      42.186 -17.565   4.024  1.00  0.00     0.134 A 
HETATM   17  C   UNL     1      43.095 -18.580   4.432  1.00  0.00     0.052 A 
HETATM   18  N   UNL     1      41.761 -16.669   4.996  1.00  0.00    -0.314 N 
HETATM   19  C   UNL     1      43.517 -18.620   5.712  1.00  0.00     0.022 A 
HETATM   20  C   UNL     1      43.078 -17.636   6.702  1.00  0.00     0.047 A 
HETATM   21  C   UNL     1      42.192 -16.694   6.319  1.00  0.00     0.115 A 
HETATM   22  C   UNL     1      40.882 -15.816   4.388  1.00  0.00     0.135 A 
BRANCH  20  23
HETATM   23  C   UNL     1      43.567 -17.733   8.108  1.00  0.00     0.250 C 
HETATM   24  N   UNL     1      44.012 -18.956   8.508  1.00  0.00    -0.366 N 
HETATM   25  H   UNL     1      44.258 -19.052   9.485  1.00  0.00     0.159 HD
HETATM   26  H   UNL     1      43.879 -19.798   7.967  1.00  0.00     0.159 HD
HETATM   27  O   UNL     1      43.524 -16.788   8.884  1.00  0.00    -0.268 OA
ENDBRANCH  20  23
ENDBRANCH   9  14
ENDBRANCH   1   7
BRANCH   5  28
HETATM   28  C   UNL     1      38.244 -10.584   3.526  1.00  0.00     0.257 C 
HETATM   29  O   UNL     1      37.594  -9.573   3.754  1.00  0.00    -0.267 OA
HETATM   30  N   UNL     1      39.218 -11.158   4.306  1.00  0.00    -0.301 N 
HETATM   31  H   UNL     1      39.769 -11.928   3.960  1.00  0.00     0.171 HD
BRANCH  30  32
HETATM   32  C   UNL     1      39.509 -10.721   5.565  1.00  0.00     0.174 A 
HETATM   33  N   UNL     1      38.890 -10.939   6.697  1.00  0.00    -0.228 NA
HETATM   34  C   UNL     1      39.605 -10.361   7.722  1.00  0.00     0.050 A 
HETATM   35  C   UNL     1      39.183 -10.516   9.142  1.00  0.00     0.062 C 
HETATM   36  C   UNL     1      40.767  -9.729   7.337  1.00  0.00     0.013 A 
HETATM   37  C   UNL     1      40.170  -9.857  10.129  1.00  0.00     0.031 C 
HETATM   38  C   UNL     1      41.660  -9.773   9.669  1.00  0.00     0.084 C 
HETATM   39  C   UNL     1      41.736  -9.098   8.266  1.00  0.00     0.073 C 
HETATM   40  S   UNL     1      40.946  -9.791   5.647  1.00  0.00    -0.055 SA
BRANCH  38  41
HETATM   41  N   UNL     1      42.478 -10.975   9.920  1.00  0.00    -0.404 N 
HETATM   42  C   UNL     1      43.676 -11.263   9.126  1.00  0.00     0.143 C 
HETATM   43  C   UNL     1      44.988 -10.747   9.734  1.00  0.00     0.187 C 
HETATM   44  O   UNL     1      45.159 -11.233  11.072  1.00  0.00    -0.388 OA
HETATM   45  C   UNL     1      44.059 -10.830  11.894  1.00  0.00     0.187 C 
HETATM   46  C   UNL     1      42.713 -11.325  11.332  1.00  0.00     0.143 C 
ENDBRANCH  38  41
ENDBRANCH  30  32
ENDBRANCH   5  28
TORSDOF 6
ENDMDL
MODEL 2
REMARK VINA RESULT:      -9.2      3.285      9.780
REMARK  6 active torsions:
REMARK  status: ('A' for Active; 'I' for Inactive)
REMARK       I    between atoms: N_1  and  C_2 
REMARK    1  A    between atoms: C_2  and  C_4 
REMARK    2  A    between atoms: C_9  and  C_13 
REMARK       I    between atoms: C_13  and  N_15 
REMARK    3  A    between atoms: C_19  and  C_20 
REMARK    4  A    between atoms: C_24  and  C_26 
REMARK       I    between atoms: C_26  and  N_28 
REMARK    5  A    between atoms: N_28  and  C_29 
REMARK    6  A    between atoms: C_34  and  N_38 
ROOT
HETATM    1  C   UNL     1      43.422 -17.117   5.325  1.00  0.00    -0.034 A 
HETATM    2  C   UNL     1      43.894 -18.415   5.592  1.00  0.00     0.009 A 
HETATM    3  C   UNL     1      44.151 -19.314   4.556  1.00  0.00     0.002 A 
HETATM    4  C   UNL     1      43.931 -18.936   3.233  1.00  0.00     0.017 A 
HETATM    5  C   UNL     1      43.454 -17.651   2.951  1.00  0.00     0.033 A 
HETATM    6  C   UNL     1      43.223 -16.741   3.987  1.00  0.00     0.026 A 
ENDROOT
BRANCH   1   7
HETATM    7  C   UNL     1      43.156 -16.173   6.488  1.00  0.00     0.120 C 
HETATM    8  N   UNL     1      42.473 -14.944   6.101  1.00  0.00    -0.338 N 
HETATM    9  C   UNL     1      41.121 -14.951   5.788  1.00  0.00     0.274 C 
HETATM   10  C   UNL     1      43.349 -13.786   6.216  1.00  0.00     0.127 C 
HETATM   11  O   UNL     1      40.477 -16.001   5.756  1.00  0.00    -0.266 OA
HETATM   12  C   UNL     1      44.740 -14.367   6.437  1.00  0.00     0.022 C 
HETATM   13  C   UNL     1      44.454 -15.685   7.144  1.00  0.00     0.032 C 
BRANCH   9  14
HETATM   14  C   UNL     1      40.460 -13.672   5.477  1.00  0.00     0.142 A 
HETATM   15  N   UNL     1      40.470 -12.532   6.266  1.00  0.00    -0.224 NA
HETATM   16  C   UNL     1      39.746 -11.641   5.624  1.00  0.00     0.134 A 
HETATM   17  C   UNL     1      39.389 -10.304   5.951  1.00  0.00     0.052 A 
HETATM   18  N   UNL     1      39.262 -12.150   4.425  1.00  0.00    -0.314 N 
HETATM   19  C   UNL     1      38.631  -9.589   5.096  1.00  0.00     0.022 A 
HETATM   20  C   UNL     1      38.170 -10.144   3.823  1.00  0.00     0.047 A 
HETATM   21  C   UNL     1      38.484 -11.422   3.530  1.00  0.00     0.115 A 
HETATM   22  C   UNL     1      39.702 -13.442   4.340  1.00  0.00     0.135 A 
BRANCH  20  23
HETATM   23  C   UNL     1      37.323  -9.313   2.919  1.00  0.00     0.250 C 
HETATM   24  N   UNL     1      36.295  -9.955   2.297  1.00  0.00    -0.366 N 
HETATM   25  H   UNL     1      35.775  -9.420   1.613  1.00  0.00     0.159 HD
HETATM   26  H   UNL     1      36.187 -10.958   2.298  1.00  0.00     0.159 HD
HETATM   27  O   UNL     1      37.562  -8.134   2.697  1.00  0.00    -0.268 OA
ENDBRANCH  20  23
ENDBRANCH   9  14
ENDBRANCH   1   7
BRANCH   5  28
HETATM   28  C   UNL     1      43.186 -17.218   1.553  1.00  0.00     0.257 C 
HETATM   29  O   UNL     1      43.744 -17.813   0.642  1.00  0.00    -0.267 OA
HETATM   30  N   UNL     1      42.340 -16.139   1.466  1.00  0.00    -0.301 N 
HETATM   31  H   UNL     1      42.031 -15.656   2.296  1.00  0.00     0.171 HD
BRANCH  30  32
HETATM   32  C   UNL     1      41.888 -15.648   0.276  1.00  0.00     0.174 A 
HETATM   33  N   UNL     1      41.331 -16.268  -0.734  1.00  0.00    -0.228 NA
HETATM   34  C   UNL     1      40.961 -15.342  -1.684  1.00  0.00     0.050 A 
HETATM   35  C   UNL     1      40.226 -15.748  -2.913  1.00  0.00     0.062 C 
HETATM   36  C   UNL     1      41.236 -14.032  -1.357  1.00  0.00     0.013 A 
HETATM   37  C   UNL     1      39.841 -14.544  -3.799  1.00  0.00     0.031 C 
HETATM   38  C   UNL     1      39.623 -13.183  -3.064  1.00  0.00     0.084 C 
HETATM   39  C   UNL     1      40.868 -12.857  -2.185  1.00  0.00     0.073 C 
HETATM   40  S   UNL     1      42.038 -13.947   0.139  1.00  0.00    -0.055 SA
BRANCH  38  41
HETATM   41  N   UNL     1      38.279 -12.972  -2.491  1.00  0.00    -0.404 N 
HETATM   42  C   UNL     1      37.788 -13.785  -1.375  1.00  0.00     0.143 C 
HETATM   43  C   UNL     1      38.025 -13.176   0.014  1.00  0.00     0.187 C 
HETATM   44  O   UNL     1      37.477 -11.853   0.095  1.00  0.00    -0.388 OA
HETATM   45  C   UNL     1      38.061 -11.010  -0.904  1.00  0.00     0.187 C 
HETATM   46  C   UNL     1      37.850 -11.573  -2.323  1.00  0.00     0.143 C 
ENDBRANCH  38  41
ENDBRANCH  30  32
ENDBRANCH   5  28
TORSDOF 6
ENDMDL
MODEL 3
REMARK VINA RESULT:      -9.0      2.790      7.301
REMARK  6 active torsions:
REMARK  status: ('A' for Active; 'I' for Inactive)
REMARK       I    between atoms: N_1  and  C_2 
REMARK    1  A    between atoms: C_2  and  C_4 
REMARK    2  A    between atoms: C_9  and  C_13 
REMARK       I    between atoms: C_13  and  N_15 
REMARK    3  A    between atoms: C_19  and  C_20 
REMARK    4  A    between atoms: C_24  and  C_26 
REMARK       I    between atoms: C_26  and  N_28 
REMARK    5  A    between atoms: N_28  and  C_29 
REMARK    6  A    between atoms: C_34  and  N_38 
ROOT
HETATM    1  C   UNL     1      39.062 -11.534  -1.446  1.00  0.00    -0.034 A 
HETATM    2  C   UNL     1      39.229 -11.243  -2.812  1.00  0.00     0.009 A 
HETATM    3  C   UNL     1      39.880 -12.138  -3.663  1.00  0.00     0.002 A 
HETATM    4  C   UNL     1      40.384 -13.337  -3.163  1.00  0.00     0.017 A 
HETATM    5  C   UNL     1      40.232 -13.638  -1.804  1.00  0.00     0.033 A 
HETATM    6  C   UNL     1      39.556 -12.754  -0.957  1.00  0.00     0.026 A 
ENDROOT
BRANCH   1   7
HETATM    7  C   UNL     1      38.347 -10.527  -0.557  1.00  0.00     0.120 C 
HETATM    8  N   UNL     1      38.390 -10.863   0.861  1.00  0.00    -0.338 N 
HETATM    9  C   UNL     1      39.555 -10.694   1.596  1.00  0.00     0.274 C 
HETATM   10  C   UNL     1      37.078 -11.247   1.360  1.00  0.00     0.127 C 
HETATM   11  O   UNL     1      40.603 -10.329   1.059  1.00  0.00    -0.266 OA
HETATM   12  C   UNL     1      36.217 -11.415   0.114  1.00  0.00     0.022 C 
HETATM   13  C   UNL     1      36.849 -10.441  -0.873  1.00  0.00     0.032 C 
BRANCH   9  14
HETATM   14  C   UNL     1      39.527 -10.976   3.041  1.00  0.00     0.142 A 
HETATM   15  N   UNL     1      39.434 -12.228   3.629  1.00  0.00    -0.224 NA
HETATM   16  C   UNL     1      39.421 -12.018   4.928  1.00  0.00     0.134 A 
HETATM   17  C   UNL     1      39.324 -12.915   6.026  1.00  0.00     0.052 A 
HETATM   18  N   UNL     1      39.514 -10.664   5.223  1.00  0.00    -0.314 N 
HETATM   19  C   UNL     1      39.347 -12.432   7.284  1.00  0.00     0.022 A 
HETATM   20  C   UNL     1      39.484 -11.001   7.560  1.00  0.00     0.047 A 
HETATM   21  C   UNL     1      39.545 -10.151   6.516  1.00  0.00     0.115 A 
HETATM   22  C   UNL     1      39.565 -10.002   4.027  1.00  0.00     0.135 A 
BRANCH  20  23
HETATM   23  C   UNL     1      39.492 -10.519   8.972  1.00  0.00     0.250 C 
HETATM   24  N   UNL     1      39.771 -11.450   9.926  1.00  0.00    -0.366 N 
HETATM   25  H   UNL     1      39.687 -11.150  10.889  1.00  0.00     0.159 HD
HETATM   26  H   UNL     1      39.811 -12.441   9.737  1.00  0.00     0.159 HD
HETATM   27  O   UNL     1      39.210  -9.366   9.272  1.00  0.00    -0.268 OA
ENDBRANCH  20  23
ENDBRANCH   9  14
ENDBRANCH   1   7
BRANCH   5  28
HETATM   28  C   UNL     1      40.775 -14.897  -1.229  1.00  0.00     0.257 C 
HETATM   29  O   UNL     1      41.017 -15.826  -1.986  1.00  0.00    -0.267 OA
HETATM   30  N   UNL     1      40.906 -14.863   0.138  1.00  0.00    -0.301 N 
HETATM   31  H   UNL     1      40.565 -14.078   0.671  1.00  0.00     0.171 HD
BRANCH  30  32
HETATM   32  C   UNL     1      41.478 -15.876   0.851  1.00  0.00     0.174 A 
HETATM   33  N   UNL     1      42.626 -16.483   0.681  1.00  0.00    -0.228 NA
HETATM   34  C   UNL     1      42.815 -17.386   1.704  1.00  0.00     0.050 A 
HETATM   35  C   UNL     1      44.076 -18.169   1.819  1.00  0.00     0.062 C 
HETATM   36  C   UNL     1      41.803 -17.427   2.638  1.00  0.00     0.013 A 
HETATM   37  C   UNL     1      44.108 -19.059   3.080  1.00  0.00     0.031 C 
HETATM   38  C   UNL     1      43.280 -18.557   4.306  1.00  0.00     0.084 C 
HETATM   39  C   UNL     1      41.815 -18.266   3.862  1.00  0.00     0.073 C 
HETATM   40  S   UNL     1      40.548 -16.367   2.203  1.00  0.00    -0.055 SA
BRANCH  38  41
HETATM   41  N   UNL     1      43.959 -17.585   5.184  1.00  0.00    -0.404 N 
HETATM   42  C   UNL     1      43.268 -16.392   5.682  1.00  0.00     0.143 C 
HETATM   43  C   UNL     1      42.614 -16.558   7.061  1.00  0.00     0.187 C 
HETATM   44  O   UNL     1      43.570 -17.010   8.030  1.00  0.00    -0.388 OA
HETATM   45  C   UNL     1      44.147 -18.254   7.619  1.00  0.00     0.187 C 
HETATM   46  C   UNL     1      44.822 -18.144   6.239  1.00  0.00     0.143 C 
ENDBRANCH  38  41
ENDBRANCH  30  32
ENDBRANCH   5  28
TORSDOF 6
ENDMDL
MODEL 4
REMARK VINA RESULT:      -8.9      2.454      3.301
REMARK  6 active torsions:
REMARK  status: ('A' for Active; 'I' for Inactive)
REMARK       I    between atoms: N_1  and  C_2 
REMARK    1  A    between atoms: C_2  and  C_4 
REMARK    2  A    between atoms: C_9  and  C_13 
REMARK       I    between atoms: C_13  and  N_15 
REMARK    3  A    between atoms: C_19  and  C_20 
REMARK    4  A    between atoms: C_24  and  C_26 
REMARK       I    between atoms: C_26  and  N_28 
REMARK    5  A    between atoms: N_28  and  C_29 
REMARK    6  A    between atoms: C_34  and  N_38 
ROOT
HETATM    1  C   UNL     1      38.977 -11.645   2.662  1.00  0.00    -0.034 A 
HETATM    2  C   UNL     1      39.781 -10.907   1.775  1.00  0.00     0.009 A 
HETATM    3  C   UNL     1      40.282  -9.654   2.131  1.00  0.00     0.002 A 
HETATM    4  C   UNL     1      39.981  -9.110   3.378  1.00  0.00     0.017 A 
HETATM    5  C   UNL     1      39.176  -9.828   4.270  1.00  0.00     0.033 A 
HETATM    6  C   UNL     1      38.697 -11.095   3.924  1.00  0.00     0.026 A 
ENDROOT
BRANCH   1   7
HETATM    7  C   UNL     1      38.453 -13.005   2.229  1.00  0.00     0.120 C 
HETATM    8  N   UNL     1      39.497 -14.008   2.055  1.00  0.00    -0.338 N 
HETATM    9  C   UNL     1      40.115 -14.589   3.154  1.00  0.00     0.274 C 
HETATM   10  C   UNL     1      39.673 -14.359   0.653  1.00  0.00     0.127 C 
HETATM   11  O   UNL     1      39.854 -14.223   4.301  1.00  0.00    -0.266 OA
HETATM   12  C   UNL     1      38.870 -13.319  -0.117  1.00  0.00     0.022 C 
HETATM   13  C   UNL     1      37.762 -12.948   0.861  1.00  0.00     0.032 C 
BRANCH   9  14
HETATM   14  C   UNL     1      41.110 -15.650   2.927  1.00  0.00     0.142 A 
HETATM   15  N   UNL     1      42.001 -15.724   1.867  1.00  0.00    -0.224 NA
HETATM   16  C   UNL     1      42.684 -16.833   2.045  1.00  0.00     0.134 A 
HETATM   17  C   UNL     1      43.716 -17.439   1.276  1.00  0.00     0.052 A 
HETATM   18  N   UNL     1      42.283 -17.496   3.198  1.00  0.00    -0.314 N 
HETATM   19  C   UNL     1      44.268 -18.594   1.695  1.00  0.00     0.022 A 
HETATM   20  C   UNL     1      43.847 -19.247   2.936  1.00  0.00     0.047 A 
HETATM   21  C   UNL     1      42.848 -18.687   3.646  1.00  0.00     0.115 A 
HETATM   22  C   UNL     1      41.275 -16.755   3.748  1.00  0.00     0.135 A 
BRANCH  20  23
HETATM   23  C   UNL     1      44.483 -20.531   3.347  1.00  0.00     0.250 C 
HETATM   24  N   UNL     1      45.134 -20.526   4.543  1.00  0.00    -0.366 N 
HETATM   25  H   UNL     1      45.645 -21.366   4.785  1.00  0.00     0.159 HD
HETATM   26  H   UNL     1      45.332 -19.683   5.062  1.00  0.00     0.159 HD
HETATM   27  O   UNL     1      44.475 -21.525   2.633  1.00  0.00    -0.268 OA
ENDBRANCH  20  23
ENDBRANCH   9  14
ENDBRANCH   1   7
BRANCH   5  28
HETATM   28  C   UNL     1      38.815  -9.272   5.601  1.00  0.00     0.257 C 
HETATM   29  O   UNL     1      37.817  -8.570   5.688  1.00  0.00    -0.267 OA
HETATM   30  N   UNL     1      39.706  -9.602   6.593  1.00  0.00    -0.301 N 
HETATM   31  H   UNL     1      40.560 -10.093   6.378  1.00  0.00     0.171 HD
BRANCH  30  32
HETATM   32  C   UNL     1      39.507  -9.276   7.903  1.00  0.00     0.174 A 
HETATM   33  N   UNL     1      38.471  -9.486   8.676  1.00  0.00    -0.228 NA
HETATM   34  C   UNL     1      38.765  -9.057   9.951  1.00  0.00     0.050 A 
HETATM   35  C   UNL     1      37.801  -9.243  11.070  1.00  0.00     0.062 C 
HETATM   36  C   UNL     1      40.034  -8.546  10.115  1.00  0.00     0.013 A 
HETATM   37  C   UNL     1      38.364  -8.765  12.425  1.00  0.00     0.031 C 
HETATM   38  C   UNL     1      39.915  -8.831  12.594  1.00  0.00     0.084 C 
HETATM   39  C   UNL     1      40.602  -8.088  11.407  1.00  0.00     0.073 C 
HETATM   40  S   UNL     1      40.865  -8.530   8.633  1.00  0.00    -0.055 SA
BRANCH  38  41
HETATM   41  N   UNL     1      40.460 -10.133  13.022  1.00  0.00    -0.404 N 
HETATM   42  C   UNL     1      40.806 -11.174  12.050  1.00  0.00     0.143 C 
HETATM   43  C   UNL     1      42.275 -11.172  11.604  1.00  0.00     0.187 C 
HETATM   44  O   UNL     1      43.154 -11.247  12.735  1.00  0.00    -0.388 OA
HETATM   45  C   UNL     1      42.920 -10.148  13.622  1.00  0.00     0.187 C 
HETATM   46  C   UNL     1      41.458 -10.103  14.105  1.00  0.00     0.143 C 
ENDBRANCH  38  41
ENDBRANCH  30  32
ENDBRANCH   5  28
TORSDOF 6
ENDMDL
MODEL 5
REMARK VINA RESULT:      -8.8      2.378      3.101
REMARK  6 active torsions:
REMARK  status: ('A' for Active; 'I' for Inactive)
REMARK       I    between atoms: N_1  and  C_2 
REMARK    1  A    between atoms: C_2  and  C_4 
REMARK    2  A    between atoms: C_9  and  C_13 
REMARK       I    between atoms: C_13  and  N_15 
REMARK    3  A    between atoms: C_19  and  C_20 
REMARK    4  A    between atoms: C_24  and  C_26 
REMARK       I    between atoms: C_26  and  N_28 
REMARK    5  A    between atoms: N_28  and  C_29 
REMARK    6  A    between atoms: C_34  and  N_38 
ROOT
HETATM    1  C   UNL     1      40.109 -12.570   0.833  1.00  0.00    -0.034 A 
HETATM    2  C   UNL     1      40.969 -11.799   0.029  1.00  0.00     0.009 A 
HETATM    3  C   UNL     1      41.401 -10.537   0.441  1.00  0.00     0.002 A 
HETATM    4  C   UNL     1      40.974 -10.017   1.661  1.00  0.00     0.017 A 
HETATM    5  C   UNL     1      40.113 -10.768   2.470  1.00  0.00     0.033 A 
HETATM    6  C   UNL     1      39.702 -12.043   2.069  1.00  0.00     0.026 A 
ENDROOT
BRANCH   1   7
HETATM    7  C   UNL     1      39.665 -13.938   0.341  1.00  0.00     0.120 C 
HETATM    8  N   UNL     1      40.567 -15.020   0.721  1.00  0.00    -0.338 N 
HETATM    9  C   UNL     1      40.599 -15.492   2.026  1.00  0.00     0.274 C 
HETATM   10  C   UNL     1      41.271 -15.559  -0.433  1.00  0.00     0.127 C 
HETATM   11  O   UNL     1      39.926 -14.965   2.914  1.00  0.00    -0.266 OA
HETATM   12  C   UNL     1      40.985 -14.578  -1.562  1.00  0.00     0.022 C 
HETATM   13  C   UNL     1      39.619 -14.014  -1.190  1.00  0.00     0.032 C 
BRANCH   9  14
HETATM   14  C   UNL     1      41.472 -16.635   2.343  1.00  0.00     0.142 A 
HETATM   15  N   UNL     1      42.393 -16.699   3.377  1.00  0.00    -0.224 NA
HETATM   16  C   UNL     1      42.962 -17.881   3.282  1.00  0.00     0.134 A 
HETATM   17  C   UNL     1      43.986 -18.498   4.053  1.00  0.00     0.052 A 
HETATM   18  N   UNL     1      42.442 -18.610   2.221  1.00  0.00    -0.314 N 
HETATM   19  C   UNL     1      44.388 -19.748   3.746  1.00  0.00     0.022 A 
HETATM   20  C   UNL     1      43.790 -20.503   2.644  1.00  0.00     0.047 A 
HETATM   21  C   UNL     1      42.843 -19.903   1.896  1.00  0.00     0.115 A 
HETATM   22  C   UNL     1      41.509 -17.815   1.616  1.00  0.00     0.135 A 
BRANCH  20  23
HETATM   23  C   UNL     1      44.281 -21.878   2.340  1.00  0.00     0.250 C 
HETATM   24  N   UNL     1      44.711 -22.614   3.402  1.00  0.00    -0.366 N 
HETATM   25  H   UNL     1      45.130 -23.511   3.192  1.00  0.00     0.159 HD
HETATM   26  H   UNL     1      44.856 -22.225   4.322  1.00  0.00     0.159 HD
HETATM   27  O   UNL     1      44.350 -22.312   1.197  1.00  0.00    -0.268 OA
ENDBRANCH  20  23
ENDBRANCH   9  14
ENDBRANCH   1   7
BRANCH   5  28
HETATM   28  C   UNL     1      39.618 -10.238   3.768  1.00  0.00     0.257 C 
HETATM   29  O   UNL     1      38.504  -9.735   3.806  1.00  0.00    -0.267 OA
HETATM   30  N   UNL     1      40.529 -10.354   4.790  1.00  0.00    -0.301 N 
HETATM   31  H   UNL     1      41.465 -10.683   4.613  1.00  0.00     0.171 HD
BRANCH  30  32
HETATM   32  C   UNL     1      40.238 -10.020   6.081  1.00  0.00     0.174 A 
HETATM   33  N   UNL     1      39.228 -10.375   6.836  1.00  0.00    -0.228 NA
HETATM   34  C   UNL     1      39.406  -9.857   8.100  1.00  0.00     0.050 A 
HETATM   35  C   UNL     1      38.453 -10.165   9.201  1.00  0.00     0.062 C 
HETATM   36  C   UNL     1      40.565  -9.133   8.274  1.00  0.00     0.013 A 
HETATM   37  C   UNL     1      38.886  -9.550  10.549  1.00  0.00     0.031 C 
HETATM   38  C   UNL     1      40.420  -9.345  10.758  1.00  0.00     0.084 C 
HETATM   39  C   UNL     1      41.008  -8.540   9.560  1.00  0.00     0.073 C 
HETATM   40  S   UNL     1      41.427  -9.029   6.813  1.00  0.00    -0.055 SA
BRANCH  38  41
HETATM   41  N   UNL     1      41.162 -10.521  11.252  1.00  0.00    -0.404 N 
HETATM   42  C   UNL     1      42.620 -10.611  11.129  1.00  0.00     0.143 C 
HETATM   43  C   UNL     1      43.399 -10.119  12.358  1.00  0.00     0.187 C 
HETATM   44  O   UNL     1      42.965 -10.797  13.545  1.00  0.00    -0.388 OA
HETATM   45  C   UNL     1      41.563 -10.592  13.752  1.00  0.00     0.187 C 
HETATM   46  C   UNL     1      40.730 -11.073  12.548  1.00  0.00     0.143 C 
ENDBRANCH  38  41
ENDBRANCH  30  32
ENDBRANCH   5  28
TORSDOF 6
ENDMDL
MODEL 6
REMARK VINA RESULT:      -8.7      3.381      8.255
REMARK  6 active torsions:
REMARK  status: ('A' for Active; 'I' for Inactive)
REMARK       I    between atoms: N_1  and  C_2 
REMARK    1  A    between atoms: C_2  and  C_4 
REMARK    2  A    between atoms: C_9  and  C_13 
REMARK       I    between atoms: C_13  and  N_15 
REMARK    3  A    between atoms: C_19  and  C_20 
REMARK    4  A    between atoms: C_24  and  C_26 
REMARK       I    between atoms: C_26  and  N_28 
REMARK    5  A    between atoms: N_28  and  C_29 
REMARK    6  A    between atoms: C_34  and  N_38 
ROOT
HETATM    1  C   UNL     1      41.107 -10.740   6.078  1.00  0.00    -0.034 A 
HETATM    2  C   UNL     1      41.425  -9.659   6.920  1.00  0.00     0.009 A 
HETATM    3  C   UNL     1      41.642  -8.381   6.399  1.00  0.00     0.002 A 
HETATM    4  C   UNL     1      41.553  -8.163   5.025  1.00  0.00     0.017 A 
HETATM    5  C   UNL     1      41.245  -9.231   4.174  1.00  0.00     0.033 A 
HETATM    6  C   UNL     1      41.002 -10.504   4.698  1.00  0.00     0.026 A 
ENDROOT
BRANCH   1   7
HETATM    7  C   UNL     1      40.881 -12.113   6.692  1.00  0.00     0.120 C 
HETATM    8  N   UNL     1      41.255 -13.217   5.814  1.00  0.00    -0.338 N 
HETATM    9  C   UNL     1      42.589 -13.528   5.593  1.00  0.00     0.274 C 
HETATM   10  C   UNL     1      40.086 -13.953   5.355  1.00  0.00     0.127 C 
HETATM   11  O   UNL     1      43.494 -12.839   6.068  1.00  0.00    -0.266 OA
HETATM   12  C   UNL     1      38.895 -13.094   5.761  1.00  0.00     0.022 C 
HETATM   13  C   UNL     1      39.401 -12.370   7.002  1.00  0.00     0.032 C 
BRANCH   9  14
HETATM   14  C   UNL     1      42.913 -14.697   4.759  1.00  0.00     0.142 A 
HETATM   15  N   UNL     1      43.046 -14.706   3.379  1.00  0.00    -0.224 NA
HETATM   16  C   UNL     1      43.317 -15.950   3.049  1.00  0.00     0.134 A 
HETATM   17  C   UNL     1      43.538 -16.564   1.785  1.00  0.00     0.052 A 
HETATM   18  N   UNL     1      43.379 -16.769   4.169  1.00  0.00    -0.314 N 
HETATM   19  C   UNL     1      43.815 -17.881   1.724  1.00  0.00     0.022 A 
HETATM   20  C   UNL     1      43.910 -18.707   2.929  1.00  0.00     0.047 A 
HETATM   21  C   UNL     1      43.670 -18.130   4.123  1.00  0.00     0.115 A 
HETATM   22  C   UNL     1      43.108 -15.978   5.251  1.00  0.00     0.135 A 
BRANCH  20  23
HETATM   23  C   UNL     1      44.208 -20.164   2.804  1.00  0.00     0.250 C 
HETATM   24  N   UNL     1      43.522 -20.839   1.841  1.00  0.00    -0.366 N 
HETATM   25  H   UNL     1      43.651 -21.843   1.812  1.00  0.00     0.159 HD
HETATM   26  H   UNL     1      42.738 -20.446   1.341  1.00  0.00     0.159 HD
HETATM   27  O   UNL     1      44.983 -20.741   3.555  1.00  0.00    -0.268 OA
ENDBRANCH  20  23
ENDBRANCH   9  14
ENDBRANCH   1   7
BRANCH   5  28
HETATM   28  C   UNL     1      41.164  -9.042   2.701  1.00  0.00     0.257 C 
HETATM   29  O   UNL     1      41.076  -7.903   2.264  1.00  0.00    -0.267 OA
HETATM   30  N   UNL     1      41.160 -10.221   1.997  1.00  0.00    -0.301 N 
HETATM   31  H   UNL     1      41.120 -11.109   2.474  1.00  0.00     0.171 HD
BRANCH  30  32
HETATM   32  C   UNL     1      41.192 -10.268   0.633  1.00  0.00     0.174 A 
HETATM   33  N   UNL     1      42.211 -10.356  -0.183  1.00  0.00    -0.228 NA
HETATM   34  C   UNL     1      41.747 -10.460  -1.476  1.00  0.00     0.050 A 
HETATM   35  C   UNL     1      42.680 -10.657  -2.618  1.00  0.00     0.062 C 
HETATM   36  C   UNL     1      40.375 -10.465  -1.602  1.00  0.00     0.013 A 
HETATM   37  C   UNL     1      41.944 -10.829  -3.964  1.00  0.00     0.031 C 
HETATM   38  C   UNL     1      40.509 -11.442  -3.897  1.00  0.00     0.084 C 
HETATM   39  C   UNL     1      39.643 -10.637  -2.881  1.00  0.00     0.073 C 
HETATM   40  S   UNL     1      39.636 -10.265  -0.084  1.00  0.00    -0.055 SA
BRANCH  38  41
HETATM   41  N   UNL     1      40.443 -12.916  -3.869  1.00  0.00    -0.404 N 
HETATM   42  C   UNL     1      41.562 -13.722  -3.370  1.00  0.00     0.143 C 
HETATM   43  C   UNL     1      41.466 -14.101  -1.886  1.00  0.00     0.187 C 
HETATM   44  O   UNL     1      40.224 -14.760  -1.604  1.00  0.00    -0.388 OA
HETATM   45  C   UNL     1      39.121 -13.917  -1.955  1.00  0.00     0.187 C 
HETATM   46  C   UNL     1      39.164 -13.508  -3.440  1.00  0.00     0.143 C 
ENDBRANCH  38  41
ENDBRANCH  30  32
ENDBRANCH   5  28
TORSDOF 6
ENDMDL
MODEL 7
REMARK VINA RESULT:      -8.4      3.443      7.016
REMARK  6 active torsions:
REMARK  status: ('A' for Active; 'I' for Inactive)
REMARK       I    between atoms: N_1  and  C_2 
REMARK    1  A    between atoms: C_2  and  C_4 
REMARK    2  A    between atoms: C_9  and  C_13 
REMARK       I    between atoms: C_13  and  N_15 
REMARK    3  A    between atoms: C_19  and  C_20 
REMARK    4  A    between atoms: C_24  and  C_26 
REMARK       I    between atoms: C_26  and  N_28 
REMARK    5  A    between atoms: N_28  and  C_29 
REMARK    6  A    between atoms: C_34  and  N_38 
ROOT
HETATM    1  C   UNL     1      39.866 -14.727   2.954  1.00  0.00    -0.034 A 
HETATM    2  C   UNL     1      40.645 -15.728   3.561  1.00  0.00     0.009 A 
HETATM    3  C   UNL     1      41.049 -15.617   4.893  1.00  0.00     0.002 A 
HETATM    4  C   UNL     1      40.689 -14.498   5.641  1.00  0.00     0.017 A 
HETATM    5  C   UNL     1      39.920 -13.489   5.049  1.00  0.00     0.033 A 
HETATM    6  C   UNL     1      39.493 -13.613   3.723  1.00  0.00     0.026 A 
ENDROOT
BRANCH   1   7
HETATM    7  C   UNL     1      39.452 -14.892   1.500  1.00  0.00     0.120 C 
HETATM    8  N   UNL     1      39.928 -13.823   0.629  1.00  0.00    -0.338 N 
HETATM    9  C   UNL     1      41.261 -13.758   0.249  1.00  0.00     0.274 C 
HETATM   10  C   UNL     1      38.833 -12.985   0.163  1.00  0.00     0.127 C 
HETATM   11  O   UNL     1      42.092 -14.553   0.692  1.00  0.00    -0.266 OA
HETATM   12  C   UNL     1      37.634 -13.400   1.007  1.00  0.00     0.022 C 
HETATM   13  C   UNL     1      37.928 -14.859   1.327  1.00  0.00     0.032 C 
BRANCH   9  14
HETATM   14  C   UNL     1      41.678 -12.704  -0.691  1.00  0.00     0.142 A 
HETATM   15  N   UNL     1      42.443 -11.590  -0.384  1.00  0.00    -0.224 NA
HETATM   16  C   UNL     1      42.559 -10.910  -1.504  1.00  0.00     0.134 A 
HETATM   17  C   UNL     1      43.213  -9.682  -1.798  1.00  0.00     0.052 A 
HETATM   18  N   UNL     1      41.901 -11.543  -2.551  1.00  0.00    -0.314 N 
HETATM   19  C   UNL     1      43.189  -9.200  -3.057  1.00  0.00     0.022 A 
HETATM   20  C   UNL     1      42.519  -9.913  -4.145  1.00  0.00     0.047 A 
HETATM   21  C   UNL     1      41.874 -11.061  -3.857  1.00  0.00     0.115 A 
HETATM   22  C   UNL     1      41.330 -12.672  -2.033  1.00  0.00     0.135 A 
BRANCH  20  23
HETATM   23  C   UNL     1      42.514  -9.329  -5.518  1.00  0.00     0.250 C 
HETATM   24  N   UNL     1      42.172 -10.172  -6.530  1.00  0.00    -0.366 N 
HETATM   25  H   UNL     1      42.255  -9.807  -7.471  1.00  0.00     0.159 HD
HETATM   26  H   UNL     1      42.084 -11.171  -6.414  1.00  0.00     0.159 HD
HETATM   27  O   UNL     1      42.849  -8.173  -5.739  1.00  0.00    -0.268 OA
ENDBRANCH  20  23
ENDBRANCH   9  14
ENDBRANCH   1   7
BRANCH   5  28
HETATM   28  C   UNL     1      39.534 -12.270   5.808  1.00  0.00     0.257 C 
HETATM   29  O   UNL     1      38.656 -11.552   5.349  1.00  0.00    -0.267 OA
HETATM   30  N   UNL     1      40.269 -12.081   6.952  1.00  0.00    -0.301 N 
HETATM   31  H   UNL     1      41.050 -12.681   7.170  1.00  0.00     0.171 HD
BRANCH  30  32
HETATM   32  C   UNL     1      40.008 -11.080   7.842  1.00  0.00     0.174 A 
HETATM   33  N   UNL     1      39.000 -10.922   8.662  1.00  0.00    -0.228 NA
HETATM   34  C   UNL     1      39.213  -9.799   9.429  1.00  0.00     0.050 A 
HETATM   35  C   UNL     1      38.267  -9.413  10.512  1.00  0.00     0.062 C 
HETATM   36  C   UNL     1      40.396  -9.139   9.179  1.00  0.00     0.013 A 
HETATM   37  C   UNL     1      38.739  -8.171  11.297  1.00  0.00     0.031 C 
HETATM   38  C   UNL     1      40.282  -7.937  11.366  1.00  0.00     0.084 C 
HETATM   39  C   UNL     1      40.877  -7.950   9.925  1.00  0.00     0.073 C 
HETATM   40  S   UNL     1      41.239  -9.890   7.909  1.00  0.00    -0.055 SA
BRANCH  38  41
HETATM   41  N   UNL     1      40.994  -8.668  12.431  1.00  0.00    -0.404 N 
HETATM   42  C   UNL     1      40.519  -9.968  12.915  1.00  0.00     0.143 C 
HETATM   43  C   UNL     1      41.158 -11.182  12.224  1.00  0.00     0.187 C 
HETATM   44  O   UNL     1      42.589 -11.123  12.304  1.00  0.00    -0.388 OA
HETATM   45  C   UNL     1      43.072  -9.918  11.700  1.00  0.00     0.187 C 
HETATM   46  C   UNL     1      42.466  -8.664  12.359  1.00  0.00     0.143 C 
ENDBRANCH  38  41
ENDBRANCH  30  32
ENDBRANCH   5  28
TORSDOF 6
ENDMDL
MODEL 8
REMARK VINA RESULT:      -8.3      4.115      7.565
REMARK  6 active torsions:
REMARK  status: ('A' for Active; 'I' for Inactive)
REMARK       I    between atoms: N_1  and  C_2 
REMARK    1  A    between atoms: C_2  and  C_4 
REMARK    2  A    between atoms: C_9  and  C_13 
REMARK       I    between atoms: C_13  and  N_15 
REMARK    3  A    between atoms: C_19  and  C_20 
REMARK    4  A    between atoms: C_24  and  C_26 
REMARK       I    between atoms: C_26  and  N_28 
REMARK    5  A    between atoms: N_28  and  C_29 
REMARK    6  A    between atoms: C_34  and  N_38 
ROOT
HETATM    1  C   UNL     1      41.247 -12.598   2.746  1.00  0.00    -0.034 A 
HETATM    2  C   UNL     1      42.042 -12.992   1.655  1.00  0.00     0.009 A 
HETATM    3  C   UNL     1      41.732 -12.587   0.355  1.00  0.00     0.002 A 
HETATM    4  C   UNL     1      40.615 -11.786   0.121  1.00  0.00     0.017 A 
HETATM    5  C   UNL     1      39.810 -11.392   1.196  1.00  0.00     0.033 A 
HETATM    6  C   UNL     1      40.136 -11.775   2.500  1.00  0.00     0.026 A 
ENDROOT
BRANCH   1   7
HETATM    7  C   UNL     1      41.624 -13.066   4.143  1.00  0.00     0.120 C 
HETATM    8  N   UNL     1      41.974 -14.480   4.214  1.00  0.00    -0.338 N 
HETATM    9  C   UNL     1      43.190 -14.936   3.726  1.00  0.00     0.274 C 
HETATM   10  C   UNL     1      40.969 -15.244   4.940  1.00  0.00     0.127 C 
HETATM   11  O   UNL     1      43.975 -14.177   3.153  1.00  0.00    -0.266 OA
HETATM   12  C   UNL     1      39.793 -14.290   5.104  1.00  0.00     0.022 C 
HETATM   13  C   UNL     1      40.461 -12.921   5.133  1.00  0.00     0.032 C 
BRANCH   9  14
HETATM   14  C   UNL     1      43.528 -16.360   3.887  1.00  0.00     0.142 A 
HETATM   15  N   UNL     1      43.970 -16.968   5.052  1.00  0.00    -0.224 NA
HETATM   16  C   UNL     1      44.170 -18.232   4.747  1.00  0.00     0.134 A 
HETATM   17  C   UNL     1      44.636 -19.327   5.525  1.00  0.00     0.052 A 
HETATM   18  N   UNL     1      43.867 -18.486   3.416  1.00  0.00    -0.314 N 
HETATM   19  C   UNL     1      44.742 -20.547   4.961  1.00  0.00     0.022 A 
HETATM   20  C   UNL     1      44.376 -20.787   3.565  1.00  0.00     0.047 A 
HETATM   21  C   UNL     1      43.965 -19.741   2.821  1.00  0.00     0.115 A 
HETATM   22  C   UNL     1      43.475 -17.296   2.867  1.00  0.00     0.135 A 
BRANCH  20  23
HETATM   23  C   UNL     1      44.524 -22.155   2.987  1.00  0.00     0.250 C 
HETATM   24  N   UNL     1      44.809 -23.153   3.868  1.00  0.00    -0.366 N 
HETATM   25  H   UNL     1      45.001 -24.065   3.472  1.00  0.00     0.159 HD
HETATM   26  H   UNL     1      45.074 -22.986   4.828  1.00  0.00     0.159 HD
HETATM   27  O   UNL     1      44.449 -22.370   1.785  1.00  0.00    -0.268 OA
ENDBRANCH  20  23
ENDBRANCH   9  14
ENDBRANCH   1   7
BRANCH   5  28
HETATM   28  C   UNL     1      38.598 -10.556   0.983  1.00  0.00     0.257 C 
HETATM   29  O   UNL     1      38.727  -9.472   0.432  1.00  0.00    -0.267 OA
HETATM   30  N   UNL     1      37.450 -11.118   1.486  1.00  0.00    -0.301 N 
HETATM   31  H   UNL     1      37.484 -11.969   2.026  1.00  0.00     0.171 HD
BRANCH  30  32
HETATM   32  C   UNL     1      36.216 -10.563   1.309  1.00  0.00     0.174 A 
HETATM   33  N   UNL     1      35.186 -10.998   0.627  1.00  0.00    -0.228 NA
HETATM   34  C   UNL     1      34.127 -10.138   0.812  1.00  0.00     0.050 A 
HETATM   35  C   UNL     1      32.790 -10.422   0.221  1.00  0.00     0.062 C 
HETATM   36  C   UNL     1      34.380  -9.074   1.650  1.00  0.00     0.013 A 
HETATM   37  C   UNL     1      31.730  -9.372   0.620  1.00  0.00     0.031 C 
HETATM   38  C   UNL     1      31.941  -8.660   1.993  1.00  0.00     0.084 C 
HETATM   39  C   UNL     1      33.377  -8.058   2.055  1.00  0.00     0.073 C 
HETATM   40  S   UNL     1      35.998  -9.098   2.171  1.00  0.00    -0.055 SA
BRANCH  38  41
HETATM   41  N   UNL     1      31.424  -9.378   3.174  1.00  0.00    -0.404 N 
HETATM   42  C   UNL     1      32.231 -10.385   3.870  1.00  0.00     0.143 C 
HETATM   43  C   UNL     1      33.037  -9.849   5.062  1.00  0.00     0.187 C 
HETATM   44  O   UNL     1      32.183  -9.175   5.996  1.00  0.00    -0.388 OA
HETATM   45  C   UNL     1      31.498  -8.094   5.356  1.00  0.00     0.187 C 
HETATM   46  C   UNL     1      30.667  -8.576   4.151  1.00  0.00     0.143 C 
ENDBRANCH  38  41
ENDBRANCH  30  32
ENDBRANCH   5  28
TORSDOF 6
ENDMDL
MODEL 9
REMARK VINA RESULT:      -8.2      2.479      7.733
REMARK  6 active torsions:
REMARK  status: ('A' for Active; 'I' for Inactive)
REMARK       I    between atoms: N_1  and  C_2 
REMARK    1  A    between atoms: C_2  and  C_4 
REMARK    2  A    between atoms: C_9  and  C_13 
REMARK       I    between atoms: C_13  and  N_15 
REMARK    3  A    between atoms: C_19  and  C_20 
REMARK    4  A    between atoms: C_24  and  C_26 
REMARK       I    between atoms: C_26  and  N_28 
REMARK    5  A    between atoms: N_28  and  C_29 
REMARK    6  A    between atoms: C_34  and  N_38 
ROOT
HETATM    1  C   UNL     1      39.809  -9.539   1.453  1.00  0.00    -0.034 A 
HETATM    2  C   UNL     1      39.743  -9.315   0.066  1.00  0.00     0.009 A 
HETATM    3  C   UNL     1      40.315 -10.214  -0.836  1.00  0.00     0.002 A 
HETATM    4  C   UNL     1      40.973 -11.350  -0.367  1.00  0.00     0.017 A 
HETATM    5  C   UNL     1      41.053 -11.583   1.010  1.00  0.00     0.033 A 
HETATM    6  C   UNL     1      40.457 -10.697   1.912  1.00  0.00     0.026 A 
ENDROOT
BRANCH   1   7
HETATM    7  C   UNL     1      39.172  -8.530   2.396  1.00  0.00     0.120 C 
HETATM    8  N   UNL     1      39.448  -8.788   3.805  1.00  0.00    -0.338 N 
HETATM    9  C   UNL     1      40.697  -8.515   4.345  1.00  0.00     0.274 C 
HETATM   10  C   UNL     1      38.253  -9.222   4.514  1.00  0.00     0.127 C 
HETATM   11  O   UNL     1      41.626  -8.119   3.639  1.00  0.00    -0.266 OA
HETATM   12  C   UNL     1      37.228  -9.503   3.422  1.00  0.00     0.022 C 
HETATM   13  C   UNL     1      37.640  -8.547   2.310  1.00  0.00     0.032 C 
BRANCH   9  14
HETATM   14  C   UNL     1      40.904  -8.722   5.788  1.00  0.00     0.142 A 
HETATM   15  N   UNL     1      40.541  -7.847   6.801  1.00  0.00    -0.224 NA
HETATM   16  C   UNL     1      40.927  -8.413   7.924  1.00  0.00     0.134 A 
HETATM   17  C   UNL     1      40.839  -7.980   9.276  1.00  0.00     0.052 A 
HETATM   18  N   UNL     1      41.528  -9.643   7.691  1.00  0.00    -0.314 N 
HETATM   19  C   UNL     1      41.311  -8.772  10.259  1.00  0.00     0.022 A 
HETATM   20  C   UNL     1      41.903 -10.081   9.981  1.00  0.00     0.047 A 
HETATM   21  C   UNL     1      42.014 -10.474   8.696  1.00  0.00     0.115 A 
HETATM   22  C   UNL     1      41.527  -9.832   6.336  1.00  0.00     0.135 A 
BRANCH  20  23
HETATM   23  C   UNL     1      42.421 -10.912  11.107  1.00  0.00     0.250 C 
HETATM   24  N   UNL     1      43.171 -11.994  10.762  1.00  0.00    -0.366 N 
HETATM   25  H   UNL     1      43.446 -12.613  11.515  1.00  0.00     0.159 HD
HETATM   26  H   UNL     1      43.250 -12.334   9.815  1.00  0.00     0.159 HD
HETATM   27  O   UNL     1      42.147 -10.674  12.276  1.00  0.00    -0.268 OA
ENDBRANCH  20  23
ENDBRANCH   9  14
ENDBRANCH   1   7
BRANCH   5  28
HETATM   28  C   UNL     1      41.766 -12.772   1.550  1.00  0.00     0.257 C 
HETATM   29  O   UNL     1      42.795 -12.596   2.186  1.00  0.00    -0.267 OA
HETATM   30  N   UNL     1      41.170 -13.965   1.219  1.00  0.00    -0.301 N 
HETATM   31  H   UNL     1      40.383 -13.992   0.589  1.00  0.00     0.171 HD
BRANCH  30  32
HETATM   32  C   UNL     1      41.606 -15.167   1.696  1.00  0.00     0.174 A 
HETATM   33  N   UNL     1      42.623 -15.902   1.324  1.00  0.00    -0.228 NA
HETATM   34  C   UNL     1      42.719 -16.994   2.157  1.00  0.00     0.050 A 
HETATM   35  C   UNL     1      43.836 -17.970   2.027  1.00  0.00     0.062 C 
HETATM   36  C   UNL     1      41.772 -17.049   3.157  1.00  0.00     0.013 A 
HETATM   37  C   UNL     1      43.794 -19.069   3.110  1.00  0.00     0.031 C 
HETATM   38  C   UNL     1      43.135 -18.678   4.471  1.00  0.00     0.084 C 
HETATM   39  C   UNL     1      41.715 -18.088   4.214  1.00  0.00     0.073 C 
HETATM   40  S   UNL     1      40.688 -15.747   3.021  1.00  0.00    -0.055 SA
BRANCH  38  41
HETATM   41  N   UNL     1      44.018 -17.999   5.439  1.00  0.00    -0.404 N 
HETATM   42  C   UNL     1      43.644 -16.717   6.045  1.00  0.00     0.143 C 
HETATM   43  C   UNL     1      42.933 -16.833   7.401  1.00  0.00     0.187 C 
HETATM   44  O   UNL     1      43.713 -17.603   8.325  1.00  0.00    -0.388 OA
HETATM   45  C   UNL     1      43.960 -18.912   7.800  1.00  0.00     0.187 C 
HETATM   46  C   UNL     1      44.678 -18.856   6.438  1.00  0.00     0.143 C 
ENDBRANCH  38  41
ENDBRANCH  30  32
ENDBRANCH   5  28
TORSDOF 6
ENDMDL
MODEL 10
REMARK VINA RESULT:      -7.9      2.642      7.165
REMARK  6 active torsions:
REMARK  status: ('A' for Active; 'I' for Inactive)
REMARK       I    between atoms: N_1  and  C_2 
REMARK    1  A    between atoms: C_2  and  C_4 
REMARK    2  A    between atoms: C_9  and  C_13 
REMARK       I    between atoms: C_13  and  N_15 
REMARK    3  A    between atoms: C_19  and  C_20 
REMARK    4  A    between atoms: C_24  and  C_26 
REMARK       I    between atoms: C_26  and  N_28 
REMARK    5  A    between atoms: N_28  and  C_29 
REMARK    6  A    between atoms: C_34  and  N_38 
ROOT
HETATM    1  C   UNL     1      39.339 -11.855  -1.695  1.00  0.00    -0.034 A 
HETATM    2  C   UNL     1      39.558 -11.867  -3.084  1.00  0.00     0.009 A 
HETATM    3  C   UNL     1      40.212 -12.936  -3.700  1.00  0.00     0.002 A 
HETATM    4  C   UNL     1      40.668 -14.009  -2.936  1.00  0.00     0.017 A 
HETATM    5  C   UNL     1      40.464 -14.008  -1.551  1.00  0.00     0.033 A 
HETATM    6  C   UNL     1      39.785 -12.950  -0.938  1.00  0.00     0.026 A 
ENDROOT
BRANCH   1   7
HETATM    7  C   UNL     1      38.622 -10.667  -1.070  1.00  0.00     0.120 C 
HETATM    8  N   UNL     1      38.953 -10.456   0.335  1.00  0.00    -0.338 N 
HETATM    9  C   UNL     1      40.178  -9.919   0.704  1.00  0.00     0.274 C 
HETATM   10  C   UNL     1      37.822 -10.758   1.201  1.00  0.00     0.127 C 
HETATM   11  O   UNL     1      41.048  -9.676  -0.135  1.00  0.00    -0.266 OA
HETATM   12  C   UNL     1      36.809 -11.451   0.299  1.00  0.00     0.022 C 
HETATM   13  C   UNL     1      37.099 -10.848  -1.069  1.00  0.00     0.032 C 
BRANCH   9  14
HETATM   14  C   UNL     1      40.435  -9.656   2.129  1.00  0.00     0.142 A 
HETATM   15  N   UNL     1      40.343  -8.426   2.763  1.00  0.00    -0.224 NA
HETATM   16  C   UNL     1      40.674  -8.641   4.018  1.00  0.00     0.134 A 
HETATM   17  C   UNL     1      40.776  -7.759   5.130  1.00  0.00     0.052 A 
HETATM   18  N   UNL     1      40.974  -9.978   4.242  1.00  0.00    -0.314 N 
HETATM   19  C   UNL     1      41.131  -8.247   6.335  1.00  0.00     0.022 A 
HETATM   20  C   UNL     1      41.404  -9.669   6.544  1.00  0.00     0.047 A 
HETATM   21  C   UNL     1      41.336 -10.497   5.482  1.00  0.00     0.115 A 
HETATM   22  C   UNL     1      40.838 -10.618   3.041  1.00  0.00     0.135 A 
BRANCH  20  23
HETATM   23  C   UNL     1      41.804 -10.154   7.896  1.00  0.00     0.250 C 
HETATM   24  N   UNL     1      42.333 -11.407   7.956  1.00  0.00    -0.366 N 
HETATM   25  H   UNL     1      42.520 -11.776   8.880  1.00  0.00     0.159 HD
HETATM   26  H   UNL     1      42.314 -12.053   7.181  1.00  0.00     0.159 HD
HETATM   27  O   UNL     1      41.622  -9.492   8.910  1.00  0.00    -0.268 OA
ENDBRANCH  20  23
ENDBRANCH   9  14
ENDBRANCH   1   7
BRANCH   5  28
HETATM   28  C   UNL     1      40.956 -15.123  -0.699  1.00  0.00     0.257 C 
HETATM   29  O   UNL     1      41.305 -16.162  -1.244  1.00  0.00    -0.267 OA
HETATM   30  N   UNL     1      40.919 -14.845   0.645  1.00  0.00    -0.301 N 
HETATM   31  H   UNL     1      40.501 -13.992   0.985  1.00  0.00     0.171 HD
BRANCH  30  32
HETATM   32  C   UNL     1      41.418 -15.693   1.590  1.00  0.00     0.174 A 
HETATM   33  N   UNL     1      42.658 -15.957   1.915  1.00  0.00    -0.228 NA
HETATM   34  C   UNL     1      42.670 -16.817   2.991  1.00  0.00     0.050 A 
HETATM   35  C   UNL     1      43.946 -17.231   3.634  1.00  0.00     0.062 C 
HETATM   36  C   UNL     1      41.426 -17.171   3.466  1.00  0.00     0.013 A 
HETATM   37  C   UNL     1      43.724 -18.131   4.869  1.00  0.00     0.031 C 
HETATM   38  C   UNL     1      42.385 -17.926   5.645  1.00  0.00     0.084 C 
HETATM   39  C   UNL     1      41.185 -18.026   4.655  1.00  0.00     0.073 C 
HETATM   40  S   UNL     1      40.204 -16.475   2.512  1.00  0.00    -0.055 SA
BRANCH  38  41
HETATM   41  N   UNL     1      42.384 -16.844   6.649  1.00  0.00    -0.404 N 
HETATM   42  C   UNL     1      43.611 -16.451   7.348  1.00  0.00     0.143 C 
HETATM   43  C   UNL     1      44.376 -15.289   6.699  1.00  0.00     0.187 C 
HETATM   44  O   UNL     1      43.523 -14.148   6.526  1.00  0.00    -0.388 OA
HETATM   45  C   UNL     1      42.392 -14.488   5.718  1.00  0.00     0.187 C 
HETATM   46  C   UNL     1      41.583 -15.650   6.327  1.00  0.00     0.143 C 
ENDBRANCH  38  41
ENDBRANCH  30  32
ENDBRANCH   5  28
TORSDOF 6
ENDMDL
