MODEL 1
REMARK VINA RESULT:      -8.5      0.000      0.000
REMARK  4 active torsions:
REMARK  status: ('A' for Active; 'I' for Inactive)
REMARK    1  A    between atoms: C_3  and  C_4 
REMARK       I    between atoms: C_4  and  N_5 
REMARK    2  A    between atoms: N_5  and  C_6 
REMARK    3  A    between atoms: C_13  and  C_14 
REMARK       I    between atoms: C_14  and  N_15 
REMARK    4  A    between atoms: C_25  and  O_26 
ROOT
HETATM    1  C   UNL     1      42.928 -14.712   3.702  1.00  0.00     0.280 C 
HETATM    2  N   UNL     1      41.660 -14.504   4.216  1.00  0.00    -0.321 N 
HETATM    3  O   UNL     1      43.713 -13.831   3.368  1.00  0.00    -0.265 OA
HETATM    4  H   UNL     1      41.147 -15.356   4.415  1.00  0.00     0.169 HD
ENDROOT
BRANCH   2   5
HETATM    5  C   UNL     1      41.030 -13.287   4.537  1.00  0.00     0.036 A 
HETATM    6  C   UNL     1      40.692 -12.903   5.841  1.00  0.00     0.046 A 
HETATM    7  C   UNL     1      40.028 -11.675   6.057  1.00  0.00     0.030 A 
HETATM    8  C   UNL     1      39.731 -10.871   4.964  1.00  0.00     0.063 A 
HETATM    9  C   UNL     1      39.523 -10.962   7.188  1.00  0.00     0.156 A 
HETATM   10  N   UNL     1      39.096  -9.776   5.479  1.00  0.00    -0.277 N 
HETATM   11  C   UNL     1      40.062 -11.216   3.652  1.00  0.00     0.034 A 
HETATM   12  H   UNL     1      38.732  -8.981   4.968  1.00  0.00     0.189 HD
HETATM   13  N   UNL     1      38.950  -9.795   6.814  1.00  0.00    -0.168 NA
HETATM   14  C   UNL     1      40.716 -12.440   3.464  1.00  0.00     0.032 A 
BRANCH   9  15
HETATM   15  C   UNL     1      39.570 -11.369   8.598  1.00  0.00     0.270 C 
HETATM   16  N   UNL     1      38.830 -12.485   8.882  1.00  0.00    -0.365 N 
HETATM   17  H   UNL     1      38.325 -12.936   8.129  1.00  0.00     0.159 HD
HETATM   18  H   UNL     1      38.804 -12.840   9.824  1.00  0.00     0.159 HD
HETATM   19  O   UNL     1      40.203 -10.789   9.474  1.00  0.00    -0.266 OA
ENDBRANCH   9  15
ENDBRANCH   2   5
BRANCH   1  20
HETATM   20  C   UNL     1      43.263 -16.126   3.609  1.00  0.00     0.150 A 
HETATM   21  C   UNL     1      43.258 -17.004   2.531  1.00  0.00    -0.009 A 
HETATM   22  C   UNL     1      42.858 -16.688   1.135  1.00  0.00     0.052 C 
HETATM   23  C   UNL     1      43.746 -18.249   3.032  1.00  0.00     0.009 A 
HETATM   24  C   UNL     1      43.987 -18.053   4.384  1.00  0.00     0.087 A 
HETATM   25  C   UNL     1      44.019 -19.519   2.489  1.00  0.00     0.051 A 
HETATM   26  O   UNL     1      43.693 -16.776   4.739  1.00  0.00    -0.304 OA
HETATM   27  C   UNL     1      44.472 -19.036   5.243  1.00  0.00     0.041 A 
HETATM   28  C   UNL     1      44.742 -20.289   4.677  1.00  0.00     0.039 A 
HETATM   29  C   UNL     1      44.531 -20.532   3.316  1.00  0.00     0.069 A 
BRANCH  29  30
HETATM   30  O   UNL     1      44.776 -21.713   2.669  1.00  0.00    -0.356 OA
HETATM   31  C   UNL     1      44.071 -21.942   1.455  1.00  0.00     0.210 C 
ENDBRANCH  29  30
ENDBRANCH   1  20
TORSDOF 4
ENDMDL
MODEL 2
REMARK VINA RESULT:      -8.5      4.583      8.233
REMARK  4 active torsions:
REMARK  status: ('A' for Active; 'I' for Inactive)
REMARK    1  A    between atoms: C_3  and  C_4 
REMARK       I    between atoms: C_4  and  N_5 
REMARK    2  A    between atoms: N_5  and  C_6 
REMARK    3  A    between atoms: C_13  and  C_14 
REMARK       I    between atoms: C_14  and  N_15 
REMARK    4  A    between atoms: C_25  and  O_26 
ROOT
HETATM    1  C   UNL     1      41.467 -16.418   1.337  1.00  0.00     0.280 C 
HETATM    2  N   UNL     1      42.750 -16.833   1.652  1.00  0.00    -0.321 N 
HETATM    3  O   UNL     1      40.438 -16.839   1.850  1.00  0.00    -0.265 OA
HETATM    4  H   UNL     1      43.478 -16.385   1.107  1.00  0.00     0.169 HD
ENDROOT
BRANCH   2   5
HETATM    5  C   UNL     1      43.160 -17.739   2.648  1.00  0.00     0.036 A 
HETATM    6  C   UNL     1      42.946 -17.542   4.019  1.00  0.00     0.046 A 
HETATM    7  C   UNL     1      43.429 -18.493   4.945  1.00  0.00     0.030 A 
HETATM    8  C   UNL     1      44.101 -19.611   4.469  1.00  0.00     0.063 A 
HETATM    9  C   UNL     1      43.424 -18.642   6.366  1.00  0.00     0.156 A 
HETATM   10  N   UNL     1      44.445 -20.330   5.579  1.00  0.00    -0.277 N 
HETATM   11  C   UNL     1      44.323 -19.847   3.110  1.00  0.00     0.034 A 
HETATM   12  H   UNL     1      44.951 -21.207   5.611  1.00  0.00     0.189 HD
HETATM   13  N   UNL     1      44.056 -19.778   6.741  1.00  0.00    -0.168 NA
HETATM   14  C   UNL     1      43.838 -18.887   2.213  1.00  0.00     0.032 A 
BRANCH   9  15
HETATM   15  C   UNL     1      42.843 -17.732   7.361  1.00  0.00     0.270 C 
HETATM   16  N   UNL     1      43.502 -17.723   8.561  1.00  0.00    -0.365 N 
HETATM   17  H   UNL     1      44.313 -18.318   8.673  1.00  0.00     0.159 HD
HETATM   18  H   UNL     1      43.177 -17.126   9.304  1.00  0.00     0.159 HD
HETATM   19  O   UNL     1      41.858 -17.026   7.174  1.00  0.00    -0.266 OA
ENDBRANCH   9  15
ENDBRANCH   2   5
BRANCH   1  20
HETATM   20  C   UNL     1      41.457 -15.382   0.314  1.00  0.00     0.150 A 
HETATM   21  C   UNL     1      41.742 -14.022   0.378  1.00  0.00    -0.009 A 
HETATM   22  C   UNL     1      42.125 -13.256   1.593  1.00  0.00     0.052 C 
HETATM   23  C   UNL     1      41.627 -13.529  -0.957  1.00  0.00     0.009 A 
HETATM   24  C   UNL     1      41.253 -14.614  -1.738  1.00  0.00     0.087 A 
HETATM   25  C   UNL     1      41.808 -12.287  -1.594  1.00  0.00     0.051 A 
HETATM   26  O   UNL     1      41.144 -15.732  -0.975  1.00  0.00    -0.304 OA
HETATM   27  C   UNL     1      41.032 -14.550  -3.111  1.00  0.00     0.041 A 
HETATM   28  C   UNL     1      41.224 -13.304  -3.723  1.00  0.00     0.039 A 
HETATM   29  C   UNL     1      41.618 -12.185  -2.982  1.00  0.00     0.069 A 
BRANCH  29  30
HETATM   30  O   UNL     1      41.845 -10.933  -3.487  1.00  0.00    -0.356 OA
HETATM   31  C   UNL     1      42.336 -10.855  -4.820  1.00  0.00     0.210 C 
ENDBRANCH  29  30
ENDBRANCH   1  20
TORSDOF 4
ENDMDL
MODEL 3
REMARK VINA RESULT:      -8.4      4.886      6.893
REMARK  4 active torsions:
REMARK  status: ('A' for Active; 'I' for Inactive)
REMARK    1  A    between atoms: C_3  and  C_4 
REMARK       I    between atoms: C_4  and  N_5 
REMARK    2  A    between atoms: N_5  and  C_6 
REMARK    3  A    between atoms: C_13  and  C_14 
REMARK       I    between atoms: C_14  and  N_15 
REMARK    4  A    between atoms: C_25  and  O_26 
ROOT
HETATM    1  C   UNL     1      41.341 -16.263   1.530  1.00  0.00     0.280 C 
HETATM    2  N   UNL     1      41.865 -15.695   0.382  1.00  0.00    -0.321 N 
HETATM    3  O   UNL     1      40.270 -15.966   2.045  1.00  0.00    -0.265 OA
HETATM    4  H   UNL     1      42.776 -16.054   0.117  1.00  0.00     0.169 HD
ENDROOT
BRANCH   2   5
HETATM    5  C   UNL     1      41.280 -14.741  -0.473  1.00  0.00     0.036 A 
HETATM    6  C   UNL     1      40.331 -15.052  -1.456  1.00  0.00     0.046 A 
HETATM    7  C   UNL     1      39.829 -14.028  -2.289  1.00  0.00     0.030 A 
HETATM    8  C   UNL     1      40.286 -12.730  -2.107  1.00  0.00     0.063 A 
HETATM    9  C   UNL     1      38.900 -13.944  -3.372  1.00  0.00     0.156 A 
HETATM   10  N   UNL     1      39.637 -11.979  -3.047  1.00  0.00    -0.277 N 
HETATM   11  C   UNL     1      41.222 -12.381  -1.131  1.00  0.00     0.034 A 
HETATM   12  H   UNL     1      39.729 -10.983  -3.208  1.00  0.00     0.189 HD
HETATM   13  N   UNL     1      38.795 -12.675  -3.829  1.00  0.00    -0.168 NA
HETATM   14  C   UNL     1      41.708 -13.415  -0.321  1.00  0.00     0.032 A 
BRANCH   9  15
HETATM   15  C   UNL     1      38.126 -15.035  -3.976  1.00  0.00     0.270 C 
HETATM   16  N   UNL     1      38.875 -15.906  -4.721  1.00  0.00    -0.365 N 
HETATM   17  H   UNL     1      39.872 -15.744  -4.797  1.00  0.00     0.159 HD
HETATM   18  H   UNL     1      38.430 -16.689  -5.172  1.00  0.00     0.159 HD
HETATM   19  O   UNL     1      36.916 -15.190  -3.849  1.00  0.00    -0.266 OA
ENDBRANCH   9  15
ENDBRANCH   2   5
BRANCH   1  20
HETATM   20  C   UNL     1      42.206 -17.298   2.080  1.00  0.00     0.150 A 
HETATM   21  C   UNL     1      42.959 -17.344   3.248  1.00  0.00    -0.009 A 
HETATM   22  C   UNL     1      43.084 -16.265   4.262  1.00  0.00     0.052 C 
HETATM   23  C   UNL     1      43.551 -18.642   3.287  1.00  0.00     0.009 A 
HETATM   24  C   UNL     1      43.143 -19.288   2.128  1.00  0.00     0.087 A 
HETATM   25  C   UNL     1      44.381 -19.348   4.179  1.00  0.00     0.051 A 
HETATM   26  O   UNL     1      42.335 -18.480   1.394  1.00  0.00    -0.304 OA
HETATM   27  C   UNL     1      43.510 -20.586   1.785  1.00  0.00     0.041 A 
HETATM   28  C   UNL     1      44.331 -21.269   2.692  1.00  0.00     0.039 A 
HETATM   29  C   UNL     1      44.755 -20.668   3.881  1.00  0.00     0.069 A 
BRANCH  29  30
HETATM   30  O   UNL     1      45.544 -21.255   4.835  1.00  0.00    -0.356 OA
HETATM   31  C   UNL     1      45.162 -22.552   5.278  1.00  0.00     0.210 C 
ENDBRANCH  29  30
ENDBRANCH   1  20
TORSDOF 4
ENDMDL
MODEL 4
REMARK VINA RESULT:      -8.3      3.743      9.354
REMARK  4 active torsions:
REMARK  status: ('A' for Active; 'I' for Inactive)
REMARK    1  A    between atoms: C_3  and  C_4 
REMARK       I    between atoms: C_4  and  N_5 
REMARK    2  A    between atoms: N_5  and  C_6 
REMARK    3  A    between atoms: C_13  and  C_14 
REMARK       I    between atoms: C_14  and  N_15 
REMARK    4  A    between atoms: C_25  and  O_26 
ROOT
HETATM    1  C   UNL     1      44.708 -13.751   7.170  1.00  0.00     0.280 C 
HETATM    2  N   UNL     1      43.901 -14.875   7.212  1.00  0.00    -0.321 N 
HETATM    3  O   UNL     1      45.660 -13.587   6.416  1.00  0.00    -0.265 OA
HETATM    4  H   UNL     1      43.173 -14.838   7.917  1.00  0.00     0.169 HD
ENDROOT
BRANCH   2   5
HETATM    5  C   UNL     1      43.934 -16.012   6.382  1.00  0.00     0.036 A 
HETATM    6  C   UNL     1      43.184 -16.141   5.205  1.00  0.00     0.046 A 
HETATM    7  C   UNL     1      43.258 -17.338   4.460  1.00  0.00     0.030 A 
HETATM    8  C   UNL     1      44.082 -18.360   4.911  1.00  0.00     0.063 A 
HETATM    9  C   UNL     1      42.664 -17.844   3.262  1.00  0.00     0.156 A 
HETATM   10  N   UNL     1      43.940 -19.371   4.002  1.00  0.00    -0.277 N 
HETATM   11  C   UNL     1      44.851 -18.263   6.072  1.00  0.00     0.034 A 
HETATM   12  H   UNL     1      44.394 -20.277   4.015  1.00  0.00     0.189 HD
HETATM   13  N   UNL     1      43.094 -19.099   2.995  1.00  0.00    -0.168 NA
HETATM   14  C   UNL     1      44.758 -17.068   6.796  1.00  0.00     0.032 A 
BRANCH   9  15
HETATM   15  C   UNL     1      41.703 -17.166   2.382  1.00  0.00     0.270 C 
HETATM   16  N   UNL     1      40.481 -16.942   2.958  1.00  0.00    -0.365 N 
HETATM   17  H   UNL     1      40.333 -17.245   3.912  1.00  0.00     0.159 HD
HETATM   18  H   UNL     1      39.759 -16.480   2.431  1.00  0.00     0.159 HD
HETATM   19  O   UNL     1      41.934 -16.815   1.231  1.00  0.00    -0.266 OA
ENDBRANCH   9  15
ENDBRANCH   2   5
BRANCH   1  20
HETATM   20  C   UNL     1      44.292 -12.735   8.126  1.00  0.00     0.150 A 
HETATM   21  C   UNL     1      43.257 -11.806   8.091  1.00  0.00    -0.009 A 
HETATM   22  C   UNL     1      42.287 -11.606   6.984  1.00  0.00     0.052 C 
HETATM   23  C   UNL     1      43.299 -11.118   9.341  1.00  0.00     0.009 A 
HETATM   24  C   UNL     1      44.372 -11.654  10.041  1.00  0.00     0.087 A 
HETATM   25  C   UNL     1      42.542 -10.108   9.964  1.00  0.00     0.051 A 
HETATM   26  O   UNL     1      44.977 -12.625   9.310  1.00  0.00    -0.304 OA
HETATM   27  C   UNL     1      44.756 -11.247  11.315  1.00  0.00     0.041 A 
HETATM   28  C   UNL     1      43.983 -10.245  11.917  1.00  0.00     0.039 A 
HETATM   29  C   UNL     1      42.882  -9.685  11.260  1.00  0.00     0.069 A 
BRANCH  29  30
HETATM   30  O   UNL     1      42.059  -8.715  11.767  1.00  0.00    -0.356 OA
HETATM   31  C   UNL     1      41.181  -8.072  10.851  1.00  0.00     0.210 C 
ENDBRANCH  29  30
ENDBRANCH   1  20
TORSDOF 4
ENDMDL
MODEL 5
REMARK VINA RESULT:      -8.3      4.407      6.040
REMARK  4 active torsions:
REMARK  status: ('A' for Active; 'I' for Inactive)
REMARK    1  A    between atoms: C_3  and  C_4 
REMARK       I    between atoms: C_4  and  N_5 
REMARK    2  A    between atoms: N_5  and  C_6 
REMARK    3  A    between atoms: C_13  and  C_14 
REMARK       I    between atoms: C_14  and  N_15 
REMARK    4  A    between atoms: C_25  and  O_26 
ROOT
HETATM    1  C   UNL     1      41.932 -15.615   2.388  1.00  0.00     0.280 C 
HETATM    2  N   UNL     1      40.875 -15.937   1.555  1.00  0.00    -0.321 N 
HETATM    3  O   UNL     1      42.340 -14.482   2.613  1.00  0.00    -0.265 OA
HETATM    4  H   UNL     1      40.695 -16.932   1.476  1.00  0.00     0.169 HD
ENDROOT
BRANCH   2   5
HETATM    5  C   UNL     1      40.007 -15.072   0.863  1.00  0.00     0.036 A 
HETATM    6  C   UNL     1      40.210 -14.656  -0.460  1.00  0.00     0.046 A 
HETATM    7  C   UNL     1      39.300 -13.755  -1.056  1.00  0.00     0.030 A 
HETATM    8  C   UNL     1      38.215 -13.307  -0.313  1.00  0.00     0.063 A 
HETATM    9  C   UNL     1      39.170 -13.111  -2.325  1.00  0.00     0.156 A 
HETATM   10  N   UNL     1      37.533 -12.460  -1.140  1.00  0.00    -0.277 N 
HETATM   11  C   UNL     1      37.975 -13.708   1.003  1.00  0.00     0.034 A 
HETATM   12  H   UNL     1      36.686 -11.945  -0.928  1.00  0.00     0.189 HD
HETATM   13  N   UNL     1      38.077 -12.314  -2.359  1.00  0.00    -0.168 NA
HETATM   14  C   UNL     1      38.894 -14.598   1.573  1.00  0.00     0.032 A 
BRANCH   9  15
HETATM   15  C   UNL     1      40.059 -13.232  -3.487  1.00  0.00     0.270 C 
HETATM   16  N   UNL     1      40.231 -12.065  -4.182  1.00  0.00    -0.365 N 
HETATM   17  H   UNL     1      39.755 -11.233  -3.857  1.00  0.00     0.159 HD
HETATM   18  H   UNL     1      40.827 -12.052  -4.994  1.00  0.00     0.159 HD
HETATM   19  O   UNL     1      40.617 -14.266  -3.837  1.00  0.00    -0.266 OA
ENDBRANCH   9  15
ENDBRANCH   2   5
BRANCH   1  20
HETATM   20  C   UNL     1      42.524 -16.791   3.010  1.00  0.00     0.150 A 
HETATM   21  C   UNL     1      43.306 -17.815   2.486  1.00  0.00    -0.009 A 
HETATM   22  C   UNL     1      43.725 -17.970   1.069  1.00  0.00     0.052 C 
HETATM   23  C   UNL     1      43.647 -18.657   3.588  1.00  0.00     0.009 A 
HETATM   24  C   UNL     1      43.028 -18.106   4.701  1.00  0.00     0.087 A 
HETATM   25  C   UNL     1      44.419 -19.820   3.769  1.00  0.00     0.051 A 
HETATM   26  O   UNL     1      42.346 -16.983   4.357  1.00  0.00    -0.304 OA
HETATM   27  C   UNL     1      43.113 -18.636   5.985  1.00  0.00     0.041 A 
HETATM   28  C   UNL     1      43.892 -19.790   6.141  1.00  0.00     0.039 A 
HETATM   29  C   UNL     1      44.549 -20.373   5.053  1.00  0.00     0.069 A 
BRANCH  29  30
HETATM   30  O   UNL     1      45.343 -21.489   5.105  1.00  0.00    -0.356 OA
HETATM   31  C   UNL     1      44.807 -22.687   4.556  1.00  0.00     0.210 C 
ENDBRANCH  29  30
ENDBRANCH   1  20
TORSDOF 4
ENDMDL
MODEL 6
REMARK VINA RESULT:      -8.1      4.783      6.281
REMARK  4 active torsions:
REMARK  status: ('A' for Active; 'I' for Inactive)
REMARK    1  A    between atoms: C_3  and  C_4 
REMARK       I    between atoms: C_4  and  N_5 
REMARK    2  A    between atoms: N_5  and  C_6 
REMARK    3  A    between atoms: C_13  and  C_14 
REMARK       I    between atoms: C_14  and  N_15 
REMARK    4  A    between atoms: C_25  and  O_26 
ROOT
HETATM    1  C   UNL     1      41.406 -16.418   1.103  1.00  0.00     0.280 C 
HETATM    2  N   UNL     1      41.854 -16.098  -0.167  1.00  0.00    -0.321 N 
HETATM    3  O   UNL     1      40.413 -15.947   1.646  1.00  0.00    -0.265 OA
HETATM    4  H   UNL     1      42.707 -16.574  -0.439  1.00  0.00     0.169 HD
ENDROOT
BRANCH   2   5
HETATM    5  C   UNL     1      41.258 -15.253  -1.122  1.00  0.00     0.036 A 
HETATM    6  C   UNL     1      41.077 -13.875  -0.942  1.00  0.00     0.046 A 
HETATM    7  C   UNL     1      40.434 -13.119  -1.946  1.00  0.00     0.030 A 
HETATM    8  C   UNL     1      40.001 -13.763  -3.097  1.00  0.00     0.063 A 
HETATM    9  C   UNL     1      40.065 -11.750  -2.127  1.00  0.00     0.156 A 
HETATM   10  N   UNL     1      39.423 -12.789  -3.864  1.00  0.00    -0.277 N 
HETATM   11  C   UNL     1      40.172 -15.131  -3.317  1.00  0.00     0.034 A 
HETATM   12  H   UNL     1      38.993 -12.900  -4.775  1.00  0.00     0.189 HD
HETATM   13  N   UNL     1      39.441 -11.565  -3.313  1.00  0.00    -0.168 NA
HETATM   14  C   UNL     1      40.809 -15.860  -2.304  1.00  0.00     0.032 A 
BRANCH   9  15
HETATM   15  C   UNL     1      40.286 -10.632  -1.201  1.00  0.00     0.270 C 
HETATM   16  N   UNL     1      39.135 -10.080  -0.707  1.00  0.00    -0.365 N 
HETATM   17  H   UNL     1      38.247 -10.469  -1.000  1.00  0.00     0.159 HD
HETATM   18  H   UNL     1      39.188  -9.309  -0.062  1.00  0.00     0.159 HD
HETATM   19  O   UNL     1      41.386 -10.201  -0.874  1.00  0.00    -0.266 OA
ENDBRANCH   9  15
ENDBRANCH   2   5
BRANCH   1  20
HETATM   20  C   UNL     1      42.244 -17.417   1.750  1.00  0.00     0.150 A 
HETATM   21  C   UNL     1      42.967 -17.383   2.937  1.00  0.00    -0.009 A 
HETATM   22  C   UNL     1      43.081 -16.232   3.870  1.00  0.00     0.052 C 
HETATM   23  C   UNL     1      43.542 -18.681   3.089  1.00  0.00     0.009 A 
HETATM   24  C   UNL     1      43.154 -19.408   1.972  1.00  0.00     0.087 A 
HETATM   25  C   UNL     1      44.341 -19.326   4.052  1.00  0.00     0.051 A 
HETATM   26  O   UNL     1      42.375 -18.649   1.159  1.00  0.00    -0.304 OA
HETATM   27  C   UNL     1      43.513 -20.732   1.737  1.00  0.00     0.041 A 
HETATM   28  C   UNL     1      44.303 -21.354   2.713  1.00  0.00     0.039 A 
HETATM   29  C   UNL     1      44.706 -20.669   3.864  1.00  0.00     0.069 A 
BRANCH  29  30
HETATM   30  O   UNL     1      45.463 -21.191   4.879  1.00  0.00    -0.356 OA
HETATM   31  C   UNL     1      45.060 -22.450   5.402  1.00  0.00     0.210 C 
ENDBRANCH  29  30
ENDBRANCH   1  20
TORSDOF 4
ENDMDL
MODEL 7
REMARK VINA RESULT:      -8.1      4.435      8.158
REMARK  4 active torsions:
REMARK  status: ('A' for Active; 'I' for Inactive)
REMARK    1  A    between atoms: C_3  and  C_4 
REMARK       I    between atoms: C_4  and  N_5 
REMARK    2  A    between atoms: N_5  and  C_6 
REMARK    3  A    between atoms: C_13  and  C_14 
REMARK       I    between atoms: C_14  and  N_15 
REMARK    4  A    between atoms: C_25  and  O_26 
ROOT
HETATM    1  C   UNL     1      41.820 -15.217   2.202  1.00  0.00     0.280 C 
HETATM    2  N   UNL     1      41.321 -16.270   2.949  1.00  0.00    -0.321 N 
HETATM    3  O   UNL     1      42.777 -14.517   2.512  1.00  0.00    -0.265 OA
HETATM    4  H   UNL     1      40.509 -16.721   2.542  1.00  0.00     0.169 HD
ENDROOT
BRANCH   2   5
HETATM    5  C   UNL     1      41.821 -16.811   4.148  1.00  0.00     0.036 A 
HETATM    6  C   UNL     1      42.652 -17.938   4.210  1.00  0.00     0.046 A 
HETATM    7  C   UNL     1      43.072 -18.427   5.466  1.00  0.00     0.030 A 
HETATM    8  C   UNL     1      42.655 -17.770   6.616  1.00  0.00     0.063 A 
HETATM    9  C   UNL     1      43.878 -19.512   5.932  1.00  0.00     0.156 A 
HETATM   10  N   UNL     1      43.207 -18.467   7.654  1.00  0.00    -0.277 N 
HETATM   11  C   UNL     1      41.836 -16.639   6.593  1.00  0.00     0.034 A 
HETATM   12  H   UNL     1      43.110 -18.273   8.644  1.00  0.00     0.189 HD
HETATM   13  N   UNL     1      43.949 -19.523   7.283  1.00  0.00    -0.168 NA
HETATM   14  C   UNL     1      41.429 -16.176   5.336  1.00  0.00     0.032 A 
BRANCH   9  15
HETATM   15  C   UNL     1      44.567 -20.528   5.126  1.00  0.00     0.270 C 
HETATM   16  N   UNL     1      44.609 -21.767   5.707  1.00  0.00    -0.365 N 
HETATM   17  H   UNL     1      44.177 -21.891   6.614  1.00  0.00     0.159 HD
HETATM   18  H   UNL     1      45.060 -22.528   5.226  1.00  0.00     0.159 HD
HETATM   19  O   UNL     1      45.072 -20.326   4.028  1.00  0.00    -0.266 OA
ENDBRANCH   9  15
ENDBRANCH   2   5
BRANCH   1  20
HETATM   20  C   UNL     1      41.087 -15.024   0.959  1.00  0.00     0.150 A 
HETATM   21  C   UNL     1      39.909 -14.340   0.681  1.00  0.00    -0.009 A 
HETATM   22  C   UNL     1      39.054 -13.619   1.660  1.00  0.00     0.052 C 
HETATM   23  C   UNL     1      39.713 -14.442  -0.729  1.00  0.00     0.009 A 
HETATM   24  C   UNL     1      40.768 -15.205  -1.211  1.00  0.00     0.087 A 
HETATM   25  C   UNL     1      38.766 -13.967  -1.655  1.00  0.00     0.051 A 
HETATM   26  O   UNL     1      41.597 -15.563  -0.196  1.00  0.00    -0.304 OA
HETATM   27  C   UNL     1      40.943 -15.541  -2.550  1.00  0.00     0.041 A 
HETATM   28  C   UNL     1      39.990 -15.050  -3.453  1.00  0.00     0.039 A 
HETATM   29  C   UNL     1      38.919 -14.263  -3.019  1.00  0.00     0.069 A 
BRANCH  29  30
HETATM   30  O   UNL     1      37.947 -13.726  -3.822  1.00  0.00    -0.356 OA
HETATM   31  C   UNL     1      36.851 -14.567  -4.157  1.00  0.00     0.210 C 
ENDBRANCH  29  30
ENDBRANCH   1  20
TORSDOF 4
ENDMDL
MODEL 8
REMARK VINA RESULT:      -8.0      4.646      8.312
REMARK  4 active torsions:
REMARK  status: ('A' for Active; 'I' for Inactive)
REMARK    1  A    between atoms: C_3  and  C_4 
REMARK       I    between atoms: C_4  and  N_5 
REMARK    2  A    between atoms: N_5  and  C_6 
REMARK    3  A    between atoms: C_13  and  C_14 
REMARK       I    between atoms: C_14  and  N_15 
REMARK    4  A    between atoms: C_25  and  O_26 
ROOT
HETATM    1  C   UNL     1      41.938 -15.429   1.617  1.00  0.00     0.280 C 
HETATM    2  N   UNL     1      41.787 -16.792   1.811  1.00  0.00    -0.321 N 
HETATM    3  O   UNL     1      42.697 -14.702   2.246  1.00  0.00    -0.265 OA
HETATM    4  H   UNL     1      41.095 -17.224   1.208  1.00  0.00     0.169 HD
ENDROOT
BRANCH   2   5
HETATM    5  C   UNL     1      42.496 -17.639   2.684  1.00  0.00     0.036 A 
HETATM    6  C   UNL     1      42.449 -17.535   4.081  1.00  0.00     0.046 A 
HETATM    7  C   UNL     1      43.226 -18.410   4.871  1.00  0.00     0.030 A 
HETATM    8  C   UNL     1      44.016 -19.361   4.240  1.00  0.00     0.063 A 
HETATM    9  C   UNL     1      43.453 -18.608   6.268  1.00  0.00     0.156 A 
HETATM   10  N   UNL     1      44.643 -20.041   5.247  1.00  0.00    -0.277 N 
HETATM   11  C   UNL     1      44.080 -19.501   2.852  1.00  0.00     0.034 A 
HETATM   12  H   UNL     1      45.300 -20.806   5.155  1.00  0.00     0.189 HD
HETATM   13  N   UNL     1      44.331 -19.616   6.483  1.00  0.00    -0.168 NA
HETATM   14  C   UNL     1      43.304 -18.619   2.090  1.00  0.00     0.032 A 
BRANCH   9  15
HETATM   15  C   UNL     1      42.864 -17.862   7.387  1.00  0.00     0.270 C 
HETATM   16  N   UNL     1      43.618 -17.882   8.530  1.00  0.00    -0.365 N 
HETATM   17  H   UNL     1      44.496 -18.386   8.522  1.00  0.00     0.159 HD
HETATM   18  H   UNL     1      43.295 -17.394   9.349  1.00  0.00     0.159 HD
HETATM   19  O   UNL     1      41.796 -17.263   7.344  1.00  0.00    -0.266 OA
ENDBRANCH   9  15
ENDBRANCH   2   5
BRANCH   1  20
HETATM   20  C   UNL     1      41.094 -14.927   0.542  1.00  0.00     0.150 A 
HETATM   21  C   UNL     1      39.740 -14.610   0.506  1.00  0.00    -0.009 A 
HETATM   22  C   UNL     1      38.771 -14.743   1.625  1.00  0.00     0.052 C 
HETATM   23  C   UNL     1      39.487 -14.101  -0.804  1.00  0.00     0.009 A 
HETATM   24  C   UNL     1      40.694 -14.170  -1.485  1.00  0.00     0.087 A 
HETATM   25  C   UNL     1      38.371 -13.581  -1.487  1.00  0.00     0.051 A 
HETATM   26  O   UNL     1      41.665 -14.672  -0.680  1.00  0.00    -0.304 OA
HETATM   27  C   UNL     1      40.871 -13.768  -2.806  1.00  0.00     0.041 A 
HETATM   28  C   UNL     1      39.747 -13.248  -3.462  1.00  0.00     0.039 A 
HETATM   29  C   UNL     1      38.512 -13.143  -2.814  1.00  0.00     0.069 A 
BRANCH  29  30
HETATM   30  O   UNL     1      37.364 -12.638  -3.362  1.00  0.00    -0.356 OA
HETATM   31  C   UNL     1      37.013 -11.305  -3.010  1.00  0.00     0.210 C 
ENDBRANCH  29  30
ENDBRANCH   1  20
TORSDOF 4
ENDMDL
MODEL 9
REMARK VINA RESULT:      -7.9      4.725      9.334
REMARK  4 active torsions:
REMARK  status: ('A' for Active; 'I' for Inactive)
REMARK    1  A    between atoms: C_3  and  C_4 
REMARK       I    between atoms: C_4  and  N_5 
REMARK    2  A    between atoms: N_5  and  C_6 
REMARK    3  A    between atoms: C_13  and  C_14 
REMARK       I    between atoms: C_14  and  N_15 
REMARK    4  A    between atoms: C_25  and  O_26 
ROOT
HETATM    1  C   UNL     1      41.323 -16.618   1.175  1.00  0.00     0.280 C 
HETATM    2  N   UNL     1      42.624 -16.643   1.647  1.00  0.00    -0.321 N 
HETATM    3  O   UNL     1      40.425 -17.375   1.526  1.00  0.00    -0.265 OA
HETATM    4  H   UNL     1      43.233 -15.951   1.224  1.00  0.00     0.169 HD
ENDROOT
BRANCH   2   5
HETATM    5  C   UNL     1      43.179 -17.456   2.653  1.00  0.00     0.036 A 
HETATM    6  C   UNL     1      43.511 -18.805   2.472  1.00  0.00     0.046 A 
HETATM    7  C   UNL     1      44.029 -19.547   3.556  1.00  0.00     0.030 A 
HETATM    8  C   UNL     1      44.203 -18.915   4.780  1.00  0.00     0.063 A 
HETATM    9  C   UNL     1      44.461 -20.893   3.771  1.00  0.00     0.156 A 
HETATM   10  N   UNL     1      44.704 -19.873   5.617  1.00  0.00    -0.277 N 
HETATM   11  C   UNL     1      43.893 -17.571   4.995  1.00  0.00     0.034 A 
HETATM   12  H   UNL     1      44.949 -19.767   6.594  1.00  0.00     0.189 HD
HETATM   13  N   UNL     1      44.871 -21.077   5.046  1.00  0.00    -0.168 NA
HETATM   14  C   UNL     1      43.378 -16.857   3.906  1.00  0.00     0.032 A 
BRANCH   9  15
HETATM   15  C   UNL     1      44.483 -21.993   2.798  1.00  0.00     0.270 C 
HETATM   16  N   UNL     1      44.084 -21.633   1.539  1.00  0.00    -0.365 N 
HETATM   17  H   UNL     1      43.816 -20.671   1.372  1.00  0.00     0.159 HD
HETATM   18  H   UNL     1      44.070 -22.321   0.804  1.00  0.00     0.159 HD
HETATM   19  O   UNL     1      44.821 -23.144   3.050  1.00  0.00    -0.266 OA
ENDBRANCH   9  15
ENDBRANCH   2   5
BRANCH   1  20
HETATM   20  C   UNL     1      41.107 -15.557   0.202  1.00  0.00     0.150 A 
HETATM   21  C   UNL     1      40.830 -14.204   0.362  1.00  0.00    -0.009 A 
HETATM   22  C   UNL     1      40.652 -13.484   1.650  1.00  0.00     0.052 C 
HETATM   23  C   UNL     1      40.787 -13.649  -0.953  1.00  0.00     0.009 A 
HETATM   24  C   UNL     1      41.012 -14.705  -1.825  1.00  0.00     0.087 A 
HETATM   25  C   UNL     1      40.591 -12.368  -1.503  1.00  0.00     0.051 A 
HETATM   26  O   UNL     1      41.201 -15.859  -1.133  1.00  0.00    -0.304 OA
HETATM   27  C   UNL     1      41.047 -14.581  -3.211  1.00  0.00     0.041 A 
HETATM   28  C   UNL     1      40.856 -13.296  -3.734  1.00  0.00     0.039 A 
HETATM   29  C   UNL     1      40.642 -12.196  -2.896  1.00  0.00     0.069 A 
BRANCH  29  30
HETATM   30  O   UNL     1      40.460 -10.903  -3.308  1.00  0.00    -0.356 OA
HETATM   31  C   UNL     1      39.542 -10.112  -2.563  1.00  0.00     0.210 C 
ENDBRANCH  29  30
ENDBRANCH   1  20
TORSDOF 4
ENDMDL
MODEL 10
REMARK VINA RESULT:      -7.9      4.445      5.847
REMARK  4 active torsions:
REMARK  status: ('A' for Active; 'I' for Inactive)
REMARK    1  A    between atoms: C_3  and  C_4 
REMARK       I    between atoms: C_4  and  N_5 
REMARK    2  A    between atoms: N_5  and  C_6 
REMARK    3  A    between atoms: C_13  and  C_14 
REMARK       I    between atoms: C_14  and  N_15 
REMARK    4  A    between atoms: C_25  and  O_26 
ROOT
HETATM    1  C   UNL     1      42.254 -15.897   2.068  1.00  0.00     0.280 C 
HETATM    2  N   UNL     1      41.070 -16.134   1.391  1.00  0.00    -0.321 N 
HETATM    3  O   UNL     1      42.730 -14.792   2.301  1.00  0.00    -0.265 OA
HETATM    4  H   UNL     1      40.846 -17.117   1.276  1.00  0.00     0.169 HD
ENDROOT
BRANCH   2   5
HETATM    5  C   UNL     1      40.135 -15.203   0.902  1.00  0.00     0.036 A 
HETATM    6  C   UNL     1      40.343 -14.414  -0.238  1.00  0.00     0.046 A 
HETATM    7  C   UNL     1      39.358 -13.479  -0.628  1.00  0.00     0.030 A 
HETATM    8  C   UNL     1      38.199 -13.371   0.128  1.00  0.00     0.063 A 
HETATM    9  C   UNL     1      39.206 -12.522  -1.678  1.00  0.00     0.156 A 
HETATM   10  N   UNL     1      37.456 -12.399  -0.482  1.00  0.00    -0.277 N 
HETATM   11  C   UNL     1      37.953 -14.147   1.262  1.00  0.00     0.034 A 
HETATM   12  H   UNL     1      36.547 -12.054  -0.199  1.00  0.00     0.189 HD
HETATM   13  N   UNL     1      38.029 -11.863  -1.572  1.00  0.00    -0.168 NA
HETATM   14  C   UNL     1      38.946 -15.063   1.631  1.00  0.00     0.032 A 
BRANCH   9  15
HETATM   15  C   UNL     1      40.151 -12.221  -2.761  1.00  0.00     0.270 C 
HETATM   16  N   UNL     1      39.882 -12.875  -3.934  1.00  0.00    -0.365 N 
HETATM   17  H   UNL     1      39.081 -13.493  -3.970  1.00  0.00     0.159 HD
HETATM   18  H   UNL     1      40.476 -12.729  -4.734  1.00  0.00     0.159 HD
HETATM   19  O   UNL     1      41.106 -11.459  -2.666  1.00  0.00    -0.266 OA
ENDBRANCH   9  15
ENDBRANCH   2   5
BRANCH   1  20
HETATM   20  C   UNL     1      42.894 -17.127   2.511  1.00  0.00     0.150 A 
HETATM   21  C   UNL     1      43.433 -17.493   3.740  1.00  0.00    -0.009 A 
HETATM   22  C   UNL     1      43.506 -16.648   4.960  1.00  0.00     0.052 C 
HETATM   23  C   UNL     1      43.862 -18.847   3.597  1.00  0.00     0.009 A 
HETATM   24  C   UNL     1      43.583 -19.204   2.285  1.00  0.00     0.087 A 
HETATM   25  C   UNL     1      44.448 -19.815   4.435  1.00  0.00     0.051 A 
HETATM   26  O   UNL     1      43.004 -18.169   1.625  1.00  0.00    -0.304 OA
HETATM   27  C   UNL     1      43.856 -20.456   1.740  1.00  0.00     0.041 A 
HETATM   28  C   UNL     1      44.433 -21.404   2.596  1.00  0.00     0.039 A 
HETATM   29  C   UNL     1      44.718 -21.098   3.931  1.00  0.00     0.069 A 
BRANCH  29  30
HETATM   30  O   UNL     1      45.266 -21.956   4.846  1.00  0.00    -0.356 OA
HETATM   31  C   UNL     1      44.514 -22.205   6.027  1.00  0.00     0.210 C 
ENDBRANCH  29  30
ENDBRANCH   1  20
TORSDOF 4
ENDMDL
