MODEL 1
REMARK VINA RESULT:      -8.8      0.000      0.000
REMARK  5 active torsions:
REMARK  status: ('A' for Active; 'I' for Inactive)
REMARK    1  A    between atoms: O_2  and  C_3 
REMARK    2  A    between atoms: C_5  and  C_6 
REMARK    3  A    between atoms: C_12  and  C_13 
REMARK    4  A    between atoms: C_15  and  O_16 
REMARK    5  A    between atoms: C_18  and  O_19 
ROOT
HETATM    1  C   UNL     1      43.035 -18.167   1.863  1.00  0.00     0.098 A 
HETATM    2  N   UNL     1      43.534 -17.694   0.694  1.00  0.00    -0.173 NA
HETATM    3  N   UNL     1      42.794 -16.598   0.399  1.00  0.00    -0.272 N 
HETATM    4  H   UNL     1      42.993 -16.081  -0.452  1.00  0.00     0.189 HD
HETATM    5  C   UNL     1      41.870 -16.365   1.341  1.00  0.00     0.128 A 
HETATM    6  C   UNL     1      41.993 -17.330   2.299  1.00  0.00     0.034 A 
HETATM    7  C   UNL     1      40.994 -17.108   3.364  1.00  0.00     0.156 A 
HETATM    8  N   UNL     1      40.335 -15.894   2.845  1.00  0.00    -0.343 N 
HETATM    9  C   UNL     1      40.848 -15.436   1.637  1.00  0.00     0.271 A 
HETATM   10  O   UNL     1      40.498 -14.454   1.009  1.00  0.00    -0.266 OA
HETATM   11  H   UNL     1      39.595 -15.402   3.323  1.00  0.00     0.163 HD
ENDROOT
BRANCH   7  12
HETATM   12  C   UNL     1      41.715 -16.871   4.668  1.00  0.00    -0.028 A 
HETATM   13  C   UNL     1      42.713 -15.881   4.814  1.00  0.00     0.049 A 
HETATM   14  C   UNL     1      43.353 -15.681   6.039  1.00  0.00     0.101 A 
HETATM   15  C   UNL     1      42.985 -16.476   7.128  1.00  0.00     0.099 A 
HETATM   16  C   UNL     1      42.007 -17.454   7.016  1.00  0.00     0.040 A 
HETATM   17  C   UNL     1      41.374 -17.650   5.790  1.00  0.00     0.012 A 
BRANCH  14  18
HETATM   18  O   UNL     1      44.330 -14.756   6.301  1.00  0.00    -0.353 OA
HETATM   19  C   UNL     1      43.896 -13.429   6.579  1.00  0.00     0.210 C 
ENDBRANCH  14  18
BRANCH  15  20
HETATM   20  O   UNL     1      43.590 -16.302   8.343  1.00  0.00    -0.358 OA
HETATM   21  H   UNL     1      43.809 -17.206   8.645  1.00  0.00     0.218 HD
ENDBRANCH  15  20
ENDBRANCH   7  12
BRANCH   1  22
HETATM   22  C   UNL     1      43.579 -19.370   2.490  1.00  0.00    -0.002 A 
HETATM   23  C   UNL     1      43.953 -19.351   3.843  1.00  0.00     0.050 A 
HETATM   24  C   UNL     1      44.471 -20.490   4.468  1.00  0.00     0.069 A 
HETATM   25  C   UNL     1      44.618 -21.666   3.732  1.00  0.00     0.037 A 
HETATM   26  C   UNL     1      44.260 -21.696   2.383  1.00  0.00     0.004 A 
HETATM   27  C   UNL     1      43.748 -20.554   1.763  1.00  0.00     0.014 A 
BRANCH  24  28
HETATM   28  O   UNL     1      44.790 -20.324   5.788  1.00  0.00    -0.356 OA
HETATM   29  C   UNL     1      43.823 -20.743   6.743  1.00  0.00     0.210 C 
ENDBRANCH  24  28
ENDBRANCH   1  22
TORSDOF 5
ENDMDL
MODEL 2
REMARK VINA RESULT:      -8.8      1.222      5.055
REMARK  5 active torsions:
REMARK  status: ('A' for Active; 'I' for Inactive)
REMARK    1  A    between atoms: O_2  and  C_3 
REMARK    2  A    between atoms: C_5  and  C_6 
REMARK    3  A    between atoms: C_12  and  C_13 
REMARK    4  A    between atoms: C_15  and  O_16 
REMARK    5  A    between atoms: C_18  and  O_19 
ROOT
HETATM    1  C   UNL     1      41.947 -16.487   4.013  1.00  0.00     0.098 A 
HETATM    2  N   UNL     1      40.699 -15.979   3.857  1.00  0.00    -0.173 NA
HETATM    3  N   UNL     1      40.507 -15.891   2.519  1.00  0.00    -0.272 N 
HETATM    4  H   UNL     1      39.627 -15.523   2.168  1.00  0.00     0.189 HD
HETATM    5  C   UNL     1      41.575 -16.334   1.841  1.00  0.00     0.128 A 
HETATM    6  C   UNL     1      42.512 -16.735   2.750  1.00  0.00     0.034 A 
HETATM    7  C   UNL     1      43.709 -17.238   2.045  1.00  0.00     0.156 A 
HETATM    8  N   UNL     1      43.275 -17.056   0.646  1.00  0.00    -0.343 N 
HETATM    9  C   UNL     1      42.000 -16.518   0.507  1.00  0.00     0.271 A 
HETATM   10  O   UNL     1      41.404 -16.287  -0.527  1.00  0.00    -0.266 OA
HETATM   11  H   UNL     1      43.824 -17.323  -0.157  1.00  0.00     0.163 HD
ENDROOT
BRANCH   7  12
HETATM   12  C   UNL     1      43.918 -18.687   2.410  1.00  0.00    -0.028 A 
HETATM   13  C   UNL     1      44.485 -19.084   3.642  1.00  0.00     0.049 A 
HETATM   14  C   UNL     1      44.654 -20.435   3.953  1.00  0.00     0.101 A 
HETATM   15  C   UNL     1      44.246 -21.395   3.022  1.00  0.00     0.099 A 
HETATM   16  C   UNL     1      43.683 -21.036   1.806  1.00  0.00     0.040 A 
HETATM   17  C   UNL     1      43.519 -19.686   1.502  1.00  0.00     0.012 A 
BRANCH  14  18
HETATM   18  O   UNL     1      45.190 -20.940   5.109  1.00  0.00    -0.353 OA
HETATM   19  C   UNL     1      44.279 -21.210   6.169  1.00  0.00     0.210 C 
ENDBRANCH  14  18
BRANCH  15  20
HETATM   20  O   UNL     1      44.393 -22.728   3.298  1.00  0.00    -0.358 OA
HETATM   21  H   UNL     1      44.844 -23.097   2.513  1.00  0.00     0.218 HD
ENDBRANCH  15  20
ENDBRANCH   7  12
BRANCH   1  22
HETATM   22  C   UNL     1      42.517 -16.708   5.340  1.00  0.00    -0.002 A 
HETATM   23  C   UNL     1      43.228 -15.682   5.983  1.00  0.00     0.050 A 
HETATM   24  C   UNL     1      43.777 -15.867   7.255  1.00  0.00     0.069 A 
HETATM   25  C   UNL     1      43.617 -17.096   7.897  1.00  0.00     0.037 A 
HETATM   26  C   UNL     1      42.922 -18.129   7.265  1.00  0.00     0.004 A 
HETATM   27  C   UNL     1      42.379 -17.939   5.992  1.00  0.00     0.014 A 
BRANCH  24  28
HETATM   28  O   UNL     1      44.440 -14.780   7.756  1.00  0.00    -0.356 OA
HETATM   29  C   UNL     1      45.121 -13.953   6.821  1.00  0.00     0.210 C 
ENDBRANCH  24  28
ENDBRANCH   1  22
TORSDOF 5
ENDMDL
MODEL 3
REMARK VINA RESULT:      -8.5      1.140      1.997
REMARK  5 active torsions:
REMARK  status: ('A' for Active; 'I' for Inactive)
REMARK    1  A    between atoms: O_2  and  C_3 
REMARK    2  A    between atoms: C_5  and  C_6 
REMARK    3  A    between atoms: C_12  and  C_13 
REMARK    4  A    between atoms: C_15  and  O_16 
REMARK    5  A    between atoms: C_18  and  O_19 
ROOT
HETATM    1  C   UNL     1      42.015 -17.553   2.099  1.00  0.00     0.098 A 
HETATM    2  N   UNL     1      41.887 -17.371   0.761  1.00  0.00    -0.173 NA
HETATM    3  N   UNL     1      40.961 -16.393   0.614  1.00  0.00    -0.272 N 
HETATM    4  H   UNL     1      40.700 -16.096  -0.322  1.00  0.00     0.189 HD
HETATM    5  C   UNL     1      40.522 -15.954   1.801  1.00  0.00     0.128 A 
HETATM    6  C   UNL     1      41.173 -16.654   2.776  1.00  0.00     0.034 A 
HETATM    7  C   UNL     1      40.723 -16.196   4.106  1.00  0.00     0.156 A 
HETATM    8  N   UNL     1      39.755 -15.158   3.703  1.00  0.00    -0.343 N 
HETATM    9  C   UNL     1      39.625 -14.999   2.328  1.00  0.00     0.271 A 
HETATM   10  O   UNL     1      38.914 -14.207   1.739  1.00  0.00    -0.266 OA
HETATM   11  H   UNL     1      39.244 -14.577   4.351  1.00  0.00     0.163 HD
ENDROOT
BRANCH   7  12
HETATM   12  C   UNL     1      41.906 -15.635   4.856  1.00  0.00    -0.028 A 
HETATM   13  C   UNL     1      42.283 -16.103   6.135  1.00  0.00     0.049 A 
HETATM   14  C   UNL     1      43.391 -15.569   6.797  1.00  0.00     0.101 A 
HETATM   15  C   UNL     1      44.128 -14.561   6.169  1.00  0.00     0.099 A 
HETATM   16  C   UNL     1      43.784 -14.084   4.913  1.00  0.00     0.040 A 
HETATM   17  C   UNL     1      42.675 -14.620   4.259  1.00  0.00     0.012 A 
BRANCH  14  18
HETATM   18  O   UNL     1      43.853 -15.939   8.034  1.00  0.00    -0.353 OA
HETATM   19  C   UNL     1      43.464 -17.227   8.500  1.00  0.00     0.210 C 
ENDBRANCH  14  18
BRANCH  15  20
HETATM   20  O   UNL     1      45.222 -14.020   6.788  1.00  0.00    -0.358 OA
HETATM   21  H   UNL     1      45.987 -14.488   6.400  1.00  0.00     0.218 HD
ENDBRANCH  15  20
ENDBRANCH   7  12
BRANCH   1  22
HETATM   22  C   UNL     1      42.926 -18.557   2.646  1.00  0.00    -0.002 A 
HETATM   23  C   UNL     1      43.235 -18.557   4.015  1.00  0.00     0.050 A 
HETATM   24  C   UNL     1      44.099 -19.510   4.564  1.00  0.00     0.069 A 
HETATM   25  C   UNL     1      44.666 -20.477   3.733  1.00  0.00     0.037 A 
HETATM   26  C   UNL     1      44.377 -20.481   2.367  1.00  0.00     0.004 A 
HETATM   27  C   UNL     1      43.516 -19.525   1.824  1.00  0.00     0.014 A 
BRANCH  24  28
HETATM   28  O   UNL     1      44.305 -19.388   5.911  1.00  0.00    -0.356 OA
HETATM   29  C   UNL     1      43.815 -20.438   6.735  1.00  0.00     0.210 C 
ENDBRANCH  24  28
ENDBRANCH   1  22
TORSDOF 5
ENDMDL
MODEL 4
REMARK VINA RESULT:      -8.4      1.212      2.409
REMARK  5 active torsions:
REMARK  status: ('A' for Active; 'I' for Inactive)
REMARK    1  A    between atoms: O_2  and  C_3 
REMARK    2  A    between atoms: C_5  and  C_6 
REMARK    3  A    between atoms: C_12  and  C_13 
REMARK    4  A    between atoms: C_15  and  O_16 
REMARK    5  A    between atoms: C_18  and  O_19 
ROOT
HETATM    1  C   UNL     1      43.025 -17.732   2.211  1.00  0.00     0.098 A 
HETATM    2  N   UNL     1      43.351 -17.445   0.926  1.00  0.00    -0.173 NA
HETATM    3  N   UNL     1      42.505 -16.456   0.549  1.00  0.00    -0.272 N 
HETATM    4  H   UNL     1      42.566 -16.086  -0.395  1.00  0.00     0.189 HD
HETATM    5  C   UNL     1      41.681 -16.111   1.548  1.00  0.00     0.128 A 
HETATM    6  C   UNL     1      41.983 -16.887   2.630  1.00  0.00     0.034 A 
HETATM    7  C   UNL     1      41.100 -16.535   3.760  1.00  0.00     0.156 A 
HETATM    8  N   UNL     1      40.299 -15.466   3.133  1.00  0.00    -0.343 N 
HETATM    9  C   UNL     1      40.636 -15.198   1.811  1.00  0.00     0.271 A 
HETATM   10  O   UNL     1      40.145 -14.361   1.078  1.00  0.00    -0.266 OA
HETATM   11  H   UNL     1      39.586 -14.937   3.612  1.00  0.00     0.163 HD
ENDROOT
BRANCH   7  12
HETATM   12  C   UNL     1      41.947 -16.038   4.905  1.00  0.00    -0.028 A 
HETATM   13  C   UNL     1      42.148 -16.792   6.083  1.00  0.00     0.049 A 
HETATM   14  C   UNL     1      42.948 -16.307   7.120  1.00  0.00     0.101 A 
HETATM   15  C   UNL     1      43.555 -15.056   6.971  1.00  0.00     0.099 A 
HETATM   16  C   UNL     1      43.379 -14.294   5.826  1.00  0.00     0.040 A 
HETATM   17  C   UNL     1      42.578 -14.784   4.796  1.00  0.00     0.012 A 
BRANCH  14  18
HETATM   18  O   UNL     1      43.215 -16.943   8.304  1.00  0.00    -0.353 OA
HETATM   19  C   UNL     1      43.904 -18.187   8.218  1.00  0.00     0.210 C 
ENDBRANCH  14  18
BRANCH  15  20
HETATM   20  O   UNL     1      44.349 -14.554   7.967  1.00  0.00    -0.358 OA
HETATM   21  H   UNL     1      44.014 -13.648   8.121  1.00  0.00     0.218 HD
ENDBRANCH  15  20
ENDBRANCH   7  12
BRANCH   1  22
HETATM   22  C   UNL     1      43.723 -18.778   2.956  1.00  0.00    -0.002 A 
HETATM   23  C   UNL     1      43.871 -20.060   2.402  1.00  0.00     0.050 A 
HETATM   24  C   UNL     1      44.539 -21.076   3.092  1.00  0.00     0.069 A 
HETATM   25  C   UNL     1      45.069 -20.810   4.355  1.00  0.00     0.037 A 
HETATM   26  C   UNL     1      44.920 -19.543   4.923  1.00  0.00     0.004 A 
HETATM   27  C   UNL     1      44.247 -18.533   4.231  1.00  0.00     0.014 A 
BRANCH  24  28
HETATM   28  O   UNL     1      44.607 -22.270   2.428  1.00  0.00    -0.356 OA
HETATM   29  C   UNL     1      44.079 -22.305   1.109  1.00  0.00     0.210 C 
ENDBRANCH  24  28
ENDBRANCH   1  22
TORSDOF 5
ENDMDL
MODEL 5
REMARK VINA RESULT:      -8.1      2.066      2.875
REMARK  5 active torsions:
REMARK  status: ('A' for Active; 'I' for Inactive)
REMARK    1  A    between atoms: O_2  and  C_3 
REMARK    2  A    between atoms: C_5  and  C_6 
REMARK    3  A    between atoms: C_12  and  C_13 
REMARK    4  A    between atoms: C_15  and  O_16 
REMARK    5  A    between atoms: C_18  and  O_19 
ROOT
HETATM    1  C   UNL     1      43.466 -17.765   2.675  1.00  0.00     0.098 A 
HETATM    2  N   UNL     1      44.363 -17.841   1.661  1.00  0.00    -0.173 NA
HETATM    3  N   UNL     1      43.719 -17.363   0.569  1.00  0.00    -0.272 N 
HETATM    4  H   UNL     1      44.208 -17.335  -0.321  1.00  0.00     0.189 HD
HETATM    5  C   UNL     1      42.469 -16.983   0.867  1.00  0.00     0.128 A 
HETATM    6  C   UNL     1      42.267 -17.207   2.198  1.00  0.00     0.034 A 
HETATM    7  C   UNL     1      40.899 -16.795   2.573  1.00  0.00     0.156 A 
HETATM    8  N   UNL     1      40.411 -16.317   1.266  1.00  0.00    -0.343 N 
HETATM    9  C   UNL     1      41.338 -16.420   0.235  1.00  0.00     0.271 A 
HETATM   10  O   UNL     1      41.196 -16.082  -0.925  1.00  0.00    -0.266 OA
HETATM   11  H   UNL     1      39.498 -15.914   1.114  1.00  0.00     0.163 HD
ENDROOT
BRANCH   7  12
HETATM   12  C   UNL     1      40.985 -15.697   3.605  1.00  0.00    -0.028 A 
HETATM   13  C   UNL     1      41.349 -14.373   3.273  1.00  0.00     0.049 A 
HETATM   14  C   UNL     1      41.409 -13.378   4.251  1.00  0.00     0.101 A 
HETATM   15  C   UNL     1      41.095 -13.713   5.571  1.00  0.00     0.099 A 
HETATM   16  C   UNL     1      40.732 -15.004   5.927  1.00  0.00     0.040 A 
HETATM   17  C   UNL     1      40.676 -15.992   4.945  1.00  0.00     0.012 A 
BRANCH  14  18
HETATM   18  O   UNL     1      41.747 -12.064   4.052  1.00  0.00    -0.353 OA
HETATM   19  C   UNL     1      40.905 -11.313   3.184  1.00  0.00     0.210 C 
ENDBRANCH  14  18
BRANCH  15  20
HETATM   20  O   UNL     1      41.139 -12.760   6.553  1.00  0.00    -0.358 OA
HETATM   21  H   UNL     1      40.684 -13.166   7.316  1.00  0.00     0.218 HD
ENDBRANCH  15  20
ENDBRANCH   7  12
BRANCH   1  22
HETATM   22  C   UNL     1      43.804 -18.215   4.024  1.00  0.00    -0.002 A 
HETATM   23  C   UNL     1      44.073 -19.571   4.268  1.00  0.00     0.050 A 
HETATM   24  C   UNL     1      44.404 -20.027   5.548  1.00  0.00     0.069 A 
HETATM   25  C   UNL     1      44.467 -19.116   6.602  1.00  0.00     0.037 A 
HETATM   26  C   UNL     1      44.190 -17.765   6.376  1.00  0.00     0.004 A 
HETATM   27  C   UNL     1      43.856 -17.317   5.097  1.00  0.00     0.014 A 
BRANCH  24  28
HETATM   28  O   UNL     1      44.642 -21.371   5.633  1.00  0.00    -0.356 OA
HETATM   29  C   UNL     1      44.751 -22.086   4.409  1.00  0.00     0.210 C 
ENDBRANCH  24  28
ENDBRANCH   1  22
TORSDOF 5
ENDMDL
MODEL 6
REMARK VINA RESULT:      -8.1      2.080      2.991
REMARK  5 active torsions:
REMARK  status: ('A' for Active; 'I' for Inactive)
REMARK    1  A    between atoms: O_2  and  C_3 
REMARK    2  A    between atoms: C_5  and  C_6 
REMARK    3  A    between atoms: C_12  and  C_13 
REMARK    4  A    between atoms: C_15  and  O_16 
REMARK    5  A    between atoms: C_18  and  O_19 
ROOT
HETATM    1  C   UNL     1      43.436 -17.805   2.704  1.00  0.00     0.098 A 
HETATM    2  N   UNL     1      44.340 -17.889   1.696  1.00  0.00    -0.173 NA
HETATM    3  N   UNL     1      43.706 -17.409   0.599  1.00  0.00    -0.272 N 
HETATM    4  H   UNL     1      44.200 -17.385  -0.287  1.00  0.00     0.189 HD
HETATM    5  C   UNL     1      42.456 -17.019   0.888  1.00  0.00     0.128 A 
HETATM    6  C   UNL     1      42.244 -17.241   2.219  1.00  0.00     0.034 A 
HETATM    7  C   UNL     1      40.876 -16.819   2.584  1.00  0.00     0.156 A 
HETATM    8  N   UNL     1      40.400 -16.339   1.273  1.00  0.00    -0.343 N 
HETATM    9  C   UNL     1      41.333 -16.450   0.248  1.00  0.00     0.271 A 
HETATM   10  O   UNL     1      41.201 -16.114  -0.913  1.00  0.00    -0.266 OA
HETATM   11  H   UNL     1      39.491 -15.931   1.114  1.00  0.00     0.163 HD
ENDROOT
BRANCH   7  12
HETATM   12  C   UNL     1      40.963 -15.720   3.614  1.00  0.00    -0.028 A 
HETATM   13  C   UNL     1      41.364 -14.405   3.288  1.00  0.00     0.049 A 
HETATM   14  C   UNL     1      41.422 -13.409   4.264  1.00  0.00     0.101 A 
HETATM   15  C   UNL     1      41.071 -13.733   5.578  1.00  0.00     0.099 A 
HETATM   16  C   UNL     1      40.672 -15.014   5.929  1.00  0.00     0.040 A 
HETATM   17  C   UNL     1      40.617 -16.005   4.949  1.00  0.00     0.012 A 
BRANCH  14  18
HETATM   18  O   UNL     1      41.794 -12.103   4.070  1.00  0.00    -0.353 OA
HETATM   19  C   UNL     1      40.908 -11.296   3.302  1.00  0.00     0.210 C 
ENDBRANCH  14  18
BRANCH  15  20
HETATM   20  O   UNL     1      41.114 -12.778   6.558  1.00  0.00    -0.358 OA
HETATM   21  H   UNL     1      41.671 -12.065   6.188  1.00  0.00     0.218 HD
ENDBRANCH  15  20
ENDBRANCH   7  12
BRANCH   1  22
HETATM   22  C   UNL     1      43.763 -18.256   4.056  1.00  0.00    -0.002 A 
HETATM   23  C   UNL     1      43.777 -17.340   5.120  1.00  0.00     0.050 A 
HETATM   24  C   UNL     1      44.080 -17.747   6.423  1.00  0.00     0.069 A 
HETATM   25  C   UNL     1      44.375 -19.088   6.669  1.00  0.00     0.037 A 
HETATM   26  C   UNL     1      44.375 -20.008   5.618  1.00  0.00     0.004 A 
HETATM   27  C   UNL     1      44.076 -19.595   4.318  1.00  0.00     0.014 A 
BRANCH  24  28
HETATM   28  O   UNL     1      44.054 -16.747   7.356  1.00  0.00    -0.356 OA
HETATM   29  C   UNL     1      44.230 -15.418   6.882  1.00  0.00     0.210 C 
ENDBRANCH  24  28
ENDBRANCH   1  22
TORSDOF 5
ENDMDL
MODEL 7
REMARK VINA RESULT:      -8.0      2.800      5.313
REMARK  5 active torsions:
REMARK  status: ('A' for Active; 'I' for Inactive)
REMARK    1  A    between atoms: O_2  and  C_3 
REMARK    2  A    between atoms: C_5  and  C_6 
REMARK    3  A    between atoms: C_12  and  C_13 
REMARK    4  A    between atoms: C_15  and  O_16 
REMARK    5  A    between atoms: C_18  and  O_19 
ROOT
HETATM    1  C   UNL     1      41.447 -16.796   4.810  1.00  0.00     0.098 A 
HETATM    2  N   UNL     1      40.744 -17.269   5.870  1.00  0.00    -0.173 NA
HETATM    3  N   UNL     1      40.161 -16.183   6.433  1.00  0.00    -0.272 N 
HETATM    4  H   UNL     1      39.584 -16.305   7.260  1.00  0.00     0.189 HD
HETATM    5  C   UNL     1      40.461 -15.063   5.761  1.00  0.00     0.128 A 
HETATM    6  C   UNL     1      41.267 -15.405   4.713  1.00  0.00     0.034 A 
HETATM    7  C   UNL     1      41.618 -14.198   3.938  1.00  0.00     0.156 A 
HETATM    8  N   UNL     1      40.886 -13.177   4.711  1.00  0.00    -0.343 N 
HETATM    9  C   UNL     1      40.186 -13.679   5.803  1.00  0.00     0.271 A 
HETATM   10  O   UNL     1      39.494 -13.058   6.587  1.00  0.00    -0.266 OA
HETATM   11  H   UNL     1      40.852 -12.198   4.469  1.00  0.00     0.163 HD
ENDROOT
BRANCH   7  12
HETATM   12  C   UNL     1      41.098 -14.352   2.530  1.00  0.00    -0.028 A 
HETATM   13  C   UNL     1      39.723 -14.258   2.215  1.00  0.00     0.049 A 
HETATM   14  C   UNL     1      39.276 -14.395   0.900  1.00  0.00     0.101 A 
HETATM   15  C   UNL     1      40.216 -14.624  -0.109  1.00  0.00     0.099 A 
HETATM   16  C   UNL     1      41.572 -14.719   0.168  1.00  0.00     0.040 A 
HETATM   17  C   UNL     1      42.011 -14.583   1.484  1.00  0.00     0.012 A 
BRANCH  14  18
HETATM   18  O   UNL     1      37.975 -14.324   0.474  1.00  0.00    -0.353 OA
HETATM   19  C   UNL     1      37.328 -13.063   0.610  1.00  0.00     0.210 C 
ENDBRANCH  14  18
BRANCH  15  20
HETATM   20  O   UNL     1      39.812 -14.758  -1.410  1.00  0.00    -0.358 OA
HETATM   21  H   UNL     1      40.163 -13.967  -1.864  1.00  0.00     0.218 HD
ENDBRANCH  15  20
ENDBRANCH   7  12
BRANCH   1  22
HETATM   22  C   UNL     1      42.232 -17.688   3.960  1.00  0.00    -0.002 A 
HETATM   23  C   UNL     1      43.310 -18.408   4.500  1.00  0.00     0.050 A 
HETATM   24  C   UNL     1      44.074 -19.273   3.709  1.00  0.00     0.069 A 
HETATM   25  C   UNL     1      43.758 -19.421   2.359  1.00  0.00     0.037 A 
HETATM   26  C   UNL     1      42.695 -18.703   1.806  1.00  0.00     0.004 A 
HETATM   27  C   UNL     1      41.939 -17.838   2.600  1.00  0.00     0.014 A 
BRANCH  24  28
HETATM   28  O   UNL     1      45.089 -19.907   4.371  1.00  0.00    -0.356 OA
HETATM   29  C   UNL     1      44.785 -21.161   4.969  1.00  0.00     0.210 C 
ENDBRANCH  24  28
ENDBRANCH   1  22
TORSDOF 5
ENDMDL
MODEL 8
REMARK VINA RESULT:      -7.9      2.820      5.225
REMARK  5 active torsions:
REMARK  status: ('A' for Active; 'I' for Inactive)
REMARK    1  A    between atoms: O_2  and  C_3 
REMARK    2  A    between atoms: C_5  and  C_6 
REMARK    3  A    between atoms: C_12  and  C_13 
REMARK    4  A    between atoms: C_15  and  O_16 
REMARK    5  A    between atoms: C_18  and  O_19 
ROOT
HETATM    1  C   UNL     1      41.398 -16.659   4.791  1.00  0.00     0.098 A 
HETATM    2  N   UNL     1      40.703 -17.163   5.841  1.00  0.00    -0.173 NA
HETATM    3  N   UNL     1      40.109 -16.097   6.429  1.00  0.00    -0.272 N 
HETATM    4  H   UNL     1      39.534 -16.243   7.254  1.00  0.00     0.189 HD
HETATM    5  C   UNL     1      40.395 -14.959   5.781  1.00  0.00     0.128 A 
HETATM    6  C   UNL     1      41.202 -15.269   4.724  1.00  0.00     0.034 A 
HETATM    7  C   UNL     1      41.538 -14.041   3.975  1.00  0.00     0.156 A 
HETATM    8  N   UNL     1      40.795 -13.046   4.772  1.00  0.00    -0.343 N 
HETATM    9  C   UNL     1      40.104 -13.579   5.854  1.00  0.00     0.271 A 
HETATM   10  O   UNL     1      39.406 -12.983   6.652  1.00  0.00    -0.266 OA
HETATM   11  H   UNL     1      40.750 -12.062   4.552  1.00  0.00     0.163 HD
ENDROOT
BRANCH   7  12
HETATM   12  C   UNL     1      41.016 -14.170   2.565  1.00  0.00    -0.028 A 
HETATM   13  C   UNL     1      41.822 -13.916   1.433  1.00  0.00     0.049 A 
HETATM   14  C   UNL     1      41.310 -14.056   0.141  1.00  0.00     0.101 A 
HETATM   15  C   UNL     1      39.981 -14.460  -0.016  1.00  0.00     0.099 A 
HETATM   16  C   UNL     1      39.166 -14.719   1.077  1.00  0.00     0.040 A 
HETATM   17  C   UNL     1      39.684 -14.575   2.364  1.00  0.00     0.012 A 
BRANCH  14  18
HETATM   18  O   UNL     1      41.991 -13.839  -1.029  1.00  0.00    -0.353 OA
HETATM   19  C   UNL     1      42.328 -12.489  -1.330  1.00  0.00     0.210 C 
ENDBRANCH  14  18
BRANCH  15  20
HETATM   20  O   UNL     1      39.450 -14.611  -1.268  1.00  0.00    -0.358 OA
HETATM   21  H   UNL     1      39.350 -13.700  -1.609  1.00  0.00     0.218 HD
ENDBRANCH  15  20
ENDBRANCH   7  12
BRANCH   1  22
HETATM   22  C   UNL     1      42.192 -17.524   3.920  1.00  0.00    -0.002 A 
HETATM   23  C   UNL     1      43.220 -18.314   4.459  1.00  0.00     0.050 A 
HETATM   24  C   UNL     1      43.990 -19.153   3.648  1.00  0.00     0.069 A 
HETATM   25  C   UNL     1      43.732 -19.205   2.278  1.00  0.00     0.037 A 
HETATM   26  C   UNL     1      42.720 -18.416   1.727  1.00  0.00     0.004 A 
HETATM   27  C   UNL     1      41.957 -17.576   2.541  1.00  0.00     0.014 A 
BRANCH  24  28
HETATM   28  O   UNL     1      44.953 -19.864   4.311  1.00  0.00    -0.356 OA
HETATM   29  C   UNL     1      44.807 -21.278   4.337  1.00  0.00     0.210 C 
ENDBRANCH  24  28
ENDBRANCH   1  22
TORSDOF 5
ENDMDL
MODEL 9
REMARK VINA RESULT:      -7.9      2.255      6.306
REMARK  5 active torsions:
REMARK  status: ('A' for Active; 'I' for Inactive)
REMARK    1  A    between atoms: O_2  and  C_3 
REMARK    2  A    between atoms: C_5  and  C_6 
REMARK    3  A    between atoms: C_12  and  C_13 
REMARK    4  A    between atoms: C_15  and  O_16 
REMARK    5  A    between atoms: C_18  and  O_19 
ROOT
HETATM    1  C   UNL     1      42.411 -15.195   4.664  1.00  0.00     0.098 A 
HETATM    2  N   UNL     1      42.999 -14.096   5.200  1.00  0.00    -0.173 NA
HETATM    3  N   UNL     1      43.377 -14.458   6.449  1.00  0.00    -0.272 N 
HETATM    4  H   UNL     1      43.839 -13.777   7.044  1.00  0.00     0.189 HD
HETATM    5  C   UNL     1      43.061 -15.736   6.704  1.00  0.00     0.128 A 
HETATM    6  C   UNL     1      42.456 -16.249   5.593  1.00  0.00     0.034 A 
HETATM    7  C   UNL     1      42.094 -17.662   5.828  1.00  0.00     0.156 A 
HETATM    8  N   UNL     1      42.596 -17.826   7.206  1.00  0.00    -0.343 N 
HETATM    9  C   UNL     1      43.179 -16.684   7.743  1.00  0.00     0.271 A 
HETATM   10  O   UNL     1      43.683 -16.559   8.844  1.00  0.00    -0.266 OA
HETATM   11  H   UNL     1      42.561 -18.692   7.722  1.00  0.00     0.163 HD
ENDROOT
BRANCH   7  12
HETATM   12  C   UNL     1      42.826 -18.525   4.830  1.00  0.00    -0.028 A 
HETATM   13  C   UNL     1      43.850 -19.422   5.211  1.00  0.00     0.049 A 
HETATM   14  C   UNL     1      44.499 -20.215   4.263  1.00  0.00     0.101 A 
HETATM   15  C   UNL     1      44.114 -20.111   2.923  1.00  0.00     0.099 A 
HETATM   16  C   UNL     1      43.112 -19.242   2.519  1.00  0.00     0.040 A 
HETATM   17  C   UNL     1      42.469 -18.452   3.471  1.00  0.00     0.012 A 
BRANCH  14  18
HETATM   18  O   UNL     1      45.502 -21.117   4.509  1.00  0.00    -0.353 OA
HETATM   19  C   UNL     1      45.127 -22.324   5.164  1.00  0.00     0.210 C 
ENDBRANCH  14  18
BRANCH  15  20
HETATM   20  O   UNL     1      44.728 -20.878   1.969  1.00  0.00    -0.358 OA
HETATM   21  H   UNL     1      45.240 -21.541   2.472  1.00  0.00     0.218 HD
ENDBRANCH  15  20
ENDBRANCH   7  12
BRANCH   1  22
HETATM   22  C   UNL     1      41.855 -15.176   3.313  1.00  0.00    -0.002 A 
HETATM   23  C   UNL     1      40.464 -15.205   3.123  1.00  0.00     0.050 A 
HETATM   24  C   UNL     1      39.906 -15.182   1.840  1.00  0.00     0.069 A 
HETATM   25  C   UNL     1      40.749 -15.131   0.730  1.00  0.00     0.037 A 
HETATM   26  C   UNL     1      42.135 -15.114   0.904  1.00  0.00     0.004 A 
HETATM   27  C   UNL     1      42.686 -15.141   2.187  1.00  0.00     0.014 A 
BRANCH  24  28
HETATM   28  O   UNL     1      38.539 -15.212   1.810  1.00  0.00    -0.356 OA
HETATM   29  C   UNL     1      37.890 -14.234   1.008  1.00  0.00     0.210 C 
ENDBRANCH  24  28
ENDBRANCH   1  22
TORSDOF 5
ENDMDL
MODEL 10
REMARK VINA RESULT:      -7.6      2.487      5.457
REMARK  5 active torsions:
REMARK  status: ('A' for Active; 'I' for Inactive)
REMARK    1  A    between atoms: O_2  and  C_3 
REMARK    2  A    between atoms: C_5  and  C_6 
REMARK    3  A    between atoms: C_12  and  C_13 
REMARK    4  A    between atoms: C_15  and  O_16 
REMARK    5  A    between atoms: C_18  and  O_19 
ROOT
HETATM    1  C   UNL     1      41.701 -16.445   2.827  1.00  0.00     0.098 A 
HETATM    2  N   UNL     1      40.727 -16.949   2.029  1.00  0.00    -0.173 NA
HETATM    3  N   UNL     1      41.169 -18.170   1.643  1.00  0.00    -0.272 N 
HETATM    4  H   UNL     1      40.591 -18.733   1.025  1.00  0.00     0.189 HD
HETATM    5  C   UNL     1      42.366 -18.448   2.177  1.00  0.00     0.128 A 
HETATM    6  C   UNL     1      42.739 -17.385   2.948  1.00  0.00     0.034 A 
HETATM    7  C   UNL     1      44.055 -17.651   3.564  1.00  0.00     0.156 A 
HETATM    8  N   UNL     1      44.321 -18.997   3.022  1.00  0.00    -0.343 N 
HETATM    9  C   UNL     1      43.320 -19.489   2.193  1.00  0.00     0.271 A 
HETATM   10  O   UNL     1      43.285 -20.571   1.637  1.00  0.00    -0.266 OA
HETATM   11  H   UNL     1      45.137 -19.548   3.246  1.00  0.00     0.163 HD
ENDROOT
BRANCH   7  12
HETATM   12  C   UNL     1      43.903 -17.643   5.066  1.00  0.00    -0.028 A 
HETATM   13  C   UNL     1      43.910 -18.829   5.834  1.00  0.00     0.049 A 
HETATM   14  C   UNL     1      43.777 -18.785   7.224  1.00  0.00     0.101 A 
HETATM   15  C   UNL     1      43.641 -17.541   7.847  1.00  0.00     0.099 A 
HETATM   16  C   UNL     1      43.632 -16.360   7.119  1.00  0.00     0.040 A 
HETATM   17  C   UNL     1      43.763 -16.412   5.732  1.00  0.00     0.012 A 
BRANCH  14  18
HETATM   18  O   UNL     1      43.770 -19.861   8.072  1.00  0.00    -0.353 OA
HETATM   19  C   UNL     1      43.455 -21.125   7.498  1.00  0.00     0.210 C 
ENDBRANCH  14  18
BRANCH  15  20
HETATM   20  O   UNL     1      43.513 -17.462   9.208  1.00  0.00    -0.358 OA
HETATM   21  H   UNL     1      44.203 -16.829   9.488  1.00  0.00     0.218 HD
ENDBRANCH  15  20
ENDBRANCH   7  12
BRANCH   1  22
HETATM   22  C   UNL     1      41.582 -15.116   3.424  1.00  0.00    -0.002 A 
HETATM   23  C   UNL     1      40.508 -14.821   4.279  1.00  0.00     0.050 A 
HETATM   24  C   UNL     1      40.375 -13.559   4.867  1.00  0.00     0.069 A 
HETATM   25  C   UNL     1      41.327 -12.576   4.598  1.00  0.00     0.037 A 
HETATM   26  C   UNL     1      42.395 -12.853   3.742  1.00  0.00     0.004 A 
HETATM   27  C   UNL     1      42.520 -14.113   3.154  1.00  0.00     0.014 A 
BRANCH  24  28
HETATM   28  O   UNL     1      39.281 -13.418   5.677  1.00  0.00    -0.356 OA
HETATM   29  C   UNL     1      39.390 -12.493   6.751  1.00  0.00     0.210 C 
ENDBRANCH  24  28
ENDBRANCH   1  22
TORSDOF 5
ENDMDL
