MODEL 1
REMARK VINA RESULT:      -8.2      0.000      0.000
REMARK  8 active torsions:
REMARK  status: ('A' for Active; 'I' for Inactive)
REMARK    1  A    between atoms: O_2  and  C_3 
REMARK    2  A    between atoms: C_6  and  N_7 
REMARK    3  A    between atoms: N_7  and  C_8 
REMARK    4  A    between atoms: C_8  and  C_9 
REMARK    5  A    between atoms: C_9  and  C_10 
REMARK    6  A    between atoms: C_10  and  C_11 
REMARK       I    between atoms: C_11  and  N_12 
REMARK    7  A    between atoms: N_12  and  N_13 
REMARK    8  A    between atoms: C_14  and  C_15 
ROOT
HETATM    1  C   UNL     1      44.711 -13.525   7.457  1.00  0.00     0.237 C 
HETATM    2  N   UNL     1      43.772 -14.514   7.194  1.00  0.00    -0.247 N 
HETATM    3  O   UNL     1      45.844 -13.486   6.987  1.00  0.00    -0.272 OA
HETATM    4  H   UNL     1      42.848 -14.484   7.607  1.00  0.00     0.192 HD
ENDROOT
BRANCH   1   5
HETATM    5  C   UNL     1      44.184 -12.468   8.411  1.00  0.00     0.106 C 
BRANCH   5   6
HETATM    6  C   UNL     1      45.261 -12.028   9.401  1.00  0.00     0.029 C 
BRANCH   6   7
HETATM    7  C   UNL     1      44.831 -12.223  10.853  1.00  0.00     0.120 C 
BRANCH   7   8
HETATM    8  N   UNL     1      43.392 -12.015  10.950  1.00  0.00    -0.390 N 
HETATM    9  H   UNL     1      42.857 -12.876  10.856  1.00  0.00     0.159 HD
BRANCH   8  10
HETATM   10  C   UNL     1      42.857 -11.180  11.932  1.00  0.00     0.028 A 
HETATM   11  C   UNL     1      41.589 -11.353  12.495  1.00  0.00     0.032 A 
HETATM   12  C   UNL     1      41.135 -10.535  13.541  1.00  0.00     0.039 A 
HETATM   13  C   UNL     1      41.957  -9.538  14.061  1.00  0.00     0.068 A 
HETATM   14  C   UNL     1      43.235  -9.375  13.531  1.00  0.00     0.039 A 
HETATM   15  C   UNL     1      43.683 -10.197  12.493  1.00  0.00     0.032 A 
BRANCH  13  16
HETATM   16  O   UNL     1      41.643  -8.676  15.075  1.00  0.00    -0.356 OA
HETATM   17  C   UNL     1      42.157  -8.988  16.364  1.00  0.00     0.210 C 
ENDBRANCH  13  16
ENDBRANCH   8  10
ENDBRANCH   7   8
ENDBRANCH   6   7
ENDBRANCH   5   6
ENDBRANCH   1   5
BRANCH   2  18
HETATM   18  N   UNL     1      44.116 -15.550   6.375  1.00  0.00    -0.184 NA
HETATM   19  C   UNL     1      43.626 -16.711   6.665  1.00  0.00     0.152 C 
BRANCH  19  20
HETATM   20  C   UNL     1      43.973 -17.845   5.834  1.00  0.00     0.011 A 
HETATM   21  C   UNL     1      43.793 -17.988   4.421  1.00  0.00     0.004 A 
HETATM   22  C   UNL     1      44.271 -19.253   4.065  1.00  0.00     0.043 A 
HETATM   23  C   UNL     1      43.271 -17.163   3.402  1.00  0.00     0.014 A 
HETATM   24  C   UNL     1      44.251 -19.732   2.751  1.00  0.00     0.030 A 
HETATM   25  N   UNL     1      44.725 -19.854   5.216  1.00  0.00    -0.364 N 
HETATM   26  C   UNL     1      43.727 -18.894   1.763  1.00  0.00     0.002 A 
HETATM   27  C   UNL     1      43.244 -17.627   2.081  1.00  0.00     0.001 A 
HETATM   28  H   UNL     1      45.127 -20.780   5.262  1.00  0.00     0.165 HD
HETATM   29  C   UNL     1      44.552 -19.019   6.283  1.00  0.00     0.102 A 
ENDBRANCH  19  20
ENDBRANCH   2  18
TORSDOF 8
ENDMDL
MODEL 2
REMARK VINA RESULT:      -8.1      8.256     10.956
REMARK  8 active torsions:
REMARK  status: ('A' for Active; 'I' for Inactive)
REMARK    1  A    between atoms: O_2  and  C_3 
REMARK    2  A    between atoms: C_6  and  N_7 
REMARK    3  A    between atoms: N_7  and  C_8 
REMARK    4  A    between atoms: C_8  and  C_9 
REMARK    5  A    between atoms: C_9  and  C_10 
REMARK    6  A    between atoms: C_10  and  C_11 
REMARK       I    between atoms: C_11  and  N_12 
REMARK    7  A    between atoms: N_12  and  N_13 
REMARK    8  A    between atoms: C_14  and  C_15 
ROOT
HETATM    1  C   UNL     1      40.956 -15.140   0.220  1.00  0.00     0.237 C 
HETATM    2  N   UNL     1      42.089 -15.900  -0.039  1.00  0.00    -0.247 N 
HETATM    3  O   UNL     1      40.530 -14.867   1.338  1.00  0.00    -0.272 OA
HETATM    4  H   UNL     1      42.394 -16.082  -0.987  1.00  0.00     0.192 HD
ENDROOT
BRANCH   1   5
HETATM    5  C   UNL     1      40.275 -14.669  -1.053  1.00  0.00     0.106 C 
BRANCH   5   6
HETATM    6  C   UNL     1      40.883 -15.335  -2.286  1.00  0.00     0.029 C 
BRANCH   6   7
HETATM    7  C   UNL     1      41.076 -14.354  -3.441  1.00  0.00     0.120 C 
BRANCH   7   8
HETATM    8  N   UNL     1      42.420 -13.798  -3.367  1.00  0.00    -0.390 N 
HETATM    9  H   UNL     1      43.017 -14.090  -4.139  1.00  0.00     0.159 HD
BRANCH   8  10
HETATM   10  C   UNL     1      42.620 -12.455  -3.041  1.00  0.00     0.028 A 
HETATM   11  C   UNL     1      42.448 -11.401  -3.943  1.00  0.00     0.032 A 
HETATM   12  C   UNL     1      42.578 -10.064  -3.538  1.00  0.00     0.039 A 
HETATM   13  C   UNL     1      42.859  -9.755  -2.209  1.00  0.00     0.068 A 
HETATM   14  C   UNL     1      43.001 -10.795  -1.293  1.00  0.00     0.039 A 
HETATM   15  C   UNL     1      42.865 -12.125  -1.701  1.00  0.00     0.032 A 
BRANCH  13  16
HETATM   16  O   UNL     1      43.009  -8.502  -1.682  1.00  0.00    -0.356 OA
HETATM   17  C   UNL     1      44.281  -8.185  -1.132  1.00  0.00     0.210 C 
ENDBRANCH  13  16
ENDBRANCH   8  10
ENDBRANCH   7   8
ENDBRANCH   6   7
ENDBRANCH   5   6
ENDBRANCH   1   5
BRANCH   2  18
HETATM   18  N   UNL     1      42.790 -16.420   1.011  1.00  0.00    -0.184 NA
HETATM   19  C   UNL     1      42.529 -17.643   1.339  1.00  0.00     0.152 C 
BRANCH  19  20
HETATM   20  C   UNL     1      43.235 -18.235   2.455  1.00  0.00     0.011 A 
HETATM   21  C   UNL     1      43.654 -19.596   2.609  1.00  0.00     0.004 A 
HETATM   22  C   UNL     1      44.292 -19.699   3.849  1.00  0.00     0.043 A 
HETATM   23  C   UNL     1      43.554 -20.757   1.813  1.00  0.00     0.014 A 
HETATM   24  C   UNL     1      44.831 -20.897   4.331  1.00  0.00     0.030 A 
HETATM   25  N   UNL     1      44.265 -18.450   4.424  1.00  0.00    -0.364 N 
HETATM   26  C   UNL     1      44.717 -22.030   3.521  1.00  0.00     0.002 A 
HETATM   27  C   UNL     1      44.090 -21.964   2.281  1.00  0.00     0.001 A 
HETATM   28  H   UNL     1      44.655 -18.224   5.329  1.00  0.00     0.165 HD
HETATM   29  C   UNL     1      43.634 -17.564   3.597  1.00  0.00     0.102 A 
ENDBRANCH  19  20
ENDBRANCH   2  18
TORSDOF 8
ENDMDL
MODEL 3
REMARK VINA RESULT:      -8.0      5.391      7.255
REMARK  8 active torsions:
REMARK  status: ('A' for Active; 'I' for Inactive)
REMARK    1  A    between atoms: O_2  and  C_3 
REMARK    2  A    between atoms: C_6  and  N_7 
REMARK    3  A    between atoms: N_7  and  C_8 
REMARK    4  A    between atoms: C_8  and  C_9 
REMARK    5  A    between atoms: C_9  and  C_10 
REMARK    6  A    between atoms: C_10  and  C_11 
REMARK       I    between atoms: C_11  and  N_12 
REMARK    7  A    between atoms: N_12  and  N_13 
REMARK    8  A    between atoms: C_14  and  C_15 
ROOT
HETATM    1  C   UNL     1      40.713 -16.127   1.486  1.00  0.00     0.237 C 
HETATM    2  N   UNL     1      42.062 -16.449   1.555  1.00  0.00    -0.247 N 
HETATM    3  O   UNL     1      39.817 -16.713   2.085  1.00  0.00    -0.272 OA
HETATM    4  H   UNL     1      42.756 -15.919   1.040  1.00  0.00     0.192 HD
ENDROOT
BRANCH   1   5
HETATM    5  C   UNL     1      40.449 -14.947   0.567  1.00  0.00     0.106 C 
BRANCH   5   6
HETATM    6  C   UNL     1      39.403 -14.005   1.163  1.00  0.00     0.029 C 
BRANCH   6   7
HETATM    7  C   UNL     1      39.982 -13.114   2.261  1.00  0.00     0.120 C 
BRANCH   7   8
HETATM    8  N   UNL     1      39.756 -13.751   3.552  1.00  0.00    -0.390 N 
HETATM    9  H   UNL     1      39.048 -14.482   3.519  1.00  0.00     0.159 HD
BRANCH   8  10
HETATM   10  C   UNL     1      40.830 -14.109   4.368  1.00  0.00     0.028 A 
HETATM   11  C   UNL     1      40.815 -15.202   5.239  1.00  0.00     0.032 A 
HETATM   12  C   UNL     1      41.954 -15.569   5.973  1.00  0.00     0.039 A 
HETATM   13  C   UNL     1      43.143 -14.858   5.828  1.00  0.00     0.068 A 
HETATM   14  C   UNL     1      43.181 -13.786   4.939  1.00  0.00     0.039 A 
HETATM   15  C   UNL     1      42.045 -13.430   4.207  1.00  0.00     0.032 A 
BRANCH  13  16
HETATM   16  O   UNL     1      44.320 -15.108   6.476  1.00  0.00    -0.356 OA
HETATM   17  C   UNL     1      44.991 -13.989   7.042  1.00  0.00     0.210 C 
ENDBRANCH  13  16
ENDBRANCH   8  10
ENDBRANCH   7   8
ENDBRANCH   6   7
ENDBRANCH   5   6
ENDBRANCH   1   5
BRANCH   2  18
HETATM   18  N   UNL     1      42.450 -17.511   2.319  1.00  0.00    -0.184 NA
HETATM   19  C   UNL     1      43.520 -17.361   3.029  1.00  0.00     0.152 C 
BRANCH  19  20
HETATM   20  C   UNL     1      43.981 -18.465   3.845  1.00  0.00     0.011 A 
HETATM   21  C   UNL     1      44.143 -19.835   3.462  1.00  0.00     0.004 A 
HETATM   22  C   UNL     1      44.604 -20.530   4.583  1.00  0.00     0.043 A 
HETATM   23  C   UNL     1      43.944 -20.557   2.265  1.00  0.00     0.014 A 
HETATM   24  C   UNL     1      44.873 -21.903   4.570  1.00  0.00     0.030 A 
HETATM   25  N   UNL     1      44.720 -19.619   5.607  1.00  0.00    -0.364 N 
HETATM   26  C   UNL     1      44.667 -22.593   3.372  1.00  0.00     0.002 A 
HETATM   27  C   UNL     1      44.209 -21.932   2.235  1.00  0.00     0.001 A 
HETATM   28  H   UNL     1      45.033 -19.840   6.542  1.00  0.00     0.165 HD
HETATM   29  C   UNL     1      44.349 -18.377   5.175  1.00  0.00     0.102 A 
ENDBRANCH  19  20
ENDBRANCH   2  18
TORSDOF 8
ENDMDL
MODEL 4
REMARK VINA RESULT:      -7.9      1.716      2.319
REMARK  8 active torsions:
REMARK  status: ('A' for Active; 'I' for Inactive)
REMARK    1  A    between atoms: O_2  and  C_3 
REMARK    2  A    between atoms: C_6  and  N_7 
REMARK    3  A    between atoms: N_7  and  C_8 
REMARK    4  A    between atoms: C_8  and  C_9 
REMARK    5  A    between atoms: C_9  and  C_10 
REMARK    6  A    between atoms: C_10  and  C_11 
REMARK       I    between atoms: C_11  and  N_12 
REMARK    7  A    between atoms: N_12  and  N_13 
REMARK    8  A    between atoms: C_14  and  C_15 
ROOT
HETATM    1  C   UNL     1      44.739 -13.722   7.138  1.00  0.00     0.237 C 
HETATM    2  N   UNL     1      43.565 -14.442   6.959  1.00  0.00    -0.247 N 
HETATM    3  O   UNL     1      45.632 -13.610   6.303  1.00  0.00    -0.272 OA
HETATM    4  H   UNL     1      42.861 -14.488   7.686  1.00  0.00     0.192 HD
ENDROOT
BRANCH   1   5
HETATM    5  C   UNL     1      44.812 -13.069   8.507  1.00  0.00     0.106 C 
BRANCH   5   6
HETATM    6  C   UNL     1      46.036 -12.163   8.624  1.00  0.00     0.029 C 
BRANCH   6   7
HETATM    7  C   UNL     1      45.808 -10.999   9.586  1.00  0.00     0.120 C 
BRANCH   7   8
HETATM    8  N   UNL     1      44.960 -11.451  10.680  1.00  0.00    -0.390 N 
HETATM    9  H   UNL     1      45.485 -11.859  11.451  1.00  0.00     0.159 HD
BRANCH   8  10
HETATM   10  C   UNL     1      43.904 -10.662  11.138  1.00  0.00     0.028 A 
HETATM   11  C   UNL     1      43.828 -10.136  12.431  1.00  0.00     0.032 A 
HETATM   12  C   UNL     1      42.785  -9.276  12.811  1.00  0.00     0.039 A 
HETATM   13  C   UNL     1      41.807  -8.907  11.890  1.00  0.00     0.068 A 
HETATM   14  C   UNL     1      41.888  -9.398  10.589  1.00  0.00     0.039 A 
HETATM   15  C   UNL     1      42.932 -10.249  10.215  1.00  0.00     0.032 A 
BRANCH  13  16
HETATM   16  O   UNL     1      40.744  -8.080  12.125  1.00  0.00    -0.356 OA
HETATM   17  C   UNL     1      40.119  -8.185  13.398  1.00  0.00     0.210 C 
ENDBRANCH  13  16
ENDBRANCH   8  10
ENDBRANCH   7   8
ENDBRANCH   6   7
ENDBRANCH   5   6
ENDBRANCH   1   5
BRANCH   2  18
HETATM   18  N   UNL     1      43.372 -15.111   5.785  1.00  0.00    -0.184 NA
HETATM   19  C   UNL     1      43.381 -16.402   5.840  1.00  0.00     0.152 C 
BRANCH  19  20
HETATM   20  C   UNL     1      43.196 -17.157   4.618  1.00  0.00     0.011 A 
HETATM   21  C   UNL     1      43.778 -18.417   4.266  1.00  0.00     0.004 A 
HETATM   22  C   UNL     1      43.314 -18.749   2.990  1.00  0.00     0.043 A 
HETATM   23  C   UNL     1      44.657 -19.314   4.909  1.00  0.00     0.014 A 
HETATM   24  C   UNL     1      43.684 -19.925   2.327  1.00  0.00     0.030 A 
HETATM   25  N   UNL     1      42.481 -17.733   2.584  1.00  0.00    -0.364 N 
HETATM   26  C   UNL     1      44.556 -20.794   2.988  1.00  0.00     0.002 A 
HETATM   27  C   UNL     1      45.036 -20.496   4.260  1.00  0.00     0.001 A 
HETATM   28  H   UNL     1      42.000 -17.703   1.695  1.00  0.00     0.165 HD
HETATM   29  C   UNL     1      42.402 -16.773   3.553  1.00  0.00     0.102 A 
ENDBRANCH  19  20
ENDBRANCH   2  18
TORSDOF 8
ENDMDL
MODEL 5
REMARK VINA RESULT:      -7.7      7.610     10.560
REMARK  8 active torsions:
REMARK  status: ('A' for Active; 'I' for Inactive)
REMARK    1  A    between atoms: O_2  and  C_3 
REMARK    2  A    between atoms: C_6  and  N_7 
REMARK    3  A    between atoms: N_7  and  C_8 
REMARK    4  A    between atoms: C_8  and  C_9 
REMARK    5  A    between atoms: C_9  and  C_10 
REMARK    6  A    between atoms: C_10  and  C_11 
REMARK       I    between atoms: C_11  and  N_12 
REMARK    7  A    between atoms: N_12  and  N_13 
REMARK    8  A    between atoms: C_14  and  C_15 
ROOT
HETATM    1  C   UNL     1      40.417 -15.369   2.888  1.00  0.00     0.237 C 
HETATM    2  N   UNL     1      41.200 -15.368   4.034  1.00  0.00    -0.247 N 
HETATM    3  O   UNL     1      40.196 -16.351   2.185  1.00  0.00    -0.272 OA
HETATM    4  H   UNL     1      41.337 -14.524   4.577  1.00  0.00     0.192 HD
ENDROOT
BRANCH   1   5
HETATM    5  C   UNL     1      39.847 -13.996   2.579  1.00  0.00     0.106 C 
BRANCH   5   6
HETATM    6  C   UNL     1      40.946 -12.935   2.541  1.00  0.00     0.029 C 
BRANCH   6   7
HETATM    7  C   UNL     1      42.044 -13.272   1.534  1.00  0.00     0.120 C 
BRANCH   7   8
HETATM    8  N   UNL     1      41.703 -12.677   0.249  1.00  0.00    -0.390 N 
HETATM    9  H   UNL     1      42.331 -11.922  -0.022  1.00  0.00     0.159 HD
BRANCH   8  10
HETATM   10  C   UNL     1      41.363 -13.480  -0.841  1.00  0.00     0.028 A 
HETATM   11  C   UNL     1      41.389 -14.877  -0.817  1.00  0.00     0.032 A 
HETATM   12  C   UNL     1      40.954 -15.636  -1.915  1.00  0.00     0.039 A 
HETATM   13  C   UNL     1      40.459 -15.005  -3.054  1.00  0.00     0.068 A 
HETATM   14  C   UNL     1      40.397 -13.614  -3.079  1.00  0.00     0.039 A 
HETATM   15  C   UNL     1      40.827 -12.864  -1.980  1.00  0.00     0.032 A 
BRANCH  13  16
HETATM   16  O   UNL     1      40.002 -15.620  -4.187  1.00  0.00    -0.356 OA
HETATM   17  C   UNL     1      38.615 -15.932  -4.233  1.00  0.00     0.210 C 
ENDBRANCH  13  16
ENDBRANCH   8  10
ENDBRANCH   7   8
ENDBRANCH   6   7
ENDBRANCH   5   6
ENDBRANCH   1   5
BRANCH   2  18
HETATM   18  N   UNL     1      41.807 -16.528   4.421  1.00  0.00    -0.184 NA
HETATM   19  C   UNL     1      42.978 -16.767   3.929  1.00  0.00     0.152 C 
BRANCH  19  20
HETATM   20  C   UNL     1      43.657 -17.992   4.298  1.00  0.00     0.011 A 
HETATM   21  C   UNL     1      43.773 -19.198   3.533  1.00  0.00     0.004 A 
HETATM   22  C   UNL     1      44.509 -20.107   4.296  1.00  0.00     0.043 A 
HETATM   23  C   UNL     1      43.324 -19.607   2.259  1.00  0.00     0.014 A 
HETATM   24  C   UNL     1      44.815 -21.399   3.855  1.00  0.00     0.030 A 
HETATM   25  N   UNL     1      44.829 -19.480   5.478  1.00  0.00    -0.364 N 
HETATM   26  C   UNL     1      44.358 -21.778   2.590  1.00  0.00     0.002 A 
HETATM   27  C   UNL     1      43.624 -20.897   1.801  1.00  0.00     0.001 A 
HETATM   28  H   UNL     1      45.361 -19.901   6.227  1.00  0.00     0.165 HD
HETATM   29  C   UNL     1      44.324 -18.211   5.489  1.00  0.00     0.102 A 
ENDBRANCH  19  20
ENDBRANCH   2  18
TORSDOF 8
ENDMDL
MODEL 6
REMARK VINA RESULT:      -7.7      7.933     11.827
REMARK  8 active torsions:
REMARK  status: ('A' for Active; 'I' for Inactive)
REMARK    1  A    between atoms: O_2  and  C_3 
REMARK    2  A    between atoms: C_6  and  N_7 
REMARK    3  A    between atoms: N_7  and  C_8 
REMARK    4  A    between atoms: C_8  and  C_9 
REMARK    5  A    between atoms: C_9  and  C_10 
REMARK    6  A    between atoms: C_10  and  C_11 
REMARK       I    between atoms: C_11  and  N_12 
REMARK    7  A    between atoms: N_12  and  N_13 
REMARK    8  A    between atoms: C_14  and  C_15 
ROOT
HETATM    1  C   UNL     1      41.190 -15.830   1.791  1.00  0.00     0.237 C 
HETATM    2  N   UNL     1      42.225 -15.652   2.701  1.00  0.00    -0.247 N 
HETATM    3  O   UNL     1      40.537 -16.860   1.658  1.00  0.00    -0.272 OA
HETATM    4  H   UNL     1      42.720 -14.771   2.768  1.00  0.00     0.192 HD
ENDROOT
BRANCH   1   5
HETATM    5  C   UNL     1      40.941 -14.589   0.952  1.00  0.00     0.106 C 
BRANCH   5   6
HETATM    6  C   UNL     1      41.660 -14.676  -0.393  1.00  0.00     0.029 C 
BRANCH   6   7
HETATM    7  C   UNL     1      41.396 -13.457  -1.274  1.00  0.00     0.120 C 
BRANCH   7   8
HETATM    8  N   UNL     1      41.261 -13.896  -2.657  1.00  0.00    -0.390 N 
HETATM    9  H   UNL     1      41.959 -14.587  -2.927  1.00  0.00     0.159 HD
BRANCH   8  10
HETATM   10  C   UNL     1      40.007 -14.193  -3.192  1.00  0.00     0.028 A 
HETATM   11  C   UNL     1      39.642 -15.457  -3.664  1.00  0.00     0.032 A 
HETATM   12  C   UNL     1      38.338 -15.723  -4.111  1.00  0.00     0.039 A 
HETATM   13  C   UNL     1      37.365 -14.727  -4.072  1.00  0.00     0.068 A 
HETATM   14  C   UNL     1      37.707 -13.472  -3.574  1.00  0.00     0.039 A 
HETATM   15  C   UNL     1      39.005 -13.216  -3.124  1.00  0.00     0.032 A 
BRANCH  13  16
HETATM   16  O   UNL     1      36.063 -14.850  -4.472  1.00  0.00    -0.356 OA
HETATM   17  C   UNL     1      35.595 -13.908  -5.428  1.00  0.00     0.210 C 
ENDBRANCH  13  16
ENDBRANCH   8  10
ENDBRANCH   7   8
ENDBRANCH   6   7
ENDBRANCH   5   6
ENDBRANCH   1   5
BRANCH   2  18
HETATM   18  N   UNL     1      42.584 -16.695   3.505  1.00  0.00    -0.184 NA
HETATM   19  C   UNL     1      43.644 -17.354   3.168  1.00  0.00     0.152 C 
BRANCH  19  20
HETATM   20  C   UNL     1      44.058 -18.479   3.980  1.00  0.00     0.011 A 
HETATM   21  C   UNL     1      44.204 -19.847   3.581  1.00  0.00     0.004 A 
HETATM   22  C   UNL     1      44.618 -20.568   4.704  1.00  0.00     0.043 A 
HETATM   23  C   UNL     1      44.026 -20.546   2.368  1.00  0.00     0.014 A 
HETATM   24  C   UNL     1      44.859 -21.946   4.678  1.00  0.00     0.030 A 
HETATM   25  N   UNL     1      44.721 -19.674   5.745  1.00  0.00    -0.364 N 
HETATM   26  C   UNL     1      44.675 -22.613   3.464  1.00  0.00     0.002 A 
HETATM   27  C   UNL     1      44.265 -21.926   2.325  1.00  0.00     0.001 A 
HETATM   28  H   UNL     1      45.002 -19.916   6.685  1.00  0.00     0.165 HD
HETATM   29  C   UNL     1      44.388 -18.418   5.322  1.00  0.00     0.102 A 
ENDBRANCH  19  20
ENDBRANCH   2  18
TORSDOF 8
ENDMDL
MODEL 7
REMARK VINA RESULT:      -7.6      5.983      7.639
REMARK  8 active torsions:
REMARK  status: ('A' for Active; 'I' for Inactive)
REMARK    1  A    between atoms: O_2  and  C_3 
REMARK    2  A    between atoms: C_6  and  N_7 
REMARK    3  A    between atoms: N_7  and  C_8 
REMARK    4  A    between atoms: C_8  and  C_9 
REMARK    5  A    between atoms: C_9  and  C_10 
REMARK    6  A    between atoms: C_10  and  C_11 
REMARK       I    between atoms: C_11  and  N_12 
REMARK    7  A    between atoms: N_12  and  N_13 
REMARK    8  A    between atoms: C_14  and  C_15 
ROOT
HETATM    1  C   UNL     1      41.602 -16.138   0.916  1.00  0.00     0.237 C 
HETATM    2  N   UNL     1      42.900 -16.603   0.749  1.00  0.00    -0.247 N 
HETATM    3  O   UNL     1      40.653 -16.818   1.296  1.00  0.00    -0.272 OA
HETATM    4  H   UNL     1      43.643 -15.987   0.440  1.00  0.00     0.192 HD
ENDROOT
BRANCH   1   5
HETATM    5  C   UNL     1      41.468 -14.666   0.570  1.00  0.00     0.106 C 
BRANCH   5   6
HETATM    6  C   UNL     1      40.211 -14.062   1.195  1.00  0.00     0.029 C 
BRANCH   6   7
HETATM    7  C   UNL     1      40.484 -13.436   2.561  1.00  0.00     0.120 C 
BRANCH   7   8
HETATM    8  N   UNL     1      40.184 -14.416   3.596  1.00  0.00    -0.390 N 
HETATM    9  H   UNL     1      39.561 -15.156   3.279  1.00  0.00     0.159 HD
BRANCH   8  10
HETATM   10  C   UNL     1      41.194 -14.912   4.422  1.00  0.00     0.028 A 
HETATM   11  C   UNL     1      42.112 -14.105   5.101  1.00  0.00     0.032 A 
HETATM   12  C   UNL     1      43.053 -14.653   5.987  1.00  0.00     0.039 A 
HETATM   13  C   UNL     1      43.076 -16.024   6.228  1.00  0.00     0.068 A 
HETATM   14  C   UNL     1      42.147 -16.837   5.582  1.00  0.00     0.039 A 
HETATM   15  C   UNL     1      41.209 -16.284   4.705  1.00  0.00     0.032 A 
BRANCH  13  16
HETATM   16  O   UNL     1      43.933 -16.686   7.064  1.00  0.00    -0.356 OA
HETATM   17  C   UNL     1      43.353 -17.369   8.168  1.00  0.00     0.210 C 
ENDBRANCH  13  16
ENDBRANCH   8  10
ENDBRANCH   7   8
ENDBRANCH   6   7
ENDBRANCH   5   6
ENDBRANCH   1   5
BRANCH   2  18
HETATM   18  N   UNL     1      43.168 -17.918   0.993  1.00  0.00    -0.184 NA
HETATM   19  C   UNL     1      43.714 -18.203   2.130  1.00  0.00     0.152 C 
BRANCH  19  20
HETATM   20  C   UNL     1      44.031 -19.584   2.429  1.00  0.00     0.011 A 
HETATM   21  C   UNL     1      44.196 -20.189   3.717  1.00  0.00     0.004 A 
HETATM   22  C   UNL     1      44.500 -21.537   3.508  1.00  0.00     0.043 A 
HETATM   23  C   UNL     1      44.115 -19.722   5.046  1.00  0.00     0.014 A 
HETATM   24  C   UNL     1      44.729 -22.437   4.555  1.00  0.00     0.030 A 
HETATM   25  N   UNL     1      44.518 -21.744   2.148  1.00  0.00    -0.364 N 
HETATM   26  C   UNL     1      44.642 -21.948   5.860  1.00  0.00     0.002 A 
HETATM   27  C   UNL     1      44.339 -20.611   6.106  1.00  0.00     0.001 A 
HETATM   28  H   UNL     1      44.711 -22.630   1.703  1.00  0.00     0.165 HD
HETATM   29  C   UNL     1      44.237 -20.579   1.491  1.00  0.00     0.102 A 
ENDBRANCH  19  20
ENDBRANCH   2  18
TORSDOF 8
ENDMDL
MODEL 8
REMARK VINA RESULT:      -7.5      1.854      2.246
REMARK  8 active torsions:
REMARK  status: ('A' for Active; 'I' for Inactive)
REMARK    1  A    between atoms: O_2  and  C_3 
REMARK    2  A    between atoms: C_6  and  N_7 
REMARK    3  A    between atoms: N_7  and  C_8 
REMARK    4  A    between atoms: C_8  and  C_9 
REMARK    5  A    between atoms: C_9  and  C_10 
REMARK    6  A    between atoms: C_10  and  C_11 
REMARK       I    between atoms: C_11  and  N_12 
REMARK    7  A    between atoms: N_12  and  N_13 
REMARK    8  A    between atoms: C_14  and  C_15 
ROOT
HETATM    1  C   UNL     1      45.026 -13.259   7.862  1.00  0.00     0.237 C 
HETATM    2  N   UNL     1      44.089 -14.262   7.649  1.00  0.00    -0.247 N 
HETATM    3  O   UNL     1      46.176 -13.265   7.432  1.00  0.00    -0.272 OA
HETATM    4  H   UNL     1      43.151 -14.192   8.025  1.00  0.00     0.192 HD
ENDROOT
BRANCH   1   5
HETATM    5  C   UNL     1      44.473 -12.123   8.705  1.00  0.00     0.106 C 
BRANCH   5   6
HETATM    6  C   UNL     1      45.268 -11.956   9.999  1.00  0.00     0.029 C 
BRANCH   6   7
HETATM    7  C   UNL     1      44.365 -11.751  11.214  1.00  0.00     0.120 C 
BRANCH   7   8
HETATM    8  N   UNL     1      42.976 -11.885  10.796  1.00  0.00    -0.390 N 
HETATM    9  H   UNL     1      42.563 -12.779  11.059  1.00  0.00     0.159 HD
BRANCH   8  10
HETATM   10  C   UNL     1      42.076 -10.832  10.965  1.00  0.00     0.028 A 
HETATM   11  C   UNL     1      42.456  -9.491  11.064  1.00  0.00     0.032 A 
HETATM   12  C   UNL     1      41.502  -8.464  11.146  1.00  0.00     0.039 A 
HETATM   13  C   UNL     1      40.142  -8.763  11.105  1.00  0.00     0.068 A 
HETATM   14  C   UNL     1      39.749 -10.093  10.975  1.00  0.00     0.039 A 
HETATM   15  C   UNL     1      40.704 -11.110  10.888  1.00  0.00     0.032 A 
BRANCH  13  16
HETATM   16  O   UNL     1      39.113  -7.865  11.173  1.00  0.00    -0.356 OA
HETATM   17  C   UNL     1      37.909  -8.314  11.781  1.00  0.00     0.210 C 
ENDBRANCH  13  16
ENDBRANCH   8  10
ENDBRANCH   7   8
ENDBRANCH   6   7
ENDBRANCH   5   6
ENDBRANCH   1   5
BRANCH   2  18
HETATM   18  N   UNL     1      44.453 -15.365   6.933  1.00  0.00    -0.184 NA
HETATM   19  C   UNL     1      43.510 -15.996   6.313  1.00  0.00     0.152 C 
BRANCH  19  20
HETATM   20  C   UNL     1      43.844 -17.182   5.551  1.00  0.00     0.011 A 
HETATM   21  C   UNL     1      43.645 -17.413   4.152  1.00  0.00     0.004 A 
HETATM   22  C   UNL     1      44.115 -18.699   3.871  1.00  0.00     0.043 A 
HETATM   23  C   UNL     1      43.110 -16.652   3.091  1.00  0.00     0.014 A 
HETATM   24  C   UNL     1      44.076 -19.261   2.590  1.00  0.00     0.030 A 
HETATM   25  N   UNL     1      44.583 -19.227   5.051  1.00  0.00    -0.364 N 
HETATM   26  C   UNL     1      43.541 -18.485   1.558  1.00  0.00     0.002 A 
HETATM   27  C   UNL     1      43.065 -17.199   1.802  1.00  0.00     0.001 A 
HETATM   28  H   UNL     1      44.984 -20.150   5.150  1.00  0.00     0.165 HD
HETATM   29  C   UNL     1      44.426 -18.326   6.065  1.00  0.00     0.102 A 
ENDBRANCH  19  20
ENDBRANCH   2  18
TORSDOF 8
ENDMDL
MODEL 9
REMARK VINA RESULT:      -7.5      5.262      7.437
REMARK  8 active torsions:
REMARK  status: ('A' for Active; 'I' for Inactive)
REMARK    1  A    between atoms: O_2  and  C_3 
REMARK    2  A    between atoms: C_6  and  N_7 
REMARK    3  A    between atoms: N_7  and  C_8 
REMARK    4  A    between atoms: C_8  and  C_9 
REMARK    5  A    between atoms: C_9  and  C_10 
REMARK    6  A    between atoms: C_10  and  C_11 
REMARK       I    between atoms: C_11  and  N_12 
REMARK    7  A    between atoms: N_12  and  N_13 
REMARK    8  A    between atoms: C_14  and  C_15 
ROOT
HETATM    1  C   UNL     1      39.836 -15.274   1.743  1.00  0.00     0.237 C 
HETATM    2  N   UNL     1      40.474 -16.256   0.997  1.00  0.00    -0.247 N 
HETATM    3  O   UNL     1      39.826 -15.214   2.969  1.00  0.00    -0.272 OA
HETATM    4  H   UNL     1      40.453 -16.244  -0.016  1.00  0.00     0.192 HD
ENDROOT
BRANCH   1   5
HETATM    5  C   UNL     1      39.131 -14.253   0.868  1.00  0.00     0.106 C 
BRANCH   5   6
HETATM    6  C   UNL     1      39.647 -12.841   1.138  1.00  0.00     0.029 C 
BRANCH   6   7
HETATM    7  C   UNL     1      41.166 -12.743   1.011  1.00  0.00     0.120 C 
BRANCH   7   8
HETATM    8  N   UNL     1      41.694 -12.062   2.186  1.00  0.00    -0.390 N 
HETATM    9  H   UNL     1      41.103 -11.294   2.502  1.00  0.00     0.159 HD
BRANCH   8  10
HETATM   10  C   UNL     1      42.213 -12.788   3.258  1.00  0.00     0.028 A 
HETATM   11  C   UNL     1      43.140 -13.826   3.120  1.00  0.00     0.032 A 
HETATM   12  C   UNL     1      43.695 -14.465   4.240  1.00  0.00     0.039 A 
HETATM   13  C   UNL     1      43.348 -14.057   5.526  1.00  0.00     0.068 A 
HETATM   14  C   UNL     1      42.450 -13.003   5.679  1.00  0.00     0.039 A 
HETATM   15  C   UNL     1      41.905 -12.367   4.559  1.00  0.00     0.032 A 
BRANCH  13  16
HETATM   16  O   UNL     1      43.813 -14.589   6.697  1.00  0.00    -0.356 OA
HETATM   17  C   UNL     1      44.768 -13.819   7.416  1.00  0.00     0.210 C 
ENDBRANCH  13  16
ENDBRANCH   8  10
ENDBRANCH   7   8
ENDBRANCH   6   7
ENDBRANCH   5   6
ENDBRANCH   1   5
BRANCH   2  18
HETATM   18  N   UNL     1      41.126 -17.262   1.649  1.00  0.00    -0.184 NA
HETATM   19  C   UNL     1      42.416 -17.185   1.702  1.00  0.00     0.152 C 
BRANCH  19  20
HETATM   20  C   UNL     1      43.154 -18.236   2.370  1.00  0.00     0.011 A 
HETATM   21  C   UNL     1      43.277 -18.466   3.779  1.00  0.00     0.004 A 
HETATM   22  C   UNL     1      44.090 -19.590   3.949  1.00  0.00     0.043 A 
HETATM   23  C   UNL     1      42.772 -17.828   4.932  1.00  0.00     0.014 A 
HETATM   24  C   UNL     1      44.426 -20.104   5.206  1.00  0.00     0.030 A 
HETATM   25  N   UNL     1      44.446 -20.027   2.694  1.00  0.00    -0.364 N 
HETATM   26  C   UNL     1      43.912 -19.452   6.331  1.00  0.00     0.002 A 
HETATM   27  C   UNL     1      43.098 -18.331   6.198  1.00  0.00     0.001 A 
HETATM   28  H   UNL     1      45.035 -20.827   2.509  1.00  0.00     0.165 HD
HETATM   29  C   UNL     1      43.890 -19.223   1.740  1.00  0.00     0.102 A 
ENDBRANCH  19  20
ENDBRANCH   2  18
TORSDOF 8
ENDMDL
MODEL 10
REMARK VINA RESULT:      -7.4      6.140     10.014
REMARK  8 active torsions:
REMARK  status: ('A' for Active; 'I' for Inactive)
REMARK    1  A    between atoms: O_2  and  C_3 
REMARK    2  A    between atoms: C_6  and  N_7 
REMARK    3  A    between atoms: N_7  and  C_8 
REMARK    4  A    between atoms: C_8  and  C_9 
REMARK    5  A    between atoms: C_9  and  C_10 
REMARK    6  A    between atoms: C_10  and  C_11 
REMARK       I    between atoms: C_11  and  N_12 
REMARK    7  A    between atoms: N_12  and  N_13 
REMARK    8  A    between atoms: C_14  and  C_15 
ROOT
HETATM    1  C   UNL     1      41.175 -15.409   4.464  1.00  0.00     0.237 C 
HETATM    2  N   UNL     1      40.358 -16.035   3.532  1.00  0.00    -0.247 N 
HETATM    3  O   UNL     1      42.156 -14.722   4.193  1.00  0.00    -0.272 OA
HETATM    4  H   UNL     1      39.555 -16.582   3.821  1.00  0.00     0.192 HD
ENDROOT
BRANCH   1   5
HETATM    5  C   UNL     1      40.725 -15.666   5.891  1.00  0.00     0.106 C 
BRANCH   5   6
HETATM    6  C   UNL     1      41.348 -16.945   6.447  1.00  0.00     0.029 C 
BRANCH   6   7
HETATM    7  C   UNL     1      42.739 -16.708   7.032  1.00  0.00     0.120 C 
BRANCH   7   8
HETATM    8  N   UNL     1      43.722 -16.797   5.960  1.00  0.00    -0.390 N 
HETATM    9  H   UNL     1      44.623 -16.394   6.210  1.00  0.00     0.159 HD
BRANCH   8  10
HETATM   10  C   UNL     1      43.869 -17.973   5.223  1.00  0.00     0.028 A 
HETATM   11  C   UNL     1      43.638 -18.064   3.848  1.00  0.00     0.032 A 
HETATM   12  C   UNL     1      43.886 -19.252   3.142  1.00  0.00     0.039 A 
HETATM   13  C   UNL     1      44.395 -20.368   3.800  1.00  0.00     0.068 A 
HETATM   14  C   UNL     1      44.661 -20.281   5.165  1.00  0.00     0.039 A 
HETATM   15  C   UNL     1      44.417 -19.094   5.861  1.00  0.00     0.032 A 
BRANCH  13  16
HETATM   16  O   UNL     1      44.683 -21.580   3.236  1.00  0.00    -0.356 OA
HETATM   17  C   UNL     1      44.245 -21.786   1.899  1.00  0.00     0.210 C 
ENDBRANCH  13  16
ENDBRANCH   8  10
ENDBRANCH   7   8
ENDBRANCH   6   7
ENDBRANCH   5   6
ENDBRANCH   1   5
BRANCH   2  18
HETATM   18  N   UNL     1      40.658 -15.920   2.206  1.00  0.00    -0.184 NA
HETATM   19  C   UNL     1      40.063 -14.976   1.552  1.00  0.00     0.152 C 
BRANCH  19  20
HETATM   20  C   UNL     1      40.337 -14.822   0.139  1.00  0.00     0.011 A 
HETATM   21  C   UNL     1      39.534 -14.162  -0.846  1.00  0.00     0.004 A 
HETATM   22  C   UNL     1      40.200 -14.273  -2.070  1.00  0.00     0.043 A 
HETATM   23  C   UNL     1      38.302 -13.475  -0.818  1.00  0.00     0.014 A 
HETATM   24  C   UNL     1      39.697 -13.739  -3.261  1.00  0.00     0.030 A 
HETATM   25  N   UNL     1      41.362 -14.972  -1.838  1.00  0.00    -0.364 N 
HETATM   26  C   UNL     1      38.475 -13.064  -3.204  1.00  0.00     0.002 A 
HETATM   27  C   UNL     1      37.786 -12.932  -2.002  1.00  0.00     0.001 A 
HETATM   28  H   UNL     1      42.045 -15.204  -2.546  1.00  0.00     0.165 HD
HETATM   29  C   UNL     1      41.455 -15.305  -0.517  1.00  0.00     0.102 A 
ENDBRANCH  19  20
ENDBRANCH   2  18
TORSDOF 8
ENDMDL
