MODEL 1
REMARK VINA RESULT:      -7.6      0.000      0.000
REMARK  4 active torsions:
REMARK  status: ('A' for Active; 'I' for Inactive)
REMARK    1  A    between atoms: S_2  and  N_3 
REMARK    2  A    between atoms: N_3  and  N_4 
REMARK    3  A    between atoms: C_10  and  C_11 
REMARK    4  A    between atoms: C_14  and  O_15 
ROOT
HETATM    1  N   UNL     1      41.493 -16.977   3.495  1.00  0.00    -0.241 N 
HETATM    2  C   UNL     1      42.304 -17.825   2.760  1.00  0.00     0.272 C 
HETATM    3  O   UNL     1      42.232 -17.902   1.533  1.00  0.00    -0.266 OA
HETATM    4  C   UNL     1      43.207 -18.693   3.538  1.00  0.00     0.054 A 
HETATM    5  C   UNL     1      42.921 -18.860   4.901  1.00  0.00     0.026 A 
HETATM    6  N   UNL     1      41.837 -18.185   5.491  1.00  0.00    -0.265 NA
HETATM    7  C   UNL     1      41.613 -16.834   4.950  1.00  0.00     0.217 C 
HETATM    8  C   UNL     1      44.232 -19.409   2.914  1.00  0.00     0.019 A 
HETATM    9  C   UNL     1      44.984 -20.312   3.660  1.00  0.00     0.001 A 
HETATM   10  C   UNL     1      44.688 -20.518   5.009  1.00  0.00     0.002 A 
HETATM   11  C   UNL     1      43.651 -19.808   5.621  1.00  0.00     0.024 A 
HETATM   12  H   UNL     1      41.854 -18.204   6.503  1.00  0.00     0.130 HD
ENDROOT
BRANCH   7  13
HETATM   13  C   UNL     1      42.717 -15.865   5.407  1.00  0.00    -0.020 A 
HETATM   14  C   UNL     1      43.159 -14.802   4.598  1.00  0.00     0.013 A 
HETATM   15  C   UNL     1      44.145 -13.910   5.038  1.00  0.00     0.037 A 
HETATM   16  C   UNL     1      44.705 -14.074   6.297  1.00  0.00     0.065 A 
HETATM   17  C   UNL     1      44.286 -15.101   7.125  1.00  0.00     0.037 A 
HETATM   18  C   UNL     1      43.288 -15.980   6.693  1.00  0.00     0.013 A 
BRANCH  16  19
HETATM   19  O   UNL     1      45.670 -13.232   6.764  1.00  0.00    -0.361 OA
HETATM   20  H   UNL     1      45.433 -12.954   7.663  1.00  0.00     0.217 HD
ENDBRANCH  16  19
ENDBRANCH   7  13
BRANCH   1  21
HETATM   21  N   UNL     1      40.174 -16.682   2.878  1.00  0.00    -0.123 NA
HETATM   22  H   UNL     1      39.962 -17.306   2.088  1.00  0.00     0.165 HD
BRANCH  21  23
HETATM   23  S   UNL     1      39.739 -15.081   2.546  1.00  0.00     0.222 S 
HETATM   24  C   UNL     1      41.110 -14.572   1.530  1.00  0.00     0.181 C 
HETATM   25  O   UNL     1      39.767 -14.321   3.776  1.00  0.00    -0.210 OA
HETATM   26  O   UNL     1      38.560 -15.126   1.711  1.00  0.00    -0.210 OA
ENDBRANCH  21  23
ENDBRANCH   1  21
TORSDOF 4
ENDMDL
MODEL 2
REMARK VINA RESULT:      -7.5      2.411      4.993
REMARK  4 active torsions:
REMARK  status: ('A' for Active; 'I' for Inactive)
REMARK    1  A    between atoms: S_2  and  N_3 
REMARK    2  A    between atoms: N_3  and  N_4 
REMARK    3  A    between atoms: C_10  and  C_11 
REMARK    4  A    between atoms: C_14  and  O_15 
ROOT
HETATM    1  N   UNL     1      41.979 -17.352   1.927  1.00  0.00    -0.241 N 
HETATM    2  C   UNL     1      41.095 -17.190   2.980  1.00  0.00     0.272 C 
HETATM    3  O   UNL     1      39.884 -17.051   2.804  1.00  0.00    -0.266 OA
HETATM    4  C   UNL     1      41.694 -17.111   4.325  1.00  0.00     0.054 A 
HETATM    5  C   UNL     1      43.068 -16.839   4.401  1.00  0.00     0.026 A 
HETATM    6  N   UNL     1      43.832 -16.691   3.229  1.00  0.00    -0.265 NA
HETATM    7  C   UNL     1      43.414 -17.580   2.131  1.00  0.00     0.217 C 
HETATM    8  C   UNL     1      40.900 -17.189   5.472  1.00  0.00     0.019 A 
HETATM    9  C   UNL     1      41.486 -16.987   6.720  1.00  0.00     0.001 A 
HETATM   10  C   UNL     1      42.844 -16.678   6.810  1.00  0.00     0.002 A 
HETATM   11  C   UNL     1      43.627 -16.587   5.655  1.00  0.00     0.024 A 
HETATM   12  H   UNL     1      44.831 -16.716   3.394  1.00  0.00     0.130 HD
ENDROOT
BRANCH   7  13
HETATM   13  C   UNL     1      43.794 -19.041   2.427  1.00  0.00    -0.020 A 
HETATM   14  C   UNL     1      44.609 -19.393   3.519  1.00  0.00     0.013 A 
HETATM   15  C   UNL     1      44.923 -20.730   3.794  1.00  0.00     0.037 A 
HETATM   16  C   UNL     1      44.425 -21.734   2.976  1.00  0.00     0.065 A 
HETATM   17  C   UNL     1      43.609 -21.425   1.900  1.00  0.00     0.037 A 
HETATM   18  C   UNL     1      43.281 -20.092   1.637  1.00  0.00     0.013 A 
BRANCH  16  19
HETATM   19  O   UNL     1      44.709 -23.047   3.205  1.00  0.00    -0.361 OA
HETATM   20  H   UNL     1      44.296 -23.314   4.042  1.00  0.00     0.217 HD
ENDBRANCH  16  19
ENDBRANCH   7  13
BRANCH   1  21
HETATM   21  N   UNL     1      41.553 -16.728   0.649  1.00  0.00    -0.123 NA
HETATM   22  H   UNL     1      41.953 -17.202  -0.172  1.00  0.00     0.165 HD
BRANCH  21  23
HETATM   23  S   UNL     1      41.591 -15.045   0.481  1.00  0.00     0.222 S 
HETATM   24  C   UNL     1      39.868 -14.653   0.700  1.00  0.00     0.181 C 
HETATM   25  O   UNL     1      41.972 -14.715  -0.874  1.00  0.00    -0.210 OA
HETATM   26  O   UNL     1      42.313 -14.521   1.619  1.00  0.00    -0.210 OA
ENDBRANCH  21  23
ENDBRANCH   1  21
TORSDOF 4
ENDMDL
MODEL 3
REMARK VINA RESULT:      -7.2      2.975      6.187
REMARK  4 active torsions:
REMARK  status: ('A' for Active; 'I' for Inactive)
REMARK    1  A    between atoms: S_2  and  N_3 
REMARK    2  A    between atoms: N_3  and  N_4 
REMARK    3  A    between atoms: C_10  and  C_11 
REMARK    4  A    between atoms: C_14  and  O_15 
ROOT
HETATM    1  N   UNL     1      42.610 -16.831   6.431  1.00  0.00    -0.241 N 
HETATM    2  C   UNL     1      42.926 -15.494   6.607  1.00  0.00     0.272 C 
HETATM    3  O   UNL     1      43.806 -15.124   7.384  1.00  0.00    -0.266 OA
HETATM    4  C   UNL     1      42.091 -14.529   5.868  1.00  0.00     0.054 A 
HETATM    5  C   UNL     1      40.864 -14.990   5.369  1.00  0.00     0.026 A 
HETATM    6  N   UNL     1      40.483 -16.334   5.542  1.00  0.00    -0.265 NA
HETATM    7  C   UNL     1      41.605 -17.284   5.464  1.00  0.00     0.217 C 
HETATM    8  C   UNL     1      42.458 -13.184   5.774  1.00  0.00     0.019 A 
HETATM    9  C   UNL     1      41.584 -12.279   5.176  1.00  0.00     0.001 A 
HETATM   10  C   UNL     1      40.343 -12.716   4.708  1.00  0.00     0.002 A 
HETATM   11  C   UNL     1      39.978 -14.061   4.821  1.00  0.00     0.024 A 
HETATM   12  H   UNL     1      39.697 -16.606   4.964  1.00  0.00     0.130 HD
ENDROOT
BRANCH   7  13
HETATM   13  C   UNL     1      42.121 -17.412   4.020  1.00  0.00    -0.020 A 
HETATM   14  C   UNL     1      41.273 -17.258   2.907  1.00  0.00     0.013 A 
HETATM   15  C   UNL     1      41.761 -17.348   1.598  1.00  0.00     0.037 A 
HETATM   16  C   UNL     1      43.110 -17.598   1.385  1.00  0.00     0.065 A 
HETATM   17  C   UNL     1      43.976 -17.743   2.456  1.00  0.00     0.037 A 
HETATM   18  C   UNL     1      43.491 -17.634   3.763  1.00  0.00     0.013 A 
BRANCH  16  19
HETATM   19  O   UNL     1      43.627 -17.698   0.128  1.00  0.00    -0.361 OA
HETATM   20  H   UNL     1      42.980 -17.345  -0.504  1.00  0.00     0.217 HD
ENDBRANCH  16  19
ENDBRANCH   7  13
BRANCH   1  21
HETATM   21  N   UNL     1      42.875 -17.696   7.609  1.00  0.00    -0.123 NA
HETATM   22  H   UNL     1      42.720 -17.206   8.500  1.00  0.00     0.165 HD
BRANCH  21  23
HETATM   23  S   UNL     1      44.271 -18.652   7.654  1.00  0.00     0.222 S 
HETATM   24  C   UNL     1      43.691 -20.122   6.834  1.00  0.00     0.181 C 
HETATM   25  O   UNL     1      44.574 -18.978   9.030  1.00  0.00    -0.210 OA
HETATM   26  O   UNL     1      45.246 -18.019   6.794  1.00  0.00    -0.210 OA
ENDBRANCH  21  23
ENDBRANCH   1  21
TORSDOF 4
ENDMDL
MODEL 4
REMARK VINA RESULT:      -7.2      2.598      5.716
REMARK  4 active torsions:
REMARK  status: ('A' for Active; 'I' for Inactive)
REMARK    1  A    between atoms: S_2  and  N_3 
REMARK    2  A    between atoms: N_3  and  N_4 
REMARK    3  A    between atoms: C_10  and  C_11 
REMARK    4  A    between atoms: C_14  and  O_15 
ROOT
HETATM    1  N   UNL     1      42.554 -15.899   5.019  1.00  0.00    -0.241 N 
HETATM    2  C   UNL     1      42.771 -14.895   4.089  1.00  0.00     0.272 C 
HETATM    3  O   UNL     1      43.458 -13.905   4.341  1.00  0.00    -0.266 OA
HETATM    4  C   UNL     1      42.065 -15.039   2.803  1.00  0.00     0.054 A 
HETATM    5  C   UNL     1      40.986 -15.935   2.759  1.00  0.00     0.026 A 
HETATM    6  N   UNL     1      40.635 -16.685   3.897  1.00  0.00    -0.265 NA
HETATM    7  C   UNL     1      41.788 -17.110   4.708  1.00  0.00     0.217 C 
HETATM    8  C   UNL     1      42.386 -14.230   1.710  1.00  0.00     0.019 A 
HETATM    9  C   UNL     1      41.616 -14.310   0.553  1.00  0.00     0.001 A 
HETATM   10  C   UNL     1      40.516 -15.169   0.507  1.00  0.00     0.002 A 
HETATM   11  C   UNL     1      40.192 -15.964   1.611  1.00  0.00     0.024 A 
HETATM   12  H   UNL     1      39.996 -17.445   3.696  1.00  0.00     0.130 HD
ENDROOT
BRANCH   7  13
HETATM   13  C   UNL     1      42.593 -18.208   3.991  1.00  0.00    -0.020 A 
HETATM   14  C   UNL     1      42.376 -18.530   2.638  1.00  0.00     0.013 A 
HETATM   15  C   UNL     1      43.136 -19.512   1.990  1.00  0.00     0.037 A 
HETATM   16  C   UNL     1      44.124 -20.188   2.692  1.00  0.00     0.065 A 
HETATM   17  C   UNL     1      44.374 -19.889   4.020  1.00  0.00     0.037 A 
HETATM   18  C   UNL     1      43.628 -18.895   4.662  1.00  0.00     0.013 A 
BRANCH  16  19
HETATM   19  O   UNL     1      44.884 -21.154   2.102  1.00  0.00    -0.361 OA
HETATM   20  H   UNL     1      44.314 -21.690   1.527  1.00  0.00     0.217 HD
ENDBRANCH  16  19
ENDBRANCH   7  13
BRANCH   1  21
HETATM   21  N   UNL     1      42.609 -15.461   6.437  1.00  0.00    -0.123 NA
HETATM   22  H   UNL     1      42.293 -14.490   6.561  1.00  0.00     0.165 HD
BRANCH  21  23
HETATM   23  S   UNL     1      43.982 -15.796   7.368  1.00  0.00     0.222 S 
HETATM   24  C   UNL     1      43.368 -17.113   8.397  1.00  0.00     0.181 C 
HETATM   25  O   UNL     1      44.274 -14.652   8.204  1.00  0.00    -0.210 OA
HETATM   26  O   UNL     1      44.974 -16.354   6.477  1.00  0.00    -0.210 OA
ENDBRANCH  21  23
ENDBRANCH   1  21
TORSDOF 4
ENDMDL
MODEL 5
REMARK VINA RESULT:      -7.0      2.610      5.328
REMARK  4 active torsions:
REMARK  status: ('A' for Active; 'I' for Inactive)
REMARK    1  A    between atoms: S_2  and  N_3 
REMARK    2  A    between atoms: N_3  and  N_4 
REMARK    3  A    between atoms: C_10  and  C_11 
REMARK    4  A    between atoms: C_14  and  O_15 
ROOT
HETATM    1  N   UNL     1      42.228 -15.077   4.802  1.00  0.00    -0.241 N 
HETATM    2  C   UNL     1      42.329 -16.451   4.938  1.00  0.00     0.272 C 
HETATM    3  O   UNL     1      42.071 -17.027   5.996  1.00  0.00    -0.266 OA
HETATM    4  C   UNL     1      42.841 -17.184   3.766  1.00  0.00     0.054 A 
HETATM    5  C   UNL     1      43.511 -16.437   2.785  1.00  0.00     0.026 A 
HETATM    6  N   UNL     1      43.642 -15.042   2.915  1.00  0.00    -0.265 NA
HETATM    7  C   UNL     1      42.473 -14.390   3.529  1.00  0.00     0.217 C 
HETATM    8  C   UNL     1      42.762 -18.577   3.695  1.00  0.00     0.019 A 
HETATM    9  C   UNL     1      43.367 -19.241   2.631  1.00  0.00     0.001 A 
HETATM   10  C   UNL     1      44.070 -18.515   1.667  1.00  0.00     0.002 A 
HETATM   11  C   UNL     1      44.157 -17.123   1.754  1.00  0.00     0.024 A 
HETATM   12  H   UNL     1      43.943 -14.585   2.063  1.00  0.00     0.130 HD
ENDROOT
BRANCH   7  13
HETATM   13  C   UNL     1      41.274 -14.384   2.565  1.00  0.00    -0.020 A 
HETATM   14  C   UNL     1      39.986 -14.777   2.974  1.00  0.00     0.013 A 
HETATM   15  C   UNL     1      38.897 -14.739   2.094  1.00  0.00     0.037 A 
HETATM   16  C   UNL     1      39.086 -14.309   0.788  1.00  0.00     0.065 A 
HETATM   17  C   UNL     1      40.337 -13.903   0.355  1.00  0.00     0.037 A 
HETATM   18  C   UNL     1      41.420 -13.923   1.239  1.00  0.00     0.013 A 
BRANCH  16  19
HETATM   19  O   UNL     1      38.056 -14.260  -0.103  1.00  0.00    -0.361 OA
HETATM   20  H   UNL     1      37.361 -14.871   0.191  1.00  0.00     0.217 HD
ENDBRANCH  16  19
ENDBRANCH   7  13
BRANCH   1  21
HETATM   21  N   UNL     1      42.436 -14.307   6.055  1.00  0.00    -0.123 NA
HETATM   22  H   UNL     1      41.881 -13.442   6.081  1.00  0.00     0.165 HD
BRANCH  21  23
HETATM   23  S   UNL     1      44.005 -14.063   6.640  1.00  0.00     0.222 S 
HETATM   24  C   UNL     1      43.768 -12.590   7.613  1.00  0.00     0.181 C 
HETATM   25  O   UNL     1      44.878 -13.749   5.531  1.00  0.00    -0.210 OA
HETATM   26  O   UNL     1      44.294 -15.151   7.547  1.00  0.00    -0.210 OA
ENDBRANCH  21  23
ENDBRANCH   1  21
TORSDOF 4
ENDMDL
MODEL 6
REMARK VINA RESULT:      -7.0      2.461      3.313
REMARK  4 active torsions:
REMARK  status: ('A' for Active; 'I' for Inactive)
REMARK    1  A    between atoms: S_2  and  N_3 
REMARK    2  A    between atoms: N_3  and  N_4 
REMARK    3  A    between atoms: C_10  and  C_11 
REMARK    4  A    between atoms: C_14  and  O_15 
ROOT
HETATM    1  N   UNL     1      41.742 -14.299   3.940  1.00  0.00    -0.241 N 
HETATM    2  C   UNL     1      42.693 -14.502   2.955  1.00  0.00     0.272 C 
HETATM    3  O   UNL     1      43.278 -13.568   2.405  1.00  0.00    -0.266 OA
HETATM    4  C   UNL     1      42.910 -15.900   2.542  1.00  0.00     0.054 A 
HETATM    5  C   UNL     1      41.921 -16.833   2.886  1.00  0.00     0.026 A 
HETATM    6  N   UNL     1      40.795 -16.437   3.632  1.00  0.00    -0.265 NA
HETATM    7  C   UNL     1      41.084 -15.406   4.643  1.00  0.00     0.217 C 
HETATM    8  C   UNL     1      43.999 -16.254   1.741  1.00  0.00     0.019 A 
HETATM    9  C   UNL     1      44.102 -17.561   1.269  1.00  0.00     0.001 A 
HETATM   10  C   UNL     1      43.106 -18.491   1.572  1.00  0.00     0.002 A 
HETATM   11  C   UNL     1      42.012 -18.124   2.362  1.00  0.00     0.024 A 
HETATM   12  H   UNL     1      40.266 -17.215   4.006  1.00  0.00     0.130 HD
ENDROOT
BRANCH   7  13
HETATM   13  C   UNL     1      41.895 -15.991   5.812  1.00  0.00    -0.020 A 
HETATM   14  C   UNL     1      42.997 -15.315   6.368  1.00  0.00     0.013 A 
HETATM   15  C   UNL     1      43.709 -15.845   7.451  1.00  0.00     0.037 A 
HETATM   16  C   UNL     1      43.327 -17.066   7.991  1.00  0.00     0.065 A 
HETATM   17  C   UNL     1      42.240 -17.753   7.477  1.00  0.00     0.037 A 
HETATM   18  C   UNL     1      41.518 -17.214   6.408  1.00  0.00     0.013 A 
BRANCH  16  19
HETATM   19  O   UNL     1      43.994 -17.621   9.042  1.00  0.00    -0.361 OA
HETATM   20  H   UNL     1      44.920 -17.758   8.786  1.00  0.00     0.217 HD
ENDBRANCH  16  19
ENDBRANCH   7  13
BRANCH   1  21
HETATM   21  N   UNL     1      41.012 -13.008   3.849  1.00  0.00    -0.123 NA
HETATM   22  H   UNL     1      40.674 -12.683   4.764  1.00  0.00     0.165 HD
BRANCH  21  23
HETATM   23  S   UNL     1      39.855 -12.779   2.635  1.00  0.00     0.222 S 
HETATM   24  C   UNL     1      38.710 -11.702   3.471  1.00  0.00     0.181 C 
HETATM   25  O   UNL     1      39.197 -14.039   2.369  1.00  0.00    -0.210 OA
HETATM   26  O   UNL     1      40.490 -12.020   1.581  1.00  0.00    -0.210 OA
ENDBRANCH  21  23
ENDBRANCH   1  21
TORSDOF 4
ENDMDL
MODEL 7
REMARK VINA RESULT:      -6.9      2.827      6.128
REMARK  4 active torsions:
REMARK  status: ('A' for Active; 'I' for Inactive)
REMARK    1  A    between atoms: S_2  and  N_3 
REMARK    2  A    between atoms: N_3  and  N_4 
REMARK    3  A    between atoms: C_10  and  C_11 
REMARK    4  A    between atoms: C_14  and  O_15 
ROOT
HETATM    1  N   UNL     1      42.534 -16.989   5.455  1.00  0.00    -0.241 N 
HETATM    2  C   UNL     1      43.004 -15.781   5.943  1.00  0.00     0.272 C 
HETATM    3  O   UNL     1      44.063 -15.692   6.565  1.00  0.00    -0.266 OA
HETATM    4  C   UNL     1      42.123 -14.615   5.747  1.00  0.00     0.054 A 
HETATM    5  C   UNL     1      40.779 -14.871   5.437  1.00  0.00     0.026 A 
HETATM    6  N   UNL     1      40.320 -16.192   5.284  1.00  0.00    -0.265 NA
HETATM    7  C   UNL     1      41.304 -17.094   4.662  1.00  0.00     0.217 C 
HETATM    8  C   UNL     1      42.585 -13.317   5.977  1.00  0.00     0.019 A 
HETATM    9  C   UNL     1      41.691 -12.252   5.901  1.00  0.00     0.001 A 
HETATM   10  C   UNL     1      40.342 -12.493   5.631  1.00  0.00     0.002 A 
HETATM   11  C   UNL     1      39.886 -13.797   5.418  1.00  0.00     0.024 A 
HETATM   12  H   UNL     1      39.406 -16.253   4.854  1.00  0.00     0.130 HD
ENDROOT
BRANCH   7  13
HETATM   13  C   UNL     1      41.479 -16.774   3.167  1.00  0.00    -0.020 A 
HETATM   14  C   UNL     1      42.720 -16.909   2.516  1.00  0.00     0.013 A 
HETATM   15  C   UNL     1      42.859 -16.642   1.148  1.00  0.00     0.037 A 
HETATM   16  C   UNL     1      41.755 -16.233   0.414  1.00  0.00     0.065 A 
HETATM   17  C   UNL     1      40.516 -16.102   1.019  1.00  0.00     0.037 A 
HETATM   18  C   UNL     1      40.374 -16.387   2.380  1.00  0.00     0.013 A 
BRANCH  16  19
HETATM   19  O   UNL     1      41.846 -15.958  -0.918  1.00  0.00    -0.361 OA
HETATM   20  H   UNL     1      42.536 -16.521  -1.306  1.00  0.00     0.217 HD
ENDBRANCH  16  19
ENDBRANCH   7  13
BRANCH   1  21
HETATM   21  N   UNL     1      42.966 -18.185   6.222  1.00  0.00    -0.123 NA
HETATM   22  H   UNL     1      43.103 -17.983   7.221  1.00  0.00     0.165 HD
BRANCH  21  23
HETATM   23  S   UNL     1      44.191 -19.179   5.610  1.00  0.00     0.222 S 
HETATM   24  C   UNL     1      43.959 -20.638   6.604  1.00  0.00     0.181 C 
HETATM   25  O   UNL     1      45.475 -18.598   5.934  1.00  0.00    -0.210 OA
HETATM   26  O   UNL     1      43.831 -19.507   4.249  1.00  0.00    -0.210 OA
ENDBRANCH  21  23
ENDBRANCH   1  21
TORSDOF 4
ENDMDL
MODEL 8
REMARK VINA RESULT:      -6.9      2.661      5.034
REMARK  4 active torsions:
REMARK  status: ('A' for Active; 'I' for Inactive)
REMARK    1  A    between atoms: S_2  and  N_3 
REMARK    2  A    between atoms: N_3  and  N_4 
REMARK    3  A    between atoms: C_10  and  C_11 
REMARK    4  A    between atoms: C_14  and  O_15 
ROOT
HETATM    1  N   UNL     1      41.427 -16.397   1.255  1.00  0.00    -0.241 N 
HETATM    2  C   UNL     1      40.550 -15.990   2.246  1.00  0.00     0.272 C 
HETATM    3  O   UNL     1      39.332 -15.948   2.069  1.00  0.00    -0.266 OA
HETATM    4  C   UNL     1      41.163 -15.530   3.506  1.00  0.00     0.054 A 
HETATM    5  C   UNL     1      42.525 -15.197   3.473  1.00  0.00     0.026 A 
HETATM    6  N   UNL     1      43.267 -15.342   2.286  1.00  0.00    -0.265 NA
HETATM    7  C   UNL     1      42.873 -16.508   1.478  1.00  0.00     0.217 C 
HETATM    8  C   UNL     1      40.389 -15.325   4.651  1.00  0.00     0.019 A 
HETATM    9  C   UNL     1      40.982 -14.773   5.784  1.00  0.00     0.001 A 
HETATM   10  C   UNL     1      42.327 -14.401   5.755  1.00  0.00     0.002 A 
HETATM   11  C   UNL     1      43.090 -14.596   4.600  1.00  0.00     0.024 A 
HETATM   12  H   UNL     1      44.268 -15.284   2.428  1.00  0.00     0.130 HD
ENDROOT
BRANCH   7  13
HETATM   13  C   UNL     1      43.317 -17.820   2.147  1.00  0.00    -0.020 A 
HETATM   14  C   UNL     1      43.205 -19.064   1.498  1.00  0.00     0.013 A 
HETATM   15  C   UNL     1      43.639 -20.248   2.107  1.00  0.00     0.037 A 
HETATM   16  C   UNL     1      44.192 -20.201   3.379  1.00  0.00     0.065 A 
HETATM   17  C   UNL     1      44.330 -18.993   4.043  1.00  0.00     0.037 A 
HETATM   18  C   UNL     1      43.913 -17.809   3.426  1.00  0.00     0.013 A 
BRANCH  16  19
HETATM   19  O   UNL     1      44.624 -21.328   4.011  1.00  0.00    -0.361 OA
HETATM   20  H   UNL     1      45.595 -21.332   4.013  1.00  0.00     0.217 HD
ENDBRANCH  16  19
ENDBRANCH   7  13
BRANCH   1  21
HETATM   21  N   UNL     1      40.957 -16.157  -0.133  1.00  0.00    -0.123 NA
HETATM   22  H   UNL     1      41.273 -16.886  -0.786  1.00  0.00     0.165 HD
BRANCH  21  23
HETATM   23  S   UNL     1      41.088 -14.611  -0.809  1.00  0.00     0.222 S 
HETATM   24  C   UNL     1      39.388 -14.085  -0.760  1.00  0.00     0.181 C 
HETATM   25  O   UNL     1      41.495 -14.734  -2.191  1.00  0.00    -0.210 OA
HETATM   26  O   UNL     1      41.831 -13.799   0.128  1.00  0.00    -0.210 OA
ENDBRANCH  21  23
ENDBRANCH   1  21
TORSDOF 4
ENDMDL
MODEL 9
REMARK VINA RESULT:      -6.8      2.808      3.517
REMARK  4 active torsions:
REMARK  status: ('A' for Active; 'I' for Inactive)
REMARK    1  A    between atoms: S_2  and  N_3 
REMARK    2  A    between atoms: N_3  and  N_4 
REMARK    3  A    between atoms: C_10  and  C_11 
REMARK    4  A    between atoms: C_14  and  O_15 
ROOT
HETATM    1  N   UNL     1      40.266 -15.112   1.084  1.00  0.00    -0.241 N 
HETATM    2  C   UNL     1      41.448 -15.603   0.557  1.00  0.00     0.272 C 
HETATM    3  O   UNL     1      41.848 -15.289  -0.565  1.00  0.00    -0.266 OA
HETATM    4  C   UNL     1      42.166 -16.590   1.384  1.00  0.00     0.054 A 
HETATM    5  C   UNL     1      41.445 -17.211   2.415  1.00  0.00     0.026 A 
HETATM    6  N   UNL     1      40.104 -16.861   2.658  1.00  0.00    -0.265 NA
HETATM    7  C   UNL     1      39.814 -15.433   2.442  1.00  0.00     0.217 C 
HETATM    8  C   UNL     1      43.474 -16.973   1.076  1.00  0.00     0.019 A 
HETATM    9  C   UNL     1      44.074 -17.997   1.805  1.00  0.00     0.001 A 
HETATM   10  C   UNL     1      43.356 -18.650   2.809  1.00  0.00     0.002 A 
HETATM   11  C   UNL     1      42.043 -18.271   3.100  1.00  0.00     0.024 A 
HETATM   12  H   UNL     1      39.754 -17.202   3.545  1.00  0.00     0.130 HD
ENDROOT
BRANCH   7  13
HETATM   13  C   UNL     1      40.445 -14.567   3.546  1.00  0.00    -0.020 A 
HETATM   14  C   UNL     1      41.255 -13.455   3.251  1.00  0.00     0.013 A 
HETATM   15  C   UNL     1      41.800 -12.659   4.266  1.00  0.00     0.037 A 
HETATM   16  C   UNL     1      41.541 -12.968   5.594  1.00  0.00     0.065 A 
HETATM   17  C   UNL     1      40.738 -14.047   5.921  1.00  0.00     0.037 A 
HETATM   18  C   UNL     1      40.179 -14.831   4.907  1.00  0.00     0.013 A 
BRANCH  16  19
HETATM   19  O   UNL     1      42.054 -12.223   6.613  1.00  0.00    -0.361 OA
HETATM   20  H   UNL     1      42.979 -12.008   6.407  1.00  0.00     0.217 HD
ENDBRANCH  16  19
ENDBRANCH   7  13
BRANCH   1  21
HETATM   21  N   UNL     1      39.233 -14.755   0.078  1.00  0.00    -0.123 NA
HETATM   22  H   UNL     1      39.323 -15.301  -0.789  1.00  0.00     0.165 HD
BRANCH  21  23
HETATM   23  S   UNL     1      38.896 -13.127  -0.240  1.00  0.00     0.222 S 
HETATM   24  C   UNL     1      37.612 -12.817   0.953  1.00  0.00     0.181 C 
HETATM   25  O   UNL     1      38.333 -13.014  -1.567  1.00  0.00    -0.210 OA
HETATM   26  O   UNL     1      40.061 -12.367   0.155  1.00  0.00    -0.210 OA
ENDBRANCH  21  23
ENDBRANCH   1  21
TORSDOF 4
ENDMDL
MODEL 10
REMARK VINA RESULT:      -6.7      3.091      4.119
REMARK  4 active torsions:
REMARK  status: ('A' for Active; 'I' for Inactive)
REMARK    1  A    between atoms: S_2  and  N_3 
REMARK    2  A    between atoms: N_3  and  N_4 
REMARK    3  A    between atoms: C_10  and  C_11 
REMARK    4  A    between atoms: C_14  and  O_15 
ROOT
HETATM    1  N   UNL     1      41.385 -13.429   4.081  1.00  0.00    -0.241 N 
HETATM    2  C   UNL     1      42.026 -13.716   2.887  1.00  0.00     0.272 C 
HETATM    3  O   UNL     1      42.698 -12.877   2.285  1.00  0.00    -0.266 OA
HETATM    4  C   UNL     1      41.793 -15.062   2.333  1.00  0.00     0.054 A 
HETATM    5  C   UNL     1      40.696 -15.780   2.830  1.00  0.00     0.026 A 
HETATM    6  N   UNL     1      39.888 -15.237   3.846  1.00  0.00    -0.265 NA
HETATM    7  C   UNL     1      40.633 -14.438   4.834  1.00  0.00     0.217 C 
HETATM    8  C   UNL     1      42.565 -15.548   1.274  1.00  0.00     0.019 A 
HETATM    9  C   UNL     1      42.235 -16.772   0.697  1.00  0.00     0.001 A 
HETATM   10  C   UNL     1      41.123 -17.482   1.156  1.00  0.00     0.002 A 
HETATM   11  C   UNL     1      40.347 -16.979   2.205  1.00  0.00     0.024 A 
HETATM   12  H   UNL     1      39.271 -15.916   4.276  1.00  0.00     0.130 HD
ENDROOT
BRANCH   7  13
HETATM   13  C   UNL     1      41.497 -15.339   5.734  1.00  0.00    -0.020 A 
HETATM   14  C   UNL     1      41.017 -16.555   6.255  1.00  0.00     0.013 A 
HETATM   15  C   UNL     1      41.824 -17.379   7.049  1.00  0.00     0.037 A 
HETATM   16  C   UNL     1      43.126 -16.993   7.334  1.00  0.00     0.065 A 
HETATM   17  C   UNL     1      43.637 -15.809   6.828  1.00  0.00     0.037 A 
HETATM   18  C   UNL     1      42.836 -14.996   6.020  1.00  0.00     0.013 A 
BRANCH  16  19
HETATM   19  O   UNL     1      43.945 -17.762   8.106  1.00  0.00    -0.361 OA
HETATM   20  H   UNL     1      43.774 -18.697   7.907  1.00  0.00     0.217 HD
ENDBRANCH  16  19
ENDBRANCH   7  13
BRANCH   1  21
HETATM   21  N   UNL     1      41.001 -12.006   4.259  1.00  0.00    -0.123 NA
HETATM   22  H   UNL     1      41.308 -11.626   5.164  1.00  0.00     0.165 HD
BRANCH  21  23
HETATM   23  S   UNL     1      39.433 -11.501   3.868  1.00  0.00     0.222 S 
HETATM   24  C   UNL     1      39.763  -9.878   3.216  1.00  0.00     0.181 C 
HETATM   25  O   UNL     1      38.666 -11.365   5.086  1.00  0.00    -0.210 OA
HETATM   26  O   UNL     1      38.980 -12.334   2.777  1.00  0.00    -0.210 OA
ENDBRANCH  21  23
ENDBRANCH   1  21
TORSDOF 4
ENDMDL
