MODEL 1
REMARK VINA RESULT:      -8.2      0.000      0.000
REMARK  8 active torsions:
REMARK  status: ('A' for Active; 'I' for Inactive)
REMARK       I    between atoms: N_2  and  C_3 
REMARK       I    between atoms: C_3  and  N_4 
REMARK       I    between atoms: N_4  and  C_5 
REMARK    1  A    between atoms: C_5  and  C_6 
REMARK    2  A    between atoms: C_6  and  N_7 
REMARK    3  A    between atoms: N_7  and  C_8 
REMARK    4  A    between atoms: C_9  and  C_10 
REMARK       I    between atoms: C_10  and  N_11 
REMARK    5  A    between atoms: N_11  and  C_12 
REMARK    6  A    between atoms: C_12  and  C_13 
REMARK    7  A    between atoms: C_13  and  C_14 
REMARK    8  A    between atoms: C_17  and  O_18 
ROOT
HETATM    1  C   UNL     1      43.758 -19.561   2.904  1.00  0.00     0.024 A 
HETATM    2  C   UNL     1      44.321 -20.123   4.072  1.00  0.00     0.053 A 
HETATM    3  C   UNL     1      44.680 -21.483   4.100  1.00  0.00     0.019 A 
HETATM    4  C   UNL     1      44.480 -22.290   2.981  1.00  0.00     0.001 A 
HETATM    5  C   UNL     1      43.917 -21.747   1.830  1.00  0.00     0.002 A 
HETATM    6  C   UNL     1      43.554 -20.399   1.795  1.00  0.00     0.024 A 
ENDROOT
BRANCH   2   7
HETATM    7  C   UNL     1      44.559 -19.321   5.304  1.00  0.00     0.253 C 
HETATM    8  N   UNL     1      43.630 -19.484   6.316  1.00  0.00    -0.357 N 
HETATM    9  H   UNL     1      43.018 -20.291   6.281  1.00  0.00     0.162 HD
HETATM   10  O   UNL     1      45.514 -18.559   5.393  1.00  0.00    -0.268 OA
BRANCH   8  11
HETATM   11  C   UNL     1      43.825 -18.824   7.595  1.00  0.00     0.127 C 
BRANCH  11  12
HETATM   12  C   UNL     1      42.922 -17.602   7.782  1.00  0.00     0.058 C 
BRANCH  12  13
HETATM   13  C   UNL     1      42.545 -16.801   6.554  1.00  0.00    -0.057 A 
HETATM   14  C   UNL     1      41.315 -16.924   5.899  1.00  0.00     0.010 A 
HETATM   15  C   UNL     1      41.005 -16.103   4.809  1.00  0.00     0.037 A 
HETATM   16  C   UNL     1      41.903 -15.130   4.367  1.00  0.00     0.068 A 
HETATM   17  C   UNL     1      43.131 -15.001   5.009  1.00  0.00     0.037 A 
HETATM   18  C   UNL     1      43.445 -15.827   6.094  1.00  0.00     0.010 A 
BRANCH  16  19
HETATM   19  O   UNL     1      41.467 -14.381   3.309  1.00  0.00    -0.356 OA
HETATM   20  C   UNL     1      40.088 -14.036   3.299  1.00  0.00     0.210 C 
ENDBRANCH  16  19
ENDBRANCH  12  13
ENDBRANCH  11  12
ENDBRANCH   8  11
ENDBRANCH   2   7
BRANCH   1  21
HETATM   21  N   UNL     1      43.361 -18.208   2.803  1.00  0.00    -0.283 NA
HETATM   22  H   UNL     1      43.927 -17.624   3.418  1.00  0.00     0.128 HD
BRANCH  21  23
HETATM   23  C   UNL     1      43.443 -17.668   1.416  1.00  0.00     0.195 C 
BRANCH  23  24
HETATM   24  C   UNL     1      42.148 -16.925   1.060  1.00  0.00     0.238 C 
HETATM   25  N   UNL     1      42.389 -15.696   0.464  1.00  0.00    -0.278 N 
HETATM   26  C   UNL     1      41.526 -14.798  -0.101  1.00  0.00     0.322 C 
HETATM   27  H   UNL     1      43.368 -15.437   0.418  1.00  0.00     0.173 HD
HETATM   28  N   UNL     1      40.206 -15.140  -0.060  1.00  0.00    -0.347 N 
HETATM   29  O   UNL     1      41.948 -13.774  -0.633  1.00  0.00    -0.247 OA
HETATM   30  C   UNL     1      39.182 -14.246  -0.526  1.00  0.00     0.151 C 
HETATM   31  H   UNL     1      39.960 -15.894   0.578  1.00  0.00     0.163 HD
HETATM   32  O   UNL     1      41.030 -17.379   1.301  1.00  0.00    -0.272 OA
ENDBRANCH  23  24
ENDBRANCH  21  23
ENDBRANCH   1  21
TORSDOF 8
ENDMDL
MODEL 2
REMARK VINA RESULT:      -8.1      1.151      1.593
REMARK  8 active torsions:
REMARK  status: ('A' for Active; 'I' for Inactive)
REMARK       I    between atoms: N_2  and  C_3 
REMARK       I    between atoms: C_3  and  N_4 
REMARK       I    between atoms: N_4  and  C_5 
REMARK    1  A    between atoms: C_5  and  C_6 
REMARK    2  A    between atoms: C_6  and  N_7 
REMARK    3  A    between atoms: N_7  and  C_8 
REMARK    4  A    between atoms: C_9  and  C_10 
REMARK       I    between atoms: C_10  and  N_11 
REMARK    5  A    between atoms: N_11  and  C_12 
REMARK    6  A    between atoms: C_12  and  C_13 
REMARK    7  A    between atoms: C_13  and  C_14 
REMARK    8  A    between atoms: C_17  and  O_18 
ROOT
HETATM    1  C   UNL     1      43.936 -19.589   3.006  1.00  0.00     0.024 A 
HETATM    2  C   UNL     1      44.469 -20.138   4.193  1.00  0.00     0.053 A 
HETATM    3  C   UNL     1      44.753 -21.514   4.272  1.00  0.00     0.019 A 
HETATM    4  C   UNL     1      44.507 -22.349   3.183  1.00  0.00     0.001 A 
HETATM    5  C   UNL     1      43.973 -21.819   2.013  1.00  0.00     0.002 A 
HETATM    6  C   UNL     1      43.685 -20.455   1.928  1.00  0.00     0.024 A 
ENDROOT
BRANCH   2   7
HETATM    7  C   UNL     1      44.753 -19.306   5.395  1.00  0.00     0.253 C 
HETATM    8  N   UNL     1      43.830 -19.398   6.422  1.00  0.00    -0.357 N 
HETATM    9  H   UNL     1      43.186 -20.180   6.421  1.00  0.00     0.162 HD
HETATM   10  O   UNL     1      45.738 -18.581   5.449  1.00  0.00    -0.268 OA
BRANCH   8  11
HETATM   11  C   UNL     1      44.065 -18.704   7.676  1.00  0.00     0.127 C 
BRANCH  11  12
HETATM   12  C   UNL     1      42.996 -17.653   7.989  1.00  0.00     0.058 C 
BRANCH  12  13
HETATM   13  C   UNL     1      42.696 -16.608   6.936  1.00  0.00    -0.057 A 
HETATM   14  C   UNL     1      43.679 -15.832   6.314  1.00  0.00     0.010 A 
HETATM   15  C   UNL     1      43.338 -14.932   5.299  1.00  0.00     0.037 A 
HETATM   16  C   UNL     1      42.016 -14.804   4.870  1.00  0.00     0.068 A 
HETATM   17  C   UNL     1      41.028 -15.568   5.484  1.00  0.00     0.037 A 
HETATM   18  C   UNL     1      41.367 -16.464   6.504  1.00  0.00     0.010 A 
BRANCH  16  19
HETATM   19  O   UNL     1      41.823 -13.907   3.856  1.00  0.00    -0.356 OA
HETATM   20  C   UNL     1      42.900 -13.737   2.943  1.00  0.00     0.210 C 
ENDBRANCH  16  19
ENDBRANCH  12  13
ENDBRANCH  11  12
ENDBRANCH   8  11
ENDBRANCH   2   7
BRANCH   1  21
HETATM   21  N   UNL     1      43.613 -18.222   2.855  1.00  0.00    -0.283 NA
HETATM   22  H   UNL     1      43.927 -17.881   1.946  1.00  0.00     0.128 HD
BRANCH  21  23
HETATM   23  C   UNL     1      42.157 -17.937   2.998  1.00  0.00     0.195 C 
BRANCH  23  24
HETATM   24  C   UNL     1      41.671 -17.069   1.829  1.00  0.00     0.238 C 
HETATM   25  N   UNL     1      40.501 -16.386   2.127  1.00  0.00    -0.278 N 
HETATM   26  C   UNL     1      39.822 -15.435   1.416  1.00  0.00     0.322 C 
HETATM   27  H   UNL     1      40.102 -16.612   3.032  1.00  0.00     0.173 HD
HETATM   28  N   UNL     1      40.355 -15.109   0.204  1.00  0.00    -0.347 N 
HETATM   29  O   UNL     1      38.817 -14.903   1.884  1.00  0.00    -0.247 OA
HETATM   30  C   UNL     1      39.692 -14.201  -0.691  1.00  0.00     0.151 C 
HETATM   31  H   UNL     1      41.054 -15.751  -0.163  1.00  0.00     0.163 HD
HETATM   32  O   UNL     1      42.258 -17.013   0.750  1.00  0.00    -0.272 OA
ENDBRANCH  23  24
ENDBRANCH  21  23
ENDBRANCH   1  21
TORSDOF 8
ENDMDL
MODEL 3
REMARK VINA RESULT:      -7.7      2.157      6.907
REMARK  8 active torsions:
REMARK  status: ('A' for Active; 'I' for Inactive)
REMARK       I    between atoms: N_2  and  C_3 
REMARK       I    between atoms: C_3  and  N_4 
REMARK       I    between atoms: N_4  and  C_5 
REMARK    1  A    between atoms: C_5  and  C_6 
REMARK    2  A    between atoms: C_6  and  N_7 
REMARK    3  A    between atoms: N_7  and  C_8 
REMARK    4  A    between atoms: C_9  and  C_10 
REMARK       I    between atoms: C_10  and  N_11 
REMARK    5  A    between atoms: N_11  and  C_12 
REMARK    6  A    between atoms: C_12  and  C_13 
REMARK    7  A    between atoms: C_13  and  C_14 
REMARK    8  A    between atoms: C_17  and  O_18 
ROOT
HETATM    1  C   UNL     1      39.344 -13.937  -1.415  1.00  0.00     0.024 A 
HETATM    2  C   UNL     1      40.468 -14.792  -1.378  1.00  0.00     0.053 A 
HETATM    3  C   UNL     1      40.746 -15.643  -2.463  1.00  0.00     0.019 A 
HETATM    4  C   UNL     1      39.915 -15.655  -3.582  1.00  0.00     0.001 A 
HETATM    5  C   UNL     1      38.800 -14.825  -3.624  1.00  0.00     0.002 A 
HETATM    6  C   UNL     1      38.514 -13.980  -2.549  1.00  0.00     0.024 A 
ENDROOT
BRANCH   2   7
HETATM    7  C   UNL     1      41.395 -14.833  -0.214  1.00  0.00     0.253 C 
HETATM    8  N   UNL     1      41.644 -16.088   0.313  1.00  0.00    -0.357 N 
HETATM    9  H   UNL     1      41.412 -16.899  -0.248  1.00  0.00     0.162 HD
HETATM   10  O   UNL     1      41.887 -13.809   0.245  1.00  0.00    -0.268 OA
BRANCH   8  11
HETATM   11  C   UNL     1      42.612 -16.248   1.385  1.00  0.00     0.127 C 
BRANCH  11  12
HETATM   12  C   UNL     1      43.568 -17.422   1.158  1.00  0.00     0.058 C 
BRANCH  12  13
HETATM   13  C   UNL     1      43.821 -18.368   2.312  1.00  0.00    -0.057 A 
HETATM   14  C   UNL     1      44.183 -19.708   2.147  1.00  0.00     0.010 A 
HETATM   15  C   UNL     1      44.470 -20.509   3.259  1.00  0.00     0.037 A 
HETATM   16  C   UNL     1      44.420 -19.984   4.551  1.00  0.00     0.068 A 
HETATM   17  C   UNL     1      44.057 -18.652   4.728  1.00  0.00     0.037 A 
HETATM   18  C   UNL     1      43.763 -17.853   3.617  1.00  0.00     0.010 A 
BRANCH  16  19
HETATM   19  O   UNL     1      44.744 -20.866   5.545  1.00  0.00    -0.356 OA
HETATM   20  C   UNL     1      44.939 -22.220   5.155  1.00  0.00     0.210 C 
ENDBRANCH  16  19
ENDBRANCH  12  13
ENDBRANCH  11  12
ENDBRANCH   8  11
ENDBRANCH   2   7
BRANCH   1  21
HETATM   21  N   UNL     1      38.991 -13.065  -0.361  1.00  0.00    -0.283 NA
HETATM   22  H   UNL     1      38.609 -12.195  -0.732  1.00  0.00     0.128 HD
BRANCH  21  23
HETATM   23  C   UNL     1      38.006 -13.654   0.592  1.00  0.00     0.195 C 
BRANCH  23  24
HETATM   24  C   UNL     1      38.739 -14.414   1.706  1.00  0.00     0.238 C 
HETATM   25  N   UNL     1      39.466 -13.570   2.533  1.00  0.00    -0.278 N 
HETATM   26  C   UNL     1      40.146 -13.830   3.690  1.00  0.00     0.322 C 
HETATM   27  H   UNL     1      39.470 -12.599   2.242  1.00  0.00     0.173 HD
HETATM   28  N   UNL     1      40.138 -15.130   4.103  1.00  0.00    -0.347 N 
HETATM   29  O   UNL     1      40.691 -12.921   4.313  1.00  0.00    -0.247 OA
HETATM   30  C   UNL     1      40.894 -15.563   5.245  1.00  0.00     0.151 C 
HETATM   31  H   UNL     1      39.839 -15.815   3.412  1.00  0.00     0.163 HD
HETATM   32  O   UNL     1      38.687 -15.637   1.826  1.00  0.00    -0.272 OA
ENDBRANCH  23  24
ENDBRANCH  21  23
ENDBRANCH   1  21
TORSDOF 8
ENDMDL
MODEL 4
REMARK VINA RESULT:      -7.6      2.303      7.371
REMARK  8 active torsions:
REMARK  status: ('A' for Active; 'I' for Inactive)
REMARK       I    between atoms: N_2  and  C_3 
REMARK       I    between atoms: C_3  and  N_4 
REMARK       I    between atoms: N_4  and  C_5 
REMARK    1  A    between atoms: C_5  and  C_6 
REMARK    2  A    between atoms: C_6  and  N_7 
REMARK    3  A    between atoms: N_7  and  C_8 
REMARK    4  A    between atoms: C_9  and  C_10 
REMARK       I    between atoms: C_10  and  N_11 
REMARK    5  A    between atoms: N_11  and  C_12 
REMARK    6  A    between atoms: C_12  and  C_13 
REMARK    7  A    between atoms: C_13  and  C_14 
REMARK    8  A    between atoms: C_17  and  O_18 
ROOT
HETATM    1  C   UNL     1      40.157 -13.194   2.528  1.00  0.00     0.024 A 
HETATM    2  C   UNL     1      39.551 -14.345   1.977  1.00  0.00     0.053 A 
HETATM    3  C   UNL     1      38.344 -14.237   1.263  1.00  0.00     0.019 A 
HETATM    4  C   UNL     1      37.731 -12.996   1.096  1.00  0.00     0.001 A 
HETATM    5  C   UNL     1      38.314 -11.859   1.645  1.00  0.00     0.002 A 
HETATM    6  C   UNL     1      39.511 -11.958   2.358  1.00  0.00     0.024 A 
ENDROOT
BRANCH   2   7
HETATM    7  C   UNL     1      40.149 -15.701   2.120  1.00  0.00     0.253 C 
HETATM    8  N   UNL     1      40.432 -16.361   0.937  1.00  0.00    -0.357 N 
HETATM    9  H   UNL     1      40.467 -15.820   0.081  1.00  0.00     0.162 HD
HETATM   10  O   UNL     1      40.358 -16.193   3.222  1.00  0.00    -0.268 OA
BRANCH   8  11
HETATM   11  C   UNL     1      41.108 -17.647   0.965  1.00  0.00     0.127 C 
BRANCH  11  12
HETATM   12  C   UNL     1      42.610 -17.528   1.235  1.00  0.00     0.058 C 
BRANCH  12  13
HETATM   13  C   UNL     1      43.227 -18.463   2.252  1.00  0.00    -0.057 A 
HETATM   14  C   UNL     1      43.699 -19.742   1.940  1.00  0.00     0.010 A 
HETATM   15  C   UNL     1      44.322 -20.528   2.916  1.00  0.00     0.037 A 
HETATM   16  C   UNL     1      44.504 -20.047   4.213  1.00  0.00     0.068 A 
HETATM   17  C   UNL     1      44.034 -18.778   4.537  1.00  0.00     0.037 A 
HETATM   18  C   UNL     1      43.405 -17.994   3.564  1.00  0.00     0.010 A 
BRANCH  16  19
HETATM   19  O   UNL     1      45.146 -20.906   5.062  1.00  0.00    -0.356 OA
HETATM   20  C   UNL     1      44.889 -22.293   4.878  1.00  0.00     0.210 C 
ENDBRANCH  16  19
ENDBRANCH  12  13
ENDBRANCH  11  12
ENDBRANCH   8  11
ENDBRANCH   2   7
BRANCH   1  21
HETATM   21  N   UNL     1      41.360 -13.223   3.269  1.00  0.00    -0.283 NA
HETATM   22  H   UNL     1      42.067 -12.639   2.822  1.00  0.00     0.128 HD
BRANCH  21  23
HETATM   23  C   UNL     1      41.197 -12.783   4.684  1.00  0.00     0.195 C 
BRANCH  23  24
HETATM   24  C   UNL     1      41.905 -13.764   5.628  1.00  0.00     0.238 C 
HETATM   25  N   UNL     1      41.177 -14.929   5.824  1.00  0.00    -0.278 N 
HETATM   26  C   UNL     1      41.505 -16.081   6.483  1.00  0.00     0.322 C 
HETATM   27  H   UNL     1      40.263 -14.931   5.383  1.00  0.00     0.173 HD
HETATM   28  N   UNL     1      42.736 -16.098   7.069  1.00  0.00    -0.347 N 
HETATM   29  O   UNL     1      40.729 -17.035   6.500  1.00  0.00    -0.247 OA
HETATM   30  C   UNL     1      43.170 -17.204   7.878  1.00  0.00     0.151 C 
HETATM   31  H   UNL     1      43.196 -15.195   7.168  1.00  0.00     0.163 HD
HETATM   32  O   UNL     1      42.989 -13.520   6.155  1.00  0.00    -0.272 OA
ENDBRANCH  23  24
ENDBRANCH  21  23
ENDBRANCH   1  21
TORSDOF 8
ENDMDL
MODEL 5
REMARK VINA RESULT:      -7.6      1.501      1.882
REMARK  8 active torsions:
REMARK  status: ('A' for Active; 'I' for Inactive)
REMARK       I    between atoms: N_2  and  C_3 
REMARK       I    between atoms: C_3  and  N_4 
REMARK       I    between atoms: N_4  and  C_5 
REMARK    1  A    between atoms: C_5  and  C_6 
REMARK    2  A    between atoms: C_6  and  N_7 
REMARK    3  A    between atoms: N_7  and  C_8 
REMARK    4  A    between atoms: C_9  and  C_10 
REMARK       I    between atoms: C_10  and  N_11 
REMARK    5  A    between atoms: N_11  and  C_12 
REMARK    6  A    between atoms: C_12  and  C_13 
REMARK    7  A    between atoms: C_13  and  C_14 
REMARK    8  A    between atoms: C_17  and  O_18 
ROOT
HETATM    1  C   UNL     1      43.277 -18.621   3.153  1.00  0.00     0.024 A 
HETATM    2  C   UNL     1      43.649 -18.863   4.494  1.00  0.00     0.053 A 
HETATM    3  C   UNL     1      44.404 -20.004   4.824  1.00  0.00     0.019 A 
HETATM    4  C   UNL     1      44.786 -20.908   3.834  1.00  0.00     0.001 A 
HETATM    5  C   UNL     1      44.415 -20.684   2.513  1.00  0.00     0.002 A 
HETATM    6  C   UNL     1      43.663 -19.556   2.177  1.00  0.00     0.024 A 
ENDROOT
BRANCH   2   7
HETATM    7  C   UNL     1      43.272 -17.941   5.601  1.00  0.00     0.253 C 
HETATM    8  N   UNL     1      44.301 -17.182   6.128  1.00  0.00    -0.357 N 
HETATM    9  H   UNL     1      45.158 -17.096   5.593  1.00  0.00     0.162 HD
HETATM   10  O   UNL     1      42.121 -17.882   6.016  1.00  0.00    -0.268 OA
BRANCH   8  11
HETATM   11  C   UNL     1      44.021 -16.181   7.143  1.00  0.00     0.127 C 
BRANCH  11  12
HETATM   12  C   UNL     1      44.039 -14.752   6.594  1.00  0.00     0.058 C 
BRANCH  12  13
HETATM   13  C   UNL     1      43.158 -14.435   5.404  1.00  0.00    -0.057 A 
HETATM   14  C   UNL     1      41.761 -14.483   5.443  1.00  0.00     0.010 A 
HETATM   15  C   UNL     1      41.006 -14.110   4.325  1.00  0.00     0.037 A 
HETATM   16  C   UNL     1      41.627 -13.664   3.158  1.00  0.00     0.068 A 
HETATM   17  C   UNL     1      43.017 -13.615   3.106  1.00  0.00     0.037 A 
HETATM   18  C   UNL     1      43.773 -13.995   4.221  1.00  0.00     0.010 A 
BRANCH  16  19
HETATM   19  O   UNL     1      40.774 -13.309   2.149  1.00  0.00    -0.356 OA
HETATM   20  C   UNL     1      39.390 -13.540   2.376  1.00  0.00     0.210 C 
ENDBRANCH  16  19
ENDBRANCH  12  13
ENDBRANCH  11  12
ENDBRANCH   8  11
ENDBRANCH   2   7
BRANCH   1  21
HETATM   21  N   UNL     1      42.509 -17.507   2.745  1.00  0.00    -0.283 NA
HETATM   22  H   UNL     1      42.606 -16.743   3.415  1.00  0.00     0.128 HD
BRANCH  21  23
HETATM   23  C   UNL     1      42.869 -17.003   1.389  1.00  0.00     0.195 C 
BRANCH  23  24
HETATM   24  C   UNL     1      41.653 -16.331   0.735  1.00  0.00     0.238 C 
HETATM   25  N   UNL     1      42.015 -15.322  -0.145  1.00  0.00    -0.278 N 
HETATM   26  C   UNL     1      41.254 -14.577  -1.003  1.00  0.00     0.322 C 
HETATM   27  H   UNL     1      43.010 -15.126  -0.172  1.00  0.00     0.173 HD
HETATM   28  N   UNL     1      39.916 -14.839  -0.988  1.00  0.00    -0.347 N 
HETATM   29  O   UNL     1      41.779 -13.754  -1.750  1.00  0.00    -0.247 OA
HETATM   30  C   UNL     1      38.988 -14.063  -1.764  1.00  0.00     0.151 C 
HETATM   31  H   UNL     1      39.576 -15.380  -0.196  1.00  0.00     0.163 HD
HETATM   32  O   UNL     1      40.494 -16.656   0.989  1.00  0.00    -0.272 OA
ENDBRANCH  23  24
ENDBRANCH  21  23
ENDBRANCH   1  21
TORSDOF 8
ENDMDL
MODEL 6
REMARK VINA RESULT:      -7.3      2.288      6.288
REMARK  8 active torsions:
REMARK  status: ('A' for Active; 'I' for Inactive)
REMARK       I    between atoms: N_2  and  C_3 
REMARK       I    between atoms: C_3  and  N_4 
REMARK       I    between atoms: N_4  and  C_5 
REMARK    1  A    between atoms: C_5  and  C_6 
REMARK    2  A    between atoms: C_6  and  N_7 
REMARK    3  A    between atoms: N_7  and  C_8 
REMARK    4  A    between atoms: C_9  and  C_10 
REMARK       I    between atoms: C_10  and  N_11 
REMARK    5  A    between atoms: N_11  and  C_12 
REMARK    6  A    between atoms: C_12  and  C_13 
REMARK    7  A    between atoms: C_13  and  C_14 
REMARK    8  A    between atoms: C_17  and  O_18 
ROOT
HETATM    1  C   UNL     1      40.508 -14.473   3.981  1.00  0.00     0.024 A 
HETATM    2  C   UNL     1      41.851 -14.535   4.413  1.00  0.00     0.053 A 
HETATM    3  C   UNL     1      42.345 -13.586   5.327  1.00  0.00     0.019 A 
HETATM    4  C   UNL     1      41.518 -12.573   5.809  1.00  0.00     0.001 A 
HETATM    5  C   UNL     1      40.197 -12.497   5.380  1.00  0.00     0.002 A 
HETATM    6  C   UNL     1      39.699 -13.434   4.471  1.00  0.00     0.024 A 
ENDROOT
BRANCH   2   7
HETATM    7  C   UNL     1      42.790 -15.588   3.937  1.00  0.00     0.253 C 
HETATM    8  N   UNL     1      42.937 -15.686   2.565  1.00  0.00    -0.357 N 
HETATM    9  H   UNL     1      42.625 -14.911   1.991  1.00  0.00     0.162 HD
HETATM   10  O   UNL     1      43.377 -16.321   4.723  1.00  0.00    -0.268 OA
BRANCH   8  11
HETATM   11  C   UNL     1      43.903 -16.612   2.001  1.00  0.00     0.127 C 
BRANCH  11  12
HETATM   12  C   UNL     1      43.270 -17.922   1.525  1.00  0.00     0.058 C 
BRANCH  12  13
HETATM   13  C   UNL     1      43.746 -19.214   2.155  1.00  0.00    -0.057 A 
HETATM   14  C   UNL     1      44.394 -19.277   3.393  1.00  0.00     0.010 A 
HETATM   15  C   UNL     1      44.745 -20.512   3.949  1.00  0.00     0.037 A 
HETATM   16  C   UNL     1      44.440 -21.705   3.293  1.00  0.00     0.068 A 
HETATM   17  C   UNL     1      43.799 -21.655   2.059  1.00  0.00     0.037 A 
HETATM   18  C   UNL     1      43.453 -20.420   1.499  1.00  0.00     0.010 A 
BRANCH  16  19
HETATM   19  O   UNL     1      44.818 -22.841   3.956  1.00  0.00    -0.356 OA
HETATM   20  C   UNL     1      45.256 -22.678   5.299  1.00  0.00     0.210 C 
ENDBRANCH  16  19
ENDBRANCH  12  13
ENDBRANCH  11  12
ENDBRANCH   8  11
ENDBRANCH   2   7
BRANCH   1  21
HETATM   21  N   UNL     1      39.942 -15.381   3.057  1.00  0.00    -0.283 NA
HETATM   22  H   UNL     1      39.368 -16.071   3.542  1.00  0.00     0.128 HD
BRANCH  21  23
HETATM   23  C   UNL     1      39.116 -14.721   2.006  1.00  0.00     0.195 C 
BRANCH  23  24
HETATM   24  C   UNL     1      39.886 -14.674   0.679  1.00  0.00     0.238 C 
HETATM   25  N   UNL     1      39.063 -14.396  -0.402  1.00  0.00    -0.278 N 
HETATM   26  C   UNL     1      39.369 -14.152  -1.712  1.00  0.00     0.322 C 
HETATM   27  H   UNL     1      38.076 -14.338  -0.173  1.00  0.00     0.173 HD
HETATM   28  N   UNL     1      40.694 -14.211  -2.031  1.00  0.00    -0.347 N 
HETATM   29  O   UNL     1      38.486 -13.868  -2.518  1.00  0.00    -0.247 OA
HETATM   30  C   UNL     1      41.148 -14.076  -3.388  1.00  0.00     0.151 C 
HETATM   31  H   UNL     1      41.299 -14.653  -1.342  1.00  0.00     0.163 HD
HETATM   32  O   UNL     1      41.096 -14.881   0.602  1.00  0.00    -0.272 OA
ENDBRANCH  23  24
ENDBRANCH  21  23
ENDBRANCH   1  21
TORSDOF 8
ENDMDL
MODEL 7
REMARK VINA RESULT:      -7.0      2.548      7.528
REMARK  8 active torsions:
REMARK  status: ('A' for Active; 'I' for Inactive)
REMARK       I    between atoms: N_2  and  C_3 
REMARK       I    between atoms: C_3  and  N_4 
REMARK       I    between atoms: N_4  and  C_5 
REMARK    1  A    between atoms: C_5  and  C_6 
REMARK    2  A    between atoms: C_6  and  N_7 
REMARK    3  A    between atoms: N_7  and  C_8 
REMARK    4  A    between atoms: C_9  and  C_10 
REMARK       I    between atoms: C_10  and  N_11 
REMARK    5  A    between atoms: N_11  and  C_12 
REMARK    6  A    between atoms: C_12  and  C_13 
REMARK    7  A    between atoms: C_13  and  C_14 
REMARK    8  A    between atoms: C_17  and  O_18 
ROOT
HETATM    1  C   UNL     1      40.714 -12.599   4.633  1.00  0.00     0.024 A 
HETATM    2  C   UNL     1      41.563 -12.693   3.509  1.00  0.00     0.053 A 
HETATM    3  C   UNL     1      41.376 -11.838   2.407  1.00  0.00     0.019 A 
HETATM    4  C   UNL     1      40.348 -10.897   2.410  1.00  0.00     0.001 A 
HETATM    5  C   UNL     1      39.499 -10.805   3.508  1.00  0.00     0.002 A 
HETATM    6  C   UNL     1      39.676 -11.652   4.605  1.00  0.00     0.024 A 
ENDROOT
BRANCH   2   7
HETATM    7  C   UNL     1      42.679 -13.676   3.436  1.00  0.00     0.253 C 
HETATM    8  N   UNL     1      42.472 -14.760   2.601  1.00  0.00    -0.357 N 
HETATM    9  H   UNL     1      41.730 -14.702   1.914  1.00  0.00     0.162 HD
HETATM   10  O   UNL     1      43.702 -13.529   4.093  1.00  0.00    -0.268 OA
BRANCH   8  11
HETATM   11  C   UNL     1      43.536 -15.724   2.383  1.00  0.00     0.127 C 
BRANCH  11  12
HETATM   12  C   UNL     1      43.029 -17.061   1.836  1.00  0.00     0.058 C 
BRANCH  12  13
HETATM   13  C   UNL     1      43.520 -18.332   2.496  1.00  0.00    -0.057 A 
HETATM   14  C   UNL     1      43.671 -19.546   1.817  1.00  0.00     0.010 A 
HETATM   15  C   UNL     1      44.195 -20.665   2.473  1.00  0.00     0.037 A 
HETATM   16  C   UNL     1      44.598 -20.591   3.807  1.00  0.00     0.068 A 
HETATM   17  C   UNL     1      44.449 -19.389   4.493  1.00  0.00     0.037 A 
HETATM   18  C   UNL     1      43.918 -18.271   3.841  1.00  0.00     0.010 A 
BRANCH  16  19
HETATM   19  O   UNL     1      45.113 -21.749   4.320  1.00  0.00    -0.356 OA
HETATM   20  C   UNL     1      44.662 -22.128   5.614  1.00  0.00     0.210 C 
ENDBRANCH  16  19
ENDBRANCH  12  13
ENDBRANCH  11  12
ENDBRANCH   8  11
ENDBRANCH   2   7
BRANCH   1  21
HETATM   21  N   UNL     1      40.830 -13.430   5.771  1.00  0.00    -0.283 NA
HETATM   22  H   UNL     1      40.482 -12.948   6.600  1.00  0.00     0.128 HD
BRANCH  21  23
HETATM   23  C   UNL     1      40.112 -14.729   5.634  1.00  0.00     0.195 C 
BRANCH  23  24
HETATM   24  C   UNL     1      40.957 -15.865   6.227  1.00  0.00     0.238 C 
HETATM   25  N   UNL     1      42.295 -15.520   6.352  1.00  0.00    -0.278 N 
HETATM   26  C   UNL     1      43.334 -16.190   6.936  1.00  0.00     0.322 C 
HETATM   27  H   UNL     1      42.531 -14.610   5.970  1.00  0.00     0.173 HD
HETATM   28  N   UNL     1      43.029 -17.409   7.467  1.00  0.00    -0.347 N 
HETATM   29  O   UNL     1      44.453 -15.684   6.990  1.00  0.00    -0.247 OA
HETATM   30  C   UNL     1      44.042 -18.264   8.020  1.00  0.00     0.151 C 
HETATM   31  H   UNL     1      42.137 -17.809   7.183  1.00  0.00     0.163 HD
HETATM   32  O   UNL     1      40.484 -16.957   6.536  1.00  0.00    -0.272 OA
ENDBRANCH  23  24
ENDBRANCH  21  23
ENDBRANCH   1  21
TORSDOF 8
ENDMDL
MODEL 8
REMARK VINA RESULT:      -7.0      2.373      6.443
REMARK  8 active torsions:
REMARK  status: ('A' for Active; 'I' for Inactive)
REMARK       I    between atoms: N_2  and  C_3 
REMARK       I    between atoms: C_3  and  N_4 
REMARK       I    between atoms: N_4  and  C_5 
REMARK    1  A    between atoms: C_5  and  C_6 
REMARK    2  A    between atoms: C_6  and  N_7 
REMARK    3  A    between atoms: N_7  and  C_8 
REMARK    4  A    between atoms: C_9  and  C_10 
REMARK       I    between atoms: C_10  and  N_11 
REMARK    5  A    between atoms: N_11  and  C_12 
REMARK    6  A    between atoms: C_12  and  C_13 
REMARK    7  A    between atoms: C_13  and  C_14 
REMARK    8  A    between atoms: C_17  and  O_18 
ROOT
HETATM    1  C   UNL     1      41.642 -13.003   3.176  1.00  0.00     0.024 A 
HETATM    2  C   UNL     1      40.880 -14.180   3.343  1.00  0.00     0.053 A 
HETATM    3  C   UNL     1      40.090 -14.355   4.494  1.00  0.00     0.019 A 
HETATM    4  C   UNL     1      40.055 -13.373   5.482  1.00  0.00     0.001 A 
HETATM    5  C   UNL     1      40.810 -12.214   5.331  1.00  0.00     0.002 A 
HETATM    6  C   UNL     1      41.600 -12.034   4.193  1.00  0.00     0.024 A 
ENDROOT
BRANCH   2   7
HETATM    7  C   UNL     1      40.873 -15.271   2.330  1.00  0.00     0.253 C 
HETATM    8  N   UNL     1      42.116 -15.740   1.942  1.00  0.00    -0.357 N 
HETATM    9  H   UNL     1      42.916 -15.521   2.525  1.00  0.00     0.162 HD
HETATM   10  O   UNL     1      39.825 -15.706   1.868  1.00  0.00    -0.268 OA
BRANCH   8  11
HETATM   11  C   UNL     1      42.217 -16.870   1.034  1.00  0.00     0.127 C 
BRANCH  11  12
HETATM   12  C   UNL     1      43.591 -17.544   1.069  1.00  0.00     0.058 C 
BRANCH  12  13
HETATM   13  C   UNL     1      43.864 -18.548   2.169  1.00  0.00    -0.057 A 
HETATM   14  C   UNL     1      44.069 -19.912   1.936  1.00  0.00     0.010 A 
HETATM   15  C   UNL     1      44.385 -20.773   2.993  1.00  0.00     0.037 A 
HETATM   16  C   UNL     1      44.524 -20.289   4.294  1.00  0.00     0.068 A 
HETATM   17  C   UNL     1      44.319 -18.934   4.538  1.00  0.00     0.037 A 
HETATM   18  C   UNL     1      43.996 -18.073   3.483  1.00  0.00     0.010 A 
BRANCH  16  19
HETATM   19  O   UNL     1      44.858 -21.231   5.228  1.00  0.00    -0.356 OA
HETATM   20  C   UNL     1      44.783 -22.589   4.816  1.00  0.00     0.210 C 
ENDBRANCH  16  19
ENDBRANCH  12  13
ENDBRANCH  11  12
ENDBRANCH   8  11
ENDBRANCH   2   7
BRANCH   1  21
HETATM   21  N   UNL     1      42.468 -12.760   2.055  1.00  0.00    -0.283 NA
HETATM   22  H   UNL     1      42.749 -13.641   1.623  1.00  0.00     0.128 HD
BRANCH  21  23
HETATM   23  C   UNL     1      41.828 -11.899   1.020  1.00  0.00     0.195 C 
BRANCH  23  24
HETATM   24  C   UNL     1      41.461 -12.739  -0.212  1.00  0.00     0.238 C 
HETATM   25  N   UNL     1      40.135 -13.144  -0.201  1.00  0.00    -0.278 N 
HETATM   26  C   UNL     1      39.396 -13.790  -1.153  1.00  0.00     0.322 C 
HETATM   27  H   UNL     1      39.627 -12.895   0.641  1.00  0.00     0.173 HD
HETATM   28  N   UNL     1      40.061 -14.119  -2.297  1.00  0.00    -0.347 N 
HETATM   29  O   UNL     1      38.201 -14.016  -0.970  1.00  0.00    -0.247 OA
HETATM   30  C   UNL     1      39.436 -14.888  -3.337  1.00  0.00     0.151 C 
HETATM   31  H   UNL     1      41.077 -14.071  -2.252  1.00  0.00     0.163 HD
HETATM   32  O   UNL     1      42.273 -13.024  -1.091  1.00  0.00    -0.272 OA
ENDBRANCH  23  24
ENDBRANCH  21  23
ENDBRANCH   1  21
TORSDOF 8
ENDMDL
MODEL 9
REMARK VINA RESULT:      -6.9      2.531      6.035
REMARK  8 active torsions:
REMARK  status: ('A' for Active; 'I' for Inactive)
REMARK       I    between atoms: N_2  and  C_3 
REMARK       I    between atoms: C_3  and  N_4 
REMARK       I    between atoms: N_4  and  C_5 
REMARK    1  A    between atoms: C_5  and  C_6 
REMARK    2  A    between atoms: C_6  and  N_7 
REMARK    3  A    between atoms: N_7  and  C_8 
REMARK    4  A    between atoms: C_9  and  C_10 
REMARK       I    between atoms: C_10  and  N_11 
REMARK    5  A    between atoms: N_11  and  C_12 
REMARK    6  A    between atoms: C_12  and  C_13 
REMARK    7  A    between atoms: C_13  and  C_14 
REMARK    8  A    between atoms: C_17  and  O_18 
ROOT
HETATM    1  C   UNL     1      43.665 -18.813   4.748  1.00  0.00     0.024 A 
HETATM    2  C   UNL     1      43.588 -18.662   3.346  1.00  0.00     0.053 A 
HETATM    3  C   UNL     1      44.143 -19.638   2.498  1.00  0.00     0.019 A 
HETATM    4  C   UNL     1      44.777 -20.759   3.031  1.00  0.00     0.001 A 
HETATM    5  C   UNL     1      44.867 -20.911   4.410  1.00  0.00     0.002 A 
HETATM    6  C   UNL     1      44.322 -19.945   5.260  1.00  0.00     0.024 A 
ENDROOT
BRANCH   2   7
HETATM    7  C   UNL     1      42.928 -17.490   2.708  1.00  0.00     0.253 C 
HETATM    8  N   UNL     1      41.952 -17.784   1.774  1.00  0.00    -0.357 N 
HETATM    9  H   UNL     1      41.565 -18.720   1.761  1.00  0.00     0.162 HD
HETATM   10  O   UNL     1      43.251 -16.343   2.994  1.00  0.00    -0.268 OA
BRANCH   8  11
HETATM   11  C   UNL     1      41.179 -16.713   1.168  1.00  0.00     0.127 C 
BRANCH  11  12
HETATM   12  C   UNL     1      41.745 -16.254  -0.179  1.00  0.00     0.058 C 
BRANCH  12  13
HETATM   13  C   UNL     1      40.872 -15.387  -1.060  1.00  0.00    -0.057 A 
HETATM   14  C   UNL     1      40.084 -14.338  -0.574  1.00  0.00     0.010 A 
HETATM   15  C   UNL     1      39.354 -13.531  -1.454  1.00  0.00     0.037 A 
HETATM   16  C   UNL     1      39.412 -13.740  -2.832  1.00  0.00     0.068 A 
HETATM   17  C   UNL     1      40.190 -14.783  -3.327  1.00  0.00     0.037 A 
HETATM   18  C   UNL     1      40.914 -15.595  -2.448  1.00  0.00     0.010 A 
BRANCH  16  19
HETATM   19  O   UNL     1      38.670 -12.868  -3.580  1.00  0.00    -0.356 OA
HETATM   20  C   UNL     1      37.352 -12.597  -3.119  1.00  0.00     0.210 C 
ENDBRANCH  16  19
ENDBRANCH  12  13
ENDBRANCH  11  12
ENDBRANCH   8  11
ENDBRANCH   2   7
BRANCH   1  21
HETATM   21  N   UNL     1      43.144 -17.871   5.664  1.00  0.00    -0.283 NA
HETATM   22  H   UNL     1      42.562 -18.337   6.361  1.00  0.00     0.128 HD
BRANCH  21  23
HETATM   23  C   UNL     1      44.196 -17.082   6.366  1.00  0.00     0.195 C 
BRANCH  23  24
HETATM   24  C   UNL     1      43.763 -15.614   6.486  1.00  0.00     0.238 C 
HETATM   25  N   UNL     1      42.665 -15.319   5.692  1.00  0.00    -0.278 N 
HETATM   26  C   UNL     1      41.912 -14.181   5.605  1.00  0.00     0.322 C 
HETATM   27  H   UNL     1      42.359 -16.083   5.100  1.00  0.00     0.173 HD
HETATM   28  N   UNL     1      42.303 -13.150   6.407  1.00  0.00    -0.347 N 
HETATM   29  O   UNL     1      40.931 -14.135   4.866  1.00  0.00    -0.247 OA
HETATM   30  C   UNL     1      41.665 -11.863   6.345  1.00  0.00     0.151 C 
HETATM   31  H   UNL     1      43.234 -13.227   6.811  1.00  0.00     0.163 HD
HETATM   32  O   UNL     1      44.349 -14.802   7.201  1.00  0.00    -0.272 OA
ENDBRANCH  23  24
ENDBRANCH  21  23
ENDBRANCH   1  21
TORSDOF 8
ENDMDL
MODEL 10
REMARK VINA RESULT:      -6.9      2.232      5.750
REMARK  8 active torsions:
REMARK  status: ('A' for Active; 'I' for Inactive)
REMARK       I    between atoms: N_2  and  C_3 
REMARK       I    between atoms: C_3  and  N_4 
REMARK       I    between atoms: N_4  and  C_5 
REMARK    1  A    between atoms: C_5  and  C_6 
REMARK    2  A    between atoms: C_6  and  N_7 
REMARK    3  A    between atoms: N_7  and  C_8 
REMARK    4  A    between atoms: C_9  and  C_10 
REMARK       I    between atoms: C_10  and  N_11 
REMARK    5  A    between atoms: N_11  and  C_12 
REMARK    6  A    between atoms: C_12  and  C_13 
REMARK    7  A    between atoms: C_13  and  C_14 
REMARK    8  A    between atoms: C_17  and  O_18 
ROOT
HETATM    1  C   UNL     1      41.005 -13.280   3.838  1.00  0.00     0.024 A 
HETATM    2  C   UNL     1      41.683 -13.154   5.071  1.00  0.00     0.053 A 
HETATM    3  C   UNL     1      41.115 -12.405   6.118  1.00  0.00     0.019 A 
HETATM    4  C   UNL     1      39.884 -11.775   5.949  1.00  0.00     0.001 A 
HETATM    5  C   UNL     1      39.214 -11.883   4.734  1.00  0.00     0.002 A 
HETATM    6  C   UNL     1      39.771 -12.623   3.689  1.00  0.00     0.024 A 
ENDROOT
BRANCH   2   7
HETATM    7  C   UNL     1      43.002 -13.798   5.320  1.00  0.00     0.253 C 
HETATM    8  N   UNL     1      43.080 -14.592   6.450  1.00  0.00    -0.357 N 
HETATM    9  H   UNL     1      42.217 -14.898   6.883  1.00  0.00     0.162 HD
HETATM   10  O   UNL     1      43.953 -13.613   4.570  1.00  0.00    -0.268 OA
BRANCH   8  11
HETATM   11  C   UNL     1      44.292 -15.344   6.729  1.00  0.00     0.127 C 
BRANCH  11  12
HETATM   12  C   UNL     1      44.031 -16.833   6.967  1.00  0.00     0.058 C 
BRANCH  12  13
HETATM   13  C   UNL     1      44.049 -17.760   5.770  1.00  0.00    -0.057 A 
HETATM   14  C   UNL     1      43.457 -17.448   4.542  1.00  0.00     0.010 A 
HETATM   15  C   UNL     1      43.571 -18.322   3.456  1.00  0.00     0.037 A 
HETATM   16  C   UNL     1      44.294 -19.511   3.566  1.00  0.00     0.068 A 
HETATM   17  C   UNL     1      44.885 -19.834   4.784  1.00  0.00     0.037 A 
HETATM   18  C   UNL     1      44.765 -18.964   5.873  1.00  0.00     0.010 A 
BRANCH  16  19
HETATM   19  O   UNL     1      44.347 -20.262   2.424  1.00  0.00    -0.356 OA
HETATM   20  C   UNL     1      44.373 -21.674   2.592  1.00  0.00     0.210 C 
ENDBRANCH  16  19
ENDBRANCH  12  13
ENDBRANCH  11  12
ENDBRANCH   8  11
ENDBRANCH   2   7
BRANCH   1  21
HETATM   21  N   UNL     1      41.515 -14.003   2.737  1.00  0.00    -0.283 NA
HETATM   22  H   UNL     1      42.530 -14.087   2.806  1.00  0.00     0.128 HD
BRANCH  21  23
HETATM   23  C   UNL     1      40.928 -15.366   2.599  1.00  0.00     0.195 C 
BRANCH  23  24
HETATM   24  C   UNL     1      40.843 -15.757   1.117  1.00  0.00     0.238 C 
HETATM   25  N   UNL     1      40.251 -14.771   0.342  1.00  0.00    -0.278 N 
HETATM   26  C   UNL     1      40.100 -14.678  -1.014  1.00  0.00     0.322 C 
HETATM   27  H   UNL     1      39.898 -13.979   0.869  1.00  0.00     0.173 HD
HETATM   28  N   UNL     1      40.583 -15.728  -1.737  1.00  0.00    -0.347 N 
HETATM   29  O   UNL     1      39.586 -13.682  -1.519  1.00  0.00    -0.247 OA
HETATM   30  C   UNL     1      40.402 -15.810  -3.160  1.00  0.00     0.151 C 
HETATM   31  H   UNL     1      40.793 -16.573  -1.210  1.00  0.00     0.163 HD
HETATM   32  O   UNL     1      41.246 -16.837   0.687  1.00  0.00    -0.272 OA
ENDBRANCH  23  24
ENDBRANCH  21  23
ENDBRANCH   1  21
TORSDOF 8
ENDMDL
