MODEL 1
REMARK VINA RESULT:      -9.2      0.000      0.000
REMARK  5 active torsions:
REMARK  status: ('A' for Active; 'I' for Inactive)
REMARK    1  A    between atoms: C_2  and  C_3 
REMARK    2  A    between atoms: C_7  and  C_8 
REMARK       I    between atoms: C_8  and  N_9 
REMARK    3  A    between atoms: N_9  and  C_10 
REMARK    4  A    between atoms: C_12  and  N_13 
REMARK       I    between atoms: N_13  and  C_14 
REMARK    5  A    between atoms: C_14  and  C_15 
ROOT
HETATM    1  C   UNL     1      43.409 -14.241   5.862  1.00  0.00     0.037 A 
HETATM    2  C   UNL     1      43.544 -15.627   5.714  1.00  0.00     0.059 A 
HETATM    3  C   UNL     1      43.446 -16.230   4.452  1.00  0.00     0.037 A 
HETATM    4  C   UNL     1      43.209 -15.425   3.332  1.00  0.00     0.029 A 
HETATM    5  C   UNL     1      43.047 -14.047   3.471  1.00  0.00     0.004 A 
HETATM    6  C   UNL     1      43.143 -13.459   4.732  1.00  0.00     0.029 A 
ENDROOT
BRANCH   1   7
HETATM    7  N   UNL     1      43.521 -13.561   7.096  1.00  0.00    -0.322 N 
HETATM    8  C   UNL     1      44.677 -13.194   7.757  1.00  0.00     0.274 C 
HETATM    9  O   UNL     1      45.818 -13.350   7.340  1.00  0.00    -0.266 OA
HETATM   10  H   UNL     1      42.652 -13.261   7.513  1.00  0.00     0.169 HD
BRANCH   8  11
HETATM   11  C   UNL     1      44.460 -12.548   9.031  1.00  0.00     0.120 A 
HETATM   12  N   UNL     1      44.279 -13.290  10.169  1.00  0.00    -0.273 N 
HETATM   13  N   UNL     1      44.088 -12.559  11.278  1.00  0.00    -0.179 NA
HETATM   14  H   UNL     1      44.280 -14.305  10.235  1.00  0.00     0.189 HD
HETATM   15  C   UNL     1      44.132 -11.296  10.843  1.00  0.00     0.056 A 
HETATM   16  C   UNL     1      44.365 -11.234   9.446  1.00  0.00     0.065 A 
BRANCH  15  17
HETATM   17  C   UNL     1      43.939 -10.163  11.792  1.00  0.00     0.056 C 
HETATM   18  C   UNL     1      42.998 -10.521  12.932  1.00  0.00     0.011 C 
ENDBRANCH  15  17
ENDBRANCH   8  11
ENDBRANCH   1   7
BRANCH   3  19
HETATM   19  N   UNL     1      43.598 -17.616   4.223  1.00  0.00    -0.323 N 
HETATM   20  C   UNL     1      44.386 -18.502   4.936  1.00  0.00     0.256 C 
HETATM   21  O   UNL     1      45.039 -18.257   5.944  1.00  0.00    -0.267 OA
HETATM   22  H   UNL     1      43.102 -17.979   3.422  1.00  0.00     0.169 HD
BRANCH  20  23
HETATM   23  C   UNL     1      44.449 -19.889   4.391  1.00  0.00     0.032 A 
HETATM   24  C   UNL     1      44.237 -20.058   3.015  1.00  0.00     0.017 A 
HETATM   25  C   UNL     1      44.272 -21.333   2.450  1.00  0.00     0.001 A 
HETATM   26  C   UNL     1      44.526 -22.444   3.253  1.00  0.00     0.000 A 
HETATM   27  C   UNL     1      44.758 -22.280   4.619  1.00  0.00     0.001 A 
HETATM   28  C   UNL     1      44.727 -21.004   5.190  1.00  0.00     0.017 A 
ENDBRANCH  20  23
ENDBRANCH   3  19
TORSDOF 5
ENDMDL
MODEL 2
REMARK VINA RESULT:      -8.5      1.957      9.785
REMARK  5 active torsions:
REMARK  status: ('A' for Active; 'I' for Inactive)
REMARK    1  A    between atoms: C_2  and  C_3 
REMARK    2  A    between atoms: C_7  and  C_8 
REMARK       I    between atoms: C_8  and  N_9 
REMARK    3  A    between atoms: N_9  and  C_10 
REMARK    4  A    between atoms: C_12  and  N_13 
REMARK       I    between atoms: N_13  and  C_14 
REMARK    5  A    between atoms: C_14  and  C_15 
ROOT
HETATM    1  C   UNL     1      44.926 -13.816   7.209  1.00  0.00     0.037 A 
HETATM    2  C   UNL     1      44.288 -13.399   8.384  1.00  0.00     0.059 A 
HETATM    3  C   UNL     1      44.862 -12.423   9.209  1.00  0.00     0.037 A 
HETATM    4  C   UNL     1      46.093 -11.864   8.845  1.00  0.00     0.029 A 
HETATM    5  C   UNL     1      46.750 -12.290   7.691  1.00  0.00     0.004 A 
HETATM    6  C   UNL     1      46.170 -13.265   6.880  1.00  0.00     0.029 A 
ENDROOT
BRANCH   1   7
HETATM    7  N   UNL     1      44.397 -14.775   6.316  1.00  0.00    -0.322 N 
HETATM    8  C   UNL     1      43.858 -16.009   6.624  1.00  0.00     0.274 C 
HETATM    9  O   UNL     1      43.693 -16.455   7.752  1.00  0.00    -0.266 OA
HETATM   10  H   UNL     1      44.360 -14.498   5.346  1.00  0.00     0.169 HD
BRANCH   8  11
HETATM   11  C   UNL     1      43.442 -16.783   5.478  1.00  0.00     0.120 A 
HETATM   12  N   UNL     1      42.232 -16.547   4.878  1.00  0.00    -0.273 N 
HETATM   13  N   UNL     1      41.976 -17.341   3.826  1.00  0.00    -0.179 NA
HETATM   14  H   UNL     1      41.545 -15.851   5.154  1.00  0.00     0.189 HD
HETATM   15  C   UNL     1      43.052 -18.130   3.748  1.00  0.00     0.056 A 
HETATM   16  C   UNL     1      43.999 -17.820   4.755  1.00  0.00     0.065 A 
BRANCH  15  17
HETATM   17  C   UNL     1      43.142 -19.182   2.696  1.00  0.00     0.056 C 
HETATM   18  C   UNL     1      44.350 -20.085   2.887  1.00  0.00     0.011 C 
ENDBRANCH  15  17
ENDBRANCH   8  11
ENDBRANCH   1   7
BRANCH   3  19
HETATM   19  N   UNL     1      44.264 -11.935  10.394  1.00  0.00    -0.323 N 
HETATM   20  C   UNL     1      43.175 -11.087  10.495  1.00  0.00     0.256 C 
HETATM   21  O   UNL     1      42.485 -10.666   9.574  1.00  0.00    -0.267 OA
HETATM   22  H   UNL     1      44.718 -12.211  11.253  1.00  0.00     0.169 HD
BRANCH  20  23
HETATM   23  C   UNL     1      42.837 -10.637  11.876  1.00  0.00     0.032 A 
HETATM   24  C   UNL     1      41.643 -11.105  12.441  1.00  0.00     0.017 A 
HETATM   25  C   UNL     1      41.269 -10.709  13.725  1.00  0.00     0.001 A 
HETATM   26  C   UNL     1      42.091  -9.851  14.455  1.00  0.00     0.000 A 
HETATM   27  C   UNL     1      43.291  -9.398  13.906  1.00  0.00     0.001 A 
HETATM   28  C   UNL     1      43.671  -9.794  12.621  1.00  0.00     0.017 A 
ENDBRANCH  20  23
ENDBRANCH   3  19
TORSDOF 5
ENDMDL
MODEL 3
REMARK VINA RESULT:      -8.4      3.642      3.832
REMARK  5 active torsions:
REMARK  status: ('A' for Active; 'I' for Inactive)
REMARK    1  A    between atoms: C_2  and  C_3 
REMARK    2  A    between atoms: C_7  and  C_8 
REMARK       I    between atoms: C_8  and  N_9 
REMARK    3  A    between atoms: N_9  and  C_10 
REMARK    4  A    between atoms: C_12  and  N_13 
REMARK       I    between atoms: N_13  and  C_14 
REMARK    5  A    between atoms: C_14  and  C_15 
ROOT
HETATM    1  C   UNL     1      40.215 -14.782   3.975  1.00  0.00     0.037 A 
HETATM    2  C   UNL     1      40.957 -15.952   4.179  1.00  0.00     0.059 A 
HETATM    3  C   UNL     1      41.210 -16.838   3.123  1.00  0.00     0.037 A 
HETATM    4  C   UNL     1      40.709 -16.539   1.850  1.00  0.00     0.029 A 
HETATM    5  C   UNL     1      39.947 -15.391   1.641  1.00  0.00     0.004 A 
HETATM    6  C   UNL     1      39.698 -14.519   2.701  1.00  0.00     0.029 A 
ENDROOT
BRANCH   1   7
HETATM    7  N   UNL     1      39.941 -13.830   4.984  1.00  0.00    -0.322 N 
HETATM    8  C   UNL     1      40.774 -12.835   5.454  1.00  0.00     0.274 C 
HETATM    9  O   UNL     1      41.888 -12.572   5.020  1.00  0.00    -0.266 OA
HETATM   10  H   UNL     1      39.006 -13.850   5.363  1.00  0.00     0.169 HD
BRANCH   8  11
HETATM   11  C   UNL     1      40.218 -12.047   6.530  1.00  0.00     0.120 A 
HETATM   12  N   UNL     1      39.438 -12.633   7.493  1.00  0.00    -0.273 N 
HETATM   13  N   UNL     1      38.990 -11.782   8.430  1.00  0.00    -0.179 NA
HETATM   14  H   UNL     1      39.184 -13.615   7.550  1.00  0.00     0.189 HD
HETATM   15  C   UNL     1      39.485 -10.599   8.055  1.00  0.00     0.056 A 
HETATM   16  C   UNL     1      40.263 -10.711   6.875  1.00  0.00     0.065 A 
BRANCH  15  17
HETATM   17  C   UNL     1      39.190  -9.372   8.846  1.00  0.00     0.056 C 
HETATM   18  C   UNL     1      38.665  -9.695  10.236  1.00  0.00     0.011 C 
ENDBRANCH  15  17
ENDBRANCH   8  11
ENDBRANCH   1   7
BRANCH   3  19
HETATM   19  N   UNL     1      41.972 -18.022   3.249  1.00  0.00    -0.323 N 
HETATM   20  C   UNL     1      43.257 -18.245   2.784  1.00  0.00     0.256 C 
HETATM   21  O   UNL     1      43.995 -17.429   2.245  1.00  0.00    -0.267 OA
HETATM   22  H   UNL     1      41.499 -18.796   3.692  1.00  0.00     0.169 HD
BRANCH  20  23
HETATM   23  C   UNL     1      43.767 -19.637   2.951  1.00  0.00     0.032 A 
HETATM   24  C   UNL     1      43.577 -20.532   1.889  1.00  0.00     0.017 A 
HETATM   25  C   UNL     1      44.023 -21.850   1.991  1.00  0.00     0.001 A 
HETATM   26  C   UNL     1      44.667 -22.279   3.151  1.00  0.00     0.000 A 
HETATM   27  C   UNL     1      44.877 -21.387   4.204  1.00  0.00     0.001 A 
HETATM   28  C   UNL     1      44.434 -20.065   4.105  1.00  0.00     0.017 A 
ENDBRANCH  20  23
ENDBRANCH   3  19
TORSDOF 5
ENDMDL
MODEL 4
REMARK VINA RESULT:      -8.4      5.961      9.501
REMARK  5 active torsions:
REMARK  status: ('A' for Active; 'I' for Inactive)
REMARK    1  A    between atoms: C_2  and  C_3 
REMARK    2  A    between atoms: C_7  and  C_8 
REMARK       I    between atoms: C_8  and  N_9 
REMARK    3  A    between atoms: N_9  and  C_10 
REMARK    4  A    between atoms: C_12  and  N_13 
REMARK       I    between atoms: N_13  and  C_14 
REMARK    5  A    between atoms: C_14  and  C_15 
ROOT
HETATM    1  C   UNL     1      40.349 -15.125   0.990  1.00  0.00     0.037 A 
HETATM    2  C   UNL     1      40.985 -16.343   1.258  1.00  0.00     0.059 A 
HETATM    3  C   UNL     1      41.758 -16.515   2.414  1.00  0.00     0.037 A 
HETATM    4  C   UNL     1      41.889 -15.446   3.308  1.00  0.00     0.029 A 
HETATM    5  C   UNL     1      41.281 -14.220   3.040  1.00  0.00     0.004 A 
HETATM    6  C   UNL     1      40.519 -14.060   1.883  1.00  0.00     0.029 A 
ENDROOT
BRANCH   1   7
HETATM    7  N   UNL     1      39.535 -14.886  -0.140  1.00  0.00    -0.322 N 
HETATM    8  C   UNL     1      39.907 -14.326  -1.346  1.00  0.00     0.274 C 
HETATM    9  O   UNL     1      41.044 -13.993  -1.658  1.00  0.00    -0.266 OA
HETATM   10  H   UNL     1      38.583 -15.216  -0.073  1.00  0.00     0.169 HD
BRANCH   8  11
HETATM   11  C   UNL     1      38.828 -14.171  -2.293  1.00  0.00     0.120 A 
HETATM   12  N   UNL     1      38.253 -15.267  -2.882  1.00  0.00    -0.273 N 
HETATM   13  N   UNL     1      37.263 -14.974  -3.741  1.00  0.00    -0.179 NA
HETATM   14  H   UNL     1      38.506 -16.239  -2.727  1.00  0.00     0.189 HD
HETATM   15  C   UNL     1      37.202 -13.639  -3.720  1.00  0.00     0.056 A 
HETATM   16  C   UNL     1      38.156 -13.089  -2.828  1.00  0.00     0.065 A 
BRANCH  15  17
HETATM   17  C   UNL     1      36.218 -12.916  -4.573  1.00  0.00     0.056 C 
HETATM   18  C   UNL     1      35.173 -13.848  -5.165  1.00  0.00     0.011 C 
ENDBRANCH  15  17
ENDBRANCH   8  11
ENDBRANCH   1   7
BRANCH   3  19
HETATM   19  N   UNL     1      42.406 -17.722   2.762  1.00  0.00    -0.323 N 
HETATM   20  C   UNL     1      43.583 -18.224   2.234  1.00  0.00     0.256 C 
HETATM   21  O   UNL     1      44.316 -17.673   1.422  1.00  0.00    -0.267 OA
HETATM   22  H   UNL     1      41.923 -18.292   3.442  1.00  0.00     0.169 HD
BRANCH  20  23
HETATM   23  C   UNL     1      43.967 -19.586   2.703  1.00  0.00     0.032 A 
HETATM   24  C   UNL     1      43.782 -20.657   1.817  1.00  0.00     0.017 A 
HETATM   25  C   UNL     1      44.112 -21.956   2.205  1.00  0.00     0.001 A 
HETATM   26  C   UNL     1      44.637 -22.191   3.475  1.00  0.00     0.000 A 
HETATM   27  C   UNL     1      44.843 -21.127   4.354  1.00  0.00     0.001 A 
HETATM   28  C   UNL     1      44.516 -19.823   3.969  1.00  0.00     0.017 A 
ENDBRANCH  20  23
ENDBRANCH   3  19
TORSDOF 5
ENDMDL
MODEL 5
REMARK VINA RESULT:      -8.4      6.560      8.753
REMARK  5 active torsions:
REMARK  status: ('A' for Active; 'I' for Inactive)
REMARK    1  A    between atoms: C_2  and  C_3 
REMARK    2  A    between atoms: C_7  and  C_8 
REMARK       I    between atoms: C_8  and  N_9 
REMARK    3  A    between atoms: N_9  and  C_10 
REMARK    4  A    between atoms: C_12  and  N_13 
REMARK       I    between atoms: N_13  and  C_14 
REMARK    5  A    between atoms: C_14  and  C_15 
ROOT
HETATM    1  C   UNL     1      41.000 -14.780   0.080  1.00  0.00     0.037 A 
HETATM    2  C   UNL     1      41.709 -15.948   0.390  1.00  0.00     0.059 A 
HETATM    3  C   UNL     1      41.289 -16.791   1.428  1.00  0.00     0.037 A 
HETATM    4  C   UNL     1      40.144 -16.452   2.158  1.00  0.00     0.029 A 
HETATM    5  C   UNL     1      39.446 -15.279   1.875  1.00  0.00     0.004 A 
HETATM    6  C   UNL     1      39.876 -14.445   0.843  1.00  0.00     0.029 A 
ENDROOT
BRANCH   1   7
HETATM    7  N   UNL     1      41.348 -13.896  -0.966  1.00  0.00    -0.322 N 
HETATM    8  C   UNL     1      42.052 -12.711  -0.872  1.00  0.00     0.274 C 
HETATM    9  O   UNL     1      42.552 -12.257   0.149  1.00  0.00    -0.266 OA
HETATM   10  H   UNL     1      41.099 -14.197  -1.897  1.00  0.00     0.169 HD
BRANCH   8  11
HETATM   11  C   UNL     1      42.207 -12.006  -2.123  1.00  0.00     0.120 A 
HETATM   12  N   UNL     1      42.378 -12.694  -3.296  1.00  0.00    -0.273 N 
HETATM   13  N   UNL     1      42.510 -11.911  -4.379  1.00  0.00    -0.179 NA
HETATM   14  H   UNL     1      42.411 -13.704  -3.406  1.00  0.00     0.189 HD
HETATM   15  C   UNL     1      42.436 -10.669  -3.890  1.00  0.00     0.056 A 
HETATM   16  C   UNL     1      42.244 -10.673  -2.486  1.00  0.00     0.065 A 
BRANCH  15  17
HETATM   17  C   UNL     1      42.560  -9.493  -4.796  1.00  0.00     0.056 C 
HETATM   18  C   UNL     1      42.344  -8.177  -4.064  1.00  0.00     0.011 C 
ENDBRANCH  15  17
ENDBRANCH   8  11
ENDBRANCH   1   7
BRANCH   3  19
HETATM   19  N   UNL     1      41.938 -17.997   1.780  1.00  0.00    -0.323 N 
HETATM   20  C   UNL     1      43.023 -18.149   2.625  1.00  0.00     0.256 C 
HETATM   21  O   UNL     1      43.571 -17.271   3.281  1.00  0.00    -0.267 OA
HETATM   22  H   UNL     1      41.586 -18.826   1.323  1.00  0.00     0.169 HD
BRANCH  20  23
HETATM   23  C   UNL     1      43.578 -19.530   2.714  1.00  0.00     0.032 A 
HETATM   24  C   UNL     1      44.310 -19.866   3.861  1.00  0.00     0.017 A 
HETATM   25  C   UNL     1      44.863 -21.140   3.995  1.00  0.00     0.001 A 
HETATM   26  C   UNL     1      44.681 -22.087   2.988  1.00  0.00     0.000 A 
HETATM   27  C   UNL     1      43.936 -21.766   1.853  1.00  0.00     0.001 A 
HETATM   28  C   UNL     1      43.378 -20.491   1.715  1.00  0.00     0.017 A 
ENDBRANCH  20  23
ENDBRANCH   3  19
TORSDOF 5
ENDMDL
MODEL 6
REMARK VINA RESULT:      -8.1      2.586      3.552
REMARK  5 active torsions:
REMARK  status: ('A' for Active; 'I' for Inactive)
REMARK    1  A    between atoms: C_2  and  C_3 
REMARK    2  A    between atoms: C_7  and  C_8 
REMARK       I    between atoms: C_8  and  N_9 
REMARK    3  A    between atoms: N_9  and  C_10 
REMARK    4  A    between atoms: C_12  and  N_13 
REMARK       I    between atoms: N_13  and  C_14 
REMARK    5  A    between atoms: C_14  and  C_15 
ROOT
HETATM    1  C   UNL     1      41.877 -11.677   6.863  1.00  0.00     0.037 A 
HETATM    2  C   UNL     1      42.155 -12.949   6.346  1.00  0.00     0.059 A 
HETATM    3  C   UNL     1      41.999 -13.222   4.981  1.00  0.00     0.037 A 
HETATM    4  C   UNL     1      41.556 -12.203   4.130  1.00  0.00     0.029 A 
HETATM    5  C   UNL     1      41.251 -10.940   4.637  1.00  0.00     0.004 A 
HETATM    6  C   UNL     1      41.406 -10.681   5.999  1.00  0.00     0.029 A 
ENDROOT
BRANCH   1   7
HETATM    7  N   UNL     1      42.035 -11.320   8.221  1.00  0.00    -0.322 N 
HETATM    8  C   UNL     1      43.211 -11.229   8.939  1.00  0.00     0.274 C 
HETATM    9  O   UNL     1      44.338 -11.388   8.486  1.00  0.00    -0.266 OA
HETATM   10  H   UNL     1      41.192 -11.047   8.705  1.00  0.00     0.169 HD
BRANCH   8  11
HETATM   11  C   UNL     1      43.039 -10.884  10.331  1.00  0.00     0.120 A 
HETATM   12  N   UNL     1      42.006 -11.415  11.059  1.00  0.00    -0.273 N 
HETATM   13  N   UNL     1      41.967 -11.006  12.337  1.00  0.00    -0.179 NA
HETATM   14  H   UNL     1      41.300 -12.063  10.722  1.00  0.00     0.189 HD
HETATM   15  C   UNL     1      43.004 -10.169  12.440  1.00  0.00     0.056 A 
HETATM   16  C   UNL     1      43.709 -10.061  11.215  1.00  0.00     0.065 A 
BRANCH  15  17
HETATM   17  C   UNL     1      43.293  -9.479  13.729  1.00  0.00     0.056 C 
HETATM   18  C   UNL     1      42.371  -9.939  14.847  1.00  0.00     0.011 C 
ENDBRANCH  15  17
ENDBRANCH   8  11
ENDBRANCH   1   7
BRANCH   3  19
HETATM   19  N   UNL     1      42.285 -14.472   4.386  1.00  0.00    -0.323 N 
HETATM   20  C   UNL     1      43.343 -14.779   3.547  1.00  0.00     0.256 C 
HETATM   21  O   UNL     1      44.266 -14.038   3.229  1.00  0.00    -0.267 OA
HETATM   22  H   UNL     1      41.612 -15.202   4.568  1.00  0.00     0.169 HD
BRANCH  20  23
HETATM   23  C   UNL     1      43.325 -16.152   2.967  1.00  0.00     0.032 A 
HETATM   24  C   UNL     1      42.911 -17.205   3.795  1.00  0.00     0.017 A 
HETATM   25  C   UNL     1      42.885 -18.513   3.310  1.00  0.00     0.001 A 
HETATM   26  C   UNL     1      43.263 -18.775   1.994  1.00  0.00     0.000 A 
HETATM   27  C   UNL     1      43.656 -17.729   1.159  1.00  0.00     0.001 A 
HETATM   28  C   UNL     1      43.682 -16.416   1.639  1.00  0.00     0.017 A 
ENDBRANCH  20  23
ENDBRANCH   3  19
TORSDOF 5
ENDMDL
MODEL 7
REMARK VINA RESULT:      -7.9      5.685      9.898
REMARK  5 active torsions:
REMARK  status: ('A' for Active; 'I' for Inactive)
REMARK    1  A    between atoms: C_2  and  C_3 
REMARK    2  A    between atoms: C_7  and  C_8 
REMARK       I    between atoms: C_8  and  N_9 
REMARK    3  A    between atoms: N_9  and  C_10 
REMARK    4  A    between atoms: C_12  and  N_13 
REMARK       I    between atoms: N_13  and  C_14 
REMARK    5  A    between atoms: C_14  and  C_15 
ROOT
HETATM    1  C   UNL     1      41.150 -15.939   1.467  1.00  0.00     0.037 A 
HETATM    2  C   UNL     1      41.608 -15.145   0.408  1.00  0.00     0.059 A 
HETATM    3  C   UNL     1      40.827 -14.097  -0.097  1.00  0.00     0.037 A 
HETATM    4  C   UNL     1      39.573 -13.848   0.473  1.00  0.00     0.029 A 
HETATM    5  C   UNL     1      39.096 -14.648   1.511  1.00  0.00     0.004 A 
HETATM    6  C   UNL     1      39.881 -15.691   2.002  1.00  0.00     0.029 A 
ENDROOT
BRANCH   1   7
HETATM    7  N   UNL     1      41.891 -16.995   2.045  1.00  0.00    -0.322 N 
HETATM    8  C   UNL     1      42.919 -16.903   2.962  1.00  0.00     0.274 C 
HETATM    9  O   UNL     1      43.323 -15.870   3.481  1.00  0.00    -0.266 OA
HETATM   10  H   UNL     1      41.593 -17.927   1.796  1.00  0.00     0.169 HD
BRANCH   8  11
HETATM   11  C   UNL     1      43.511 -18.169   3.328  1.00  0.00     0.120 A 
HETATM   12  N   UNL     1      44.198 -18.304   4.506  1.00  0.00    -0.273 N 
HETATM   13  N   UNL     1      44.694 -19.534   4.715  1.00  0.00    -0.179 NA
HETATM   14  H   UNL     1      44.354 -17.580   5.202  1.00  0.00     0.189 HD
HETATM   15  C   UNL     1      44.327 -20.219   3.628  1.00  0.00     0.056 A 
HETATM   16  C   UNL     1      43.583 -19.412   2.731  1.00  0.00     0.065 A 
BRANCH  15  17
HETATM   17  C   UNL     1      44.713 -21.650   3.472  1.00  0.00     0.056 C 
HETATM   18  C   UNL     1      44.423 -22.175   2.075  1.00  0.00     0.011 C 
ENDBRANCH  15  17
ENDBRANCH   8  11
ENDBRANCH   1   7
BRANCH   3  19
HETATM   19  N   UNL     1      41.234 -13.240  -1.145  1.00  0.00    -0.323 N 
HETATM   20  C   UNL     1      42.071 -12.141  -1.052  1.00  0.00     0.256 C 
HETATM   21  O   UNL     1      42.670 -11.757  -0.055  1.00  0.00    -0.267 OA
HETATM   22  H   UNL     1      40.829 -13.439  -2.048  1.00  0.00     0.169 HD
BRANCH  20  23
HETATM   23  C   UNL     1      42.227 -11.346  -2.304  1.00  0.00     0.032 A 
HETATM   24  C   UNL     1      42.368  -9.957  -2.181  1.00  0.00     0.017 A 
HETATM   25  C   UNL     1      42.507  -9.160  -3.317  1.00  0.00     0.001 A 
HETATM   26  C   UNL     1      42.512  -9.746  -4.582  1.00  0.00     0.000 A 
HETATM   27  C   UNL     1      42.392 -11.131  -4.711  1.00  0.00     0.001 A 
HETATM   28  C   UNL     1      42.256 -11.934  -3.574  1.00  0.00     0.017 A 
ENDBRANCH  20  23
ENDBRANCH   3  19
TORSDOF 5
ENDMDL
MODEL 8
REMARK VINA RESULT:      -7.8      6.673     10.204
REMARK  5 active torsions:
REMARK  status: ('A' for Active; 'I' for Inactive)
REMARK    1  A    between atoms: C_2  and  C_3 
REMARK    2  A    between atoms: C_7  and  C_8 
REMARK       I    between atoms: C_8  and  N_9 
REMARK    3  A    between atoms: N_9  and  C_10 
REMARK    4  A    between atoms: C_12  and  N_13 
REMARK       I    between atoms: N_13  and  C_14 
REMARK    5  A    between atoms: C_14  and  C_15 
ROOT
HETATM    1  C   UNL     1      40.515 -14.715  -0.164  1.00  0.00     0.037 A 
HETATM    2  C   UNL     1      41.029 -15.985   0.129  1.00  0.00     0.059 A 
HETATM    3  C   UNL     1      42.012 -16.155   1.113  1.00  0.00     0.037 A 
HETATM    4  C   UNL     1      42.479 -15.033   1.808  1.00  0.00     0.029 A 
HETATM    5  C   UNL     1      41.993 -13.761   1.507  1.00  0.00     0.004 A 
HETATM    6  C   UNL     1      41.018 -13.604   0.522  1.00  0.00     0.029 A 
ENDROOT
BRANCH   1   7
HETATM    7  N   UNL     1      39.507 -14.470  -1.123  1.00  0.00    -0.322 N 
HETATM    8  C   UNL     1      39.614 -14.541  -2.498  1.00  0.00     0.274 C 
HETATM    9  O   UNL     1      40.608 -14.897  -3.119  1.00  0.00    -0.266 OA
HETATM   10  H   UNL     1      38.588 -14.273  -0.755  1.00  0.00     0.169 HD
BRANCH   8  11
HETATM   11  C   UNL     1      38.410 -14.185  -3.213  1.00  0.00     0.120 A 
HETATM   12  N   UNL     1      38.045 -12.871  -3.355  1.00  0.00    -0.273 N 
HETATM   13  N   UNL     1      36.905 -12.688  -4.040  1.00  0.00    -0.179 NA
HETATM   14  H   UNL     1      38.548 -12.062  -2.999  1.00  0.00     0.189 HD
HETATM   15  C   UNL     1      36.508 -13.928  -4.342  1.00  0.00     0.056 A 
HETATM   16  C   UNL     1      37.415 -14.899  -3.851  1.00  0.00     0.065 A 
BRANCH  15  17
HETATM   17  C   UNL     1      35.245 -14.152  -5.100  1.00  0.00     0.056 C 
HETATM   18  C   UNL     1      35.387 -13.801  -6.572  1.00  0.00     0.011 C 
ENDBRANCH  15  17
ENDBRANCH   8  11
ENDBRANCH   1   7
BRANCH   3  19
HETATM   19  N   UNL     1      42.557 -17.407   1.480  1.00  0.00    -0.323 N 
HETATM   20  C   UNL     1      42.533 -17.997   2.731  1.00  0.00     0.256 C 
HETATM   21  O   UNL     1      41.968 -17.573   3.732  1.00  0.00    -0.267 OA
HETATM   22  H   UNL     1      43.052 -17.894   0.746  1.00  0.00     0.169 HD
BRANCH  20  23
HETATM   23  C   UNL     1      43.299 -19.271   2.854  1.00  0.00     0.032 A 
HETATM   24  C   UNL     1      44.049 -19.471   4.022  1.00  0.00     0.017 A 
HETATM   25  C   UNL     1      44.795 -20.638   4.188  1.00  0.00     0.001 A 
HETATM   26  C   UNL     1      44.790 -21.614   3.193  1.00  0.00     0.000 A 
HETATM   27  C   UNL     1      44.029 -21.431   2.037  1.00  0.00     0.001 A 
HETATM   28  C   UNL     1      43.278 -20.264   1.868  1.00  0.00     0.017 A 
ENDBRANCH  20  23
ENDBRANCH   3  19
TORSDOF 5
ENDMDL
MODEL 9
REMARK VINA RESULT:      -7.8      2.351      2.678
REMARK  5 active torsions:
REMARK  status: ('A' for Active; 'I' for Inactive)
REMARK    1  A    between atoms: C_2  and  C_3 
REMARK    2  A    between atoms: C_7  and  C_8 
REMARK       I    between atoms: C_8  and  N_9 
REMARK    3  A    between atoms: N_9  and  C_10 
REMARK    4  A    between atoms: C_12  and  N_13 
REMARK       I    between atoms: N_13  and  C_14 
REMARK    5  A    between atoms: C_14  and  C_15 
ROOT
HETATM    1  C   UNL     1      42.605 -13.519   5.075  1.00  0.00     0.037 A 
HETATM    2  C   UNL     1      42.975 -14.864   4.959  1.00  0.00     0.059 A 
HETATM    3  C   UNL     1      43.110 -15.469   3.702  1.00  0.00     0.037 A 
HETATM    4  C   UNL     1      42.869 -14.708   2.553  1.00  0.00     0.029 A 
HETATM    5  C   UNL     1      42.476 -13.374   2.656  1.00  0.00     0.004 A 
HETATM    6  C   UNL     1      42.340 -12.785   3.913  1.00  0.00     0.029 A 
ENDROOT
BRANCH   1   7
HETATM    7  N   UNL     1      42.474 -12.835   6.305  1.00  0.00    -0.322 N 
HETATM    8  C   UNL     1      41.597 -11.814   6.615  1.00  0.00     0.274 C 
HETATM    9  O   UNL     1      40.731 -11.367   5.873  1.00  0.00    -0.266 OA
HETATM   10  H   UNL     1      43.053 -13.174   7.060  1.00  0.00     0.169 HD
BRANCH   8  11
HETATM   11  C   UNL     1      41.740 -11.286   7.952  1.00  0.00     0.120 A 
HETATM   12  N   UNL     1      40.656 -11.200   8.787  1.00  0.00    -0.273 N 
HETATM   13  N   UNL     1      40.935 -10.691   9.998  1.00  0.00    -0.179 NA
HETATM   14  H   UNL     1      39.703 -11.479   8.572  1.00  0.00     0.189 HD
HETATM   15  C   UNL     1      42.244 -10.424   9.942  1.00  0.00     0.056 A 
HETATM   16  C   UNL     1      42.794 -10.781   8.686  1.00  0.00     0.065 A 
BRANCH  15  17
HETATM   17  C   UNL     1      42.941  -9.819  11.112  1.00  0.00     0.056 C 
HETATM   18  C   UNL     1      44.158 -10.624  11.537  1.00  0.00     0.011 C 
ENDBRANCH  15  17
ENDBRANCH   8  11
ENDBRANCH   1   7
BRANCH   3  19
HETATM   19  N   UNL     1      43.504 -16.813   3.509  1.00  0.00    -0.323 N 
HETATM   20  C   UNL     1      42.815 -17.799   2.824  1.00  0.00     0.256 C 
HETATM   21  O   UNL     1      41.771 -17.663   2.197  1.00  0.00    -0.267 OA
HETATM   22  H   UNL     1      44.367 -17.080   3.961  1.00  0.00     0.169 HD
BRANCH  20  23
HETATM   23  C   UNL     1      43.414 -19.163   2.888  1.00  0.00     0.032 A 
HETATM   24  C   UNL     1      44.161 -19.494   4.026  1.00  0.00     0.017 A 
HETATM   25  C   UNL     1      44.755 -20.752   4.136  1.00  0.00     0.001 A 
HETATM   26  C   UNL     1      44.598 -21.688   3.115  1.00  0.00     0.000 A 
HETATM   27  C   UNL     1      43.838 -21.371   1.988  1.00  0.00     0.001 A 
HETATM   28  C   UNL     1      43.239 -20.113   1.874  1.00  0.00     0.017 A 
ENDBRANCH  20  23
ENDBRANCH   3  19
TORSDOF 5
ENDMDL
MODEL 10
REMARK VINA RESULT:      -7.6      3.205      3.484
REMARK  5 active torsions:
REMARK  status: ('A' for Active; 'I' for Inactive)
REMARK    1  A    between atoms: C_2  and  C_3 
REMARK    2  A    between atoms: C_7  and  C_8 
REMARK       I    between atoms: C_8  and  N_9 
REMARK    3  A    between atoms: N_9  and  C_10 
REMARK    4  A    between atoms: C_12  and  N_13 
REMARK       I    between atoms: N_13  and  C_14 
REMARK    5  A    between atoms: C_14  and  C_15 
ROOT
HETATM    1  C   UNL     1      40.478 -13.958   5.401  1.00  0.00     0.037 A 
HETATM    2  C   UNL     1      41.220 -15.145   5.337  1.00  0.00     0.059 A 
HETATM    3  C   UNL     1      41.243 -15.918   4.169  1.00  0.00     0.037 A 
HETATM    4  C   UNL     1      40.510 -15.489   3.055  1.00  0.00     0.029 A 
HETATM    5  C   UNL     1      39.748 -14.324   3.116  1.00  0.00     0.004 A 
HETATM    6  C   UNL     1      39.729 -13.565   4.286  1.00  0.00     0.029 A 
ENDROOT
BRANCH   1   7
HETATM    7  N   UNL     1      40.427 -13.115   6.534  1.00  0.00    -0.322 N 
HETATM    8  C   UNL     1      40.825 -11.795   6.623  1.00  0.00     0.274 C 
HETATM    9  O   UNL     1      41.238 -11.110   5.697  1.00  0.00    -0.266 OA
HETATM   10  H   UNL     1      39.999 -13.511   7.358  1.00  0.00     0.169 HD
BRANCH   8  11
HETATM   11  C   UNL     1      40.689 -11.217   7.940  1.00  0.00     0.120 A 
HETATM   12  N   UNL     1      41.791 -11.005   8.726  1.00  0.00    -0.273 N 
HETATM   13  N   UNL     1      41.517 -10.463   9.923  1.00  0.00    -0.179 NA
HETATM   14  H   UNL     1      42.756 -11.217   8.485  1.00  0.00     0.189 HD
HETATM   15  C   UNL     1      40.187 -10.329   9.920  1.00  0.00     0.056 A 
HETATM   16  C   UNL     1      39.622 -10.783   8.702  1.00  0.00     0.065 A 
BRANCH  15  17
HETATM   17  C   UNL     1      39.482  -9.768  11.106  1.00  0.00     0.056 C 
HETATM   18  C   UNL     1      38.162  -9.110  10.734  1.00  0.00     0.011 C 
ENDBRANCH  15  17
ENDBRANCH   8  11
ENDBRANCH   1   7
BRANCH   3  19
HETATM   19  N   UNL     1      41.989 -17.111   4.023  1.00  0.00    -0.323 N 
HETATM   20  C   UNL     1      43.032 -17.345   3.144  1.00  0.00     0.256 C 
HETATM   21  O   UNL     1      43.547 -16.534   2.384  1.00  0.00    -0.267 OA
HETATM   22  H   UNL     1      41.688 -17.882   4.602  1.00  0.00     0.169 HD
BRANCH  20  23
HETATM   23  C   UNL     1      43.552 -18.742   3.123  1.00  0.00     0.032 A 
HETATM   24  C   UNL     1      44.204 -19.213   4.272  1.00  0.00     0.017 A 
HETATM   25  C   UNL     1      44.721 -20.508   4.306  1.00  0.00     0.001 A 
HETATM   26  C   UNL     1      44.583 -21.342   3.198  1.00  0.00     0.000 A 
HETATM   27  C   UNL     1      43.918 -20.887   2.059  1.00  0.00     0.001 A 
HETATM   28  C   UNL     1      43.395 -19.591   2.021  1.00  0.00     0.017 A 
ENDBRANCH  20  23
ENDBRANCH   3  19
TORSDOF 5
ENDMDL
