MODEL 1
REMARK VINA RESULT:     -10.7      0.000      0.000
REMARK  9 active torsions:
REMARK  status: ('A' for Active; 'I' for Inactive)
REMARK    1  A    between atoms: C_5  and  C_6 
REMARK    2  A    between atoms: C_6  and  N_7 
REMARK       I    between atoms: N_7  and  C_8 
REMARK    3  A    between atoms: C_8  and  C_9 
REMARK    4  A    between atoms: C_9  and  N_10 
REMARK    5  A    between atoms: N_14  and  C_15 
REMARK    6  A    between atoms: C_17  and  N_18 
REMARK    7  A    between atoms: N_18  and  C_19 
REMARK    8  A    between atoms: C_26  and  N_27 
REMARK    9  A    between atoms: N_27  and  C_28 
ROOT
HETATM    1  C   UNL     1      42.507 -16.027   3.771  1.00  0.00     0.756 A 
HETATM    2  N   UNL     1      43.379 -17.005   3.607  1.00  0.00     0.131 NA
HETATM    3  C   UNL     1      43.383 -17.611   2.424  1.00  0.00     0.758 A 
HETATM    4  N   UNL     1      42.558 -17.299   1.434  1.00  0.00     0.131 NA
HETATM    5  C   UNL     1      41.774 -16.251   1.645  1.00  0.00     0.758 A 
HETATM    6  N   UNL     1      41.739 -15.583   2.792  1.00  0.00     0.131 NA
ENDROOT
BRANCH   1   7
HETATM    7  N   UNL     1      42.368 -15.460   5.021  1.00  0.00    -0.210 N 
HETATM    8  C   UNL     1      42.269 -14.007   5.146  1.00  0.00     0.169 C 
HETATM    9  C   UNL     1      43.523 -13.448   5.857  1.00  0.00     0.256 C 
HETATM   10  N   UNL     1      43.712 -14.179   7.190  1.00  0.00    -0.060 N 
HETATM   11  H   UNL     1      42.820 -14.091   7.690  1.00  0.00     0.280 HD
HETATM   12  C   UNL     1      43.911 -15.681   6.938  1.00  0.00     0.256 C 
HETATM   13  C   UNL     1      42.668 -16.246   6.220  1.00  0.00     0.169 C 
BRANCH  10  14
HETATM   14  C   UNL     1      44.768 -13.552   8.088  1.00  0.00     0.337 C 
BRANCH  14  15
HETATM   15  C   UNL     1      44.518 -12.113   8.550  1.00  0.00     0.243 C 
HETATM   16  N   UNL     1      43.195 -11.832   8.810  1.00  0.00    -0.355 N 
HETATM   17  H   UNL     1      42.460 -12.467   8.525  1.00  0.00     0.162 HD
HETATM   18  O   UNL     1      45.429 -11.305   8.699  1.00  0.00    -0.272 OA
BRANCH  16  19
HETATM   19  C   UNL     1      42.762 -10.520   9.252  1.00  0.00     0.161 C 
BRANCH  19  20
HETATM   20  C   UNL     1      42.654 -10.449  10.752  1.00  0.00    -0.041 A 
HETATM   21  C   UNL     1      43.657  -9.841  11.519  1.00  0.00     0.009 A 
HETATM   22  C   UNL     1      43.528  -9.741  12.907  1.00  0.00     0.007 A 
HETATM   23  C   UNL     1      42.397 -10.249  13.554  1.00  0.00    -0.062 A 
HETATM   24  C   UNL     1      42.223 -10.074  15.035  1.00  0.00     0.048 C 
HETATM   25  C   UNL     1      41.392 -10.852  12.790  1.00  0.00     0.007 A 
HETATM   26  C   UNL     1      41.524 -10.960  11.403  1.00  0.00     0.009 A 
ENDBRANCH  19  20
ENDBRANCH  16  19
ENDBRANCH  14  15
ENDBRANCH  10  14
ENDBRANCH   1   7
BRANCH   3  27
HETATM   27  N   UNL     1      44.246 -18.680   2.185  1.00  0.00    -0.187 N 
HETATM   28  H   UNL     1      45.084 -18.348   1.725  1.00  0.00     0.184 HD
BRANCH  27  29
HETATM   29  C   UNL     1      44.404 -19.897   2.866  1.00  0.00     0.049 A 
HETATM   30  C   UNL     1      44.213 -21.092   2.156  1.00  0.00     0.030 A 
HETATM   31  C   UNL     1      44.336 -22.334   2.786  1.00  0.00     0.002 A 
HETATM   32  C   UNL     1      44.649 -22.400   4.140  1.00  0.00     0.000 A 
HETATM   33  C   UNL     1      44.826 -21.224   4.864  1.00  0.00     0.002 A 
HETATM   34  C   UNL     1      44.689 -19.984   4.234  1.00  0.00     0.030 A 
ENDBRANCH  27  29
ENDBRANCH   3  27
BRANCH   5  35
HETATM   35  N   UNL     1      40.921 -15.909   0.600  1.00  0.00    -0.187 N 
HETATM   36  H   UNL     1      40.008 -16.324   0.728  1.00  0.00     0.184 HD
BRANCH  35  37
HETATM   37  C   UNL     1      41.138 -15.246  -0.614  1.00  0.00     0.049 A 
HETATM   38  C   UNL     1      40.899 -15.834  -1.862  1.00  0.00     0.030 A 
HETATM   39  C   UNL     1      41.172 -15.150  -3.050  1.00  0.00     0.002 A 
HETATM   40  C   UNL     1      41.714 -13.869  -3.008  1.00  0.00     0.000 A 
HETATM   41  C   UNL     1      41.980 -13.274  -1.778  1.00  0.00     0.002 A 
HETATM   42  C   UNL     1      41.694 -13.959  -0.593  1.00  0.00     0.030 A 
ENDBRANCH  35  37
ENDBRANCH   5  35
TORSDOF 9
ENDMDL
MODEL 2
REMARK VINA RESULT:     -10.7      0.477      5.461
REMARK  9 active torsions:
REMARK  status: ('A' for Active; 'I' for Inactive)
REMARK    1  A    between atoms: C_5  and  C_6 
REMARK    2  A    between atoms: C_6  and  N_7 
REMARK       I    between atoms: N_7  and  C_8 
REMARK    3  A    between atoms: C_8  and  C_9 
REMARK    4  A    between atoms: C_9  and  N_10 
REMARK    5  A    between atoms: N_14  and  C_15 
REMARK    6  A    between atoms: C_17  and  N_18 
REMARK    7  A    between atoms: N_18  and  C_19 
REMARK    8  A    between atoms: C_26  and  N_27 
REMARK    9  A    between atoms: N_27  and  C_28 
ROOT
HETATM    1  C   UNL     1      42.125 -16.069   3.424  1.00  0.00     0.756 A 
HETATM    2  N   UNL     1      41.364 -15.745   2.394  1.00  0.00     0.131 NA
HETATM    3  C   UNL     1      41.563 -16.421   1.267  1.00  0.00     0.758 A 
HETATM    4  N   UNL     1      42.479 -17.369   1.129  1.00  0.00     0.131 NA
HETATM    5  C   UNL     1      43.141 -17.696   2.230  1.00  0.00     0.758 A 
HETATM    6  N   UNL     1      42.973 -17.081   3.395  1.00  0.00     0.131 NA
ENDROOT
BRANCH   1   7
HETATM    7  N   UNL     1      42.055 -15.305   4.571  1.00  0.00    -0.210 N 
HETATM    8  C   UNL     1      42.586 -13.943   4.562  1.00  0.00     0.169 C 
HETATM    9  C   UNL     1      43.830 -13.851   5.473  1.00  0.00     0.256 C 
HETATM   10  N   UNL     1      43.471 -14.373   6.868  1.00  0.00    -0.060 N 
HETATM   11  H   UNL     1      42.642 -13.844   7.164  1.00  0.00     0.280 HD
HETATM   12  C   UNL     1      43.028 -15.841   6.778  1.00  0.00     0.256 C 
HETATM   13  C   UNL     1      41.791 -15.944   5.862  1.00  0.00     0.169 C 
BRANCH  10  14
HETATM   14  C   UNL     1      44.541 -14.107   7.917  1.00  0.00     0.337 C 
BRANCH  14  15
HETATM   15  C   UNL     1      44.710 -12.657   8.382  1.00  0.00     0.243 C 
HETATM   16  N   UNL     1      43.538 -12.063   8.791  1.00  0.00    -0.355 N 
HETATM   17  H   UNL     1      42.640 -12.492   8.603  1.00  0.00     0.162 HD
HETATM   18  O   UNL     1      45.804 -12.102   8.410  1.00  0.00    -0.272 OA
BRANCH  16  19
HETATM   19  C   UNL     1      43.497 -10.690   9.259  1.00  0.00     0.161 C 
BRANCH  19  20
HETATM   20  C   UNL     1      43.080 -10.610  10.703  1.00  0.00    -0.041 A 
HETATM   21  C   UNL     1      43.916 -10.025  11.664  1.00  0.00     0.009 A 
HETATM   22  C   UNL     1      43.503  -9.916  12.995  1.00  0.00     0.007 A 
HETATM   23  C   UNL     1      42.250 -10.394  13.390  1.00  0.00    -0.062 A 
HETATM   24  C   UNL     1      41.776 -10.209  14.803  1.00  0.00     0.048 C 
HETATM   25  C   UNL     1      41.412 -10.975  12.433  1.00  0.00     0.007 A 
HETATM   26  C   UNL     1      41.827 -11.092  11.104  1.00  0.00     0.009 A 
ENDBRANCH  19  20
ENDBRANCH  16  19
ENDBRANCH  14  15
ENDBRANCH  10  14
ENDBRANCH   1   7
BRANCH   3  27
HETATM   27  N   UNL     1      40.828 -16.111   0.123  1.00  0.00    -0.187 N 
HETATM   28  H   UNL     1      39.840 -16.227   0.309  1.00  0.00     0.184 HD
BRANCH  27  29
HETATM   29  C   UNL     1      41.119 -15.247  -0.944  1.00  0.00     0.049 A 
HETATM   30  C   UNL     1      40.884 -15.695  -2.253  1.00  0.00     0.030 A 
HETATM   31  C   UNL     1      41.174 -14.887  -3.356  1.00  0.00     0.002 A 
HETATM   32  C   UNL     1      41.709 -13.616  -3.166  1.00  0.00     0.000 A 
HETATM   33  C   UNL     1      41.965 -13.162  -1.875  1.00  0.00     0.002 A 
HETATM   34  C   UNL     1      41.685 -13.978  -0.776  1.00  0.00     0.030 A 
ENDBRANCH  27  29
ENDBRANCH   3  27
BRANCH   5  35
HETATM   35  N   UNL     1      44.091 -18.705   2.092  1.00  0.00    -0.187 N 
HETATM   36  H   UNL     1      44.677 -18.542   1.286  1.00  0.00     0.184 HD
BRANCH  35  37
HETATM   37  C   UNL     1      44.272 -19.924   2.756  1.00  0.00     0.049 A 
HETATM   38  C   UNL     1      44.670 -20.016   4.096  1.00  0.00     0.030 A 
HETATM   39  C   UNL     1      44.880 -21.257   4.706  1.00  0.00     0.002 A 
HETATM   40  C   UNL     1      44.717 -22.429   3.975  1.00  0.00     0.000 A 
HETATM   41  C   UNL     1      44.341 -22.360   2.636  1.00  0.00     0.002 A 
HETATM   42  C   UNL     1      44.122 -21.117   2.035  1.00  0.00     0.030 A 
ENDBRANCH  35  37
ENDBRANCH   5  35
TORSDOF 9
ENDMDL
MODEL 3
REMARK VINA RESULT:     -10.6      1.220      5.577
REMARK  9 active torsions:
REMARK  status: ('A' for Active; 'I' for Inactive)
REMARK    1  A    between atoms: C_5  and  C_6 
REMARK    2  A    between atoms: C_6  and  N_7 
REMARK       I    between atoms: N_7  and  C_8 
REMARK    3  A    between atoms: C_8  and  C_9 
REMARK    4  A    between atoms: C_9  and  N_10 
REMARK    5  A    between atoms: N_14  and  C_15 
REMARK    6  A    between atoms: C_17  and  N_18 
REMARK    7  A    between atoms: N_18  and  C_19 
REMARK    8  A    between atoms: C_26  and  N_27 
REMARK    9  A    between atoms: N_27  and  C_28 
ROOT
HETATM    1  C   UNL     1      41.950 -16.152   3.755  1.00  0.00     0.756 A 
HETATM    2  N   UNL     1      41.174 -15.716   2.780  1.00  0.00     0.131 NA
HETATM    3  C   UNL     1      41.385 -16.229   1.572  1.00  0.00     0.758 A 
HETATM    4  N   UNL     1      42.327 -17.123   1.306  1.00  0.00     0.131 NA
HETATM    5  C   UNL     1      43.005 -17.575   2.351  1.00  0.00     0.758 A 
HETATM    6  N   UNL     1      42.827 -17.126   3.589  1.00  0.00     0.131 NA
ENDROOT
BRANCH   1   7
HETATM    7  N   UNL     1      41.866 -15.552   4.994  1.00  0.00    -0.210 N 
HETATM    8  C   UNL     1      40.576 -15.494   5.681  1.00  0.00     0.169 C 
HETATM    9  C   UNL     1      40.086 -14.032   5.769  1.00  0.00     0.256 C 
HETATM   10  N   UNL     1      41.177 -13.174   6.417  1.00  0.00    -0.060 N 
HETATM   11  H   UNL     1      41.412 -13.636   7.303  1.00  0.00     0.280 HD
HETATM   12  C   UNL     1      42.453 -13.220   5.562  1.00  0.00     0.256 C 
HETATM   13  C   UNL     1      42.945 -14.678   5.460  1.00  0.00     0.169 C 
BRANCH  10  14
HETATM   14  C   UNL     1      40.719 -11.769   6.779  1.00  0.00     0.337 C 
BRANCH  14  15
HETATM   15  C   UNL     1      41.749 -10.857   7.453  1.00  0.00     0.243 C 
HETATM   16  N   UNL     1      42.349 -11.417   8.559  1.00  0.00    -0.355 N 
HETATM   17  H   UNL     1      41.985 -12.262   8.980  1.00  0.00     0.162 HD
HETATM   18  O   UNL     1      42.024  -9.745   7.016  1.00  0.00    -0.272 OA
BRANCH  16  19
HETATM   19  C   UNL     1      43.347 -10.703   9.333  1.00  0.00     0.161 C 
BRANCH  19  20
HETATM   20  C   UNL     1      42.946 -10.585  10.779  1.00  0.00    -0.041 A 
HETATM   21  C   UNL     1      43.812 -10.015  11.723  1.00  0.00     0.009 A 
HETATM   22  C   UNL     1      43.415  -9.871  13.055  1.00  0.00     0.007 A 
HETATM   23  C   UNL     1      42.148 -10.296  13.469  1.00  0.00    -0.062 A 
HETATM   24  C   UNL     1      41.694 -10.072  14.882  1.00  0.00     0.048 C 
HETATM   25  C   UNL     1      41.281 -10.861  12.528  1.00  0.00     0.007 A 
HETATM   26  C   UNL     1      41.680 -11.014  11.198  1.00  0.00     0.009 A 
ENDBRANCH  19  20
ENDBRANCH  16  19
ENDBRANCH  14  15
ENDBRANCH  10  14
ENDBRANCH   1   7
BRANCH   3  27
HETATM   27  N   UNL     1      40.634 -15.791   0.482  1.00  0.00    -0.187 N 
HETATM   28  H   UNL     1      39.688 -15.584   0.778  1.00  0.00     0.184 HD
BRANCH  27  29
HETATM   29  C   UNL     1      41.028 -15.136  -0.695  1.00  0.00     0.049 A 
HETATM   30  C   UNL     1      41.536 -13.831  -0.600  1.00  0.00     0.030 A 
HETATM   31  C   UNL     1      41.925 -13.123  -1.741  1.00  0.00     0.002 A 
HETATM   32  C   UNL     1      41.808 -13.708  -2.998  1.00  0.00     0.000 A 
HETATM   33  C   UNL     1      41.290 -14.996  -3.113  1.00  0.00     0.002 A 
HETATM   34  C   UNL     1      40.891 -15.696  -1.971  1.00  0.00     0.030 A 
ENDBRANCH  27  29
ENDBRANCH   3  27
BRANCH   5  35
HETATM   35  N   UNL     1      43.983 -18.527   2.078  1.00  0.00    -0.187 N 
HETATM   36  H   UNL     1      44.543 -18.253   1.283  1.00  0.00     0.184 HD
BRANCH  35  37
HETATM   37  C   UNL     1      44.219 -19.808   2.592  1.00  0.00     0.049 A 
HETATM   38  C   UNL     1      43.981 -20.981   1.866  1.00  0.00     0.030 A 
HETATM   39  C   UNL     1      44.190 -22.241   2.435  1.00  0.00     0.002 A 
HETATM   40  C   UNL     1      44.619 -22.347   3.754  1.00  0.00     0.000 A 
HETATM   41  C   UNL     1      44.842 -21.193   4.501  1.00  0.00     0.002 A 
HETATM   42  C   UNL     1      44.642 -19.936   3.922  1.00  0.00     0.030 A 
ENDBRANCH  35  37
ENDBRANCH   5  35
TORSDOF 9
ENDMDL
MODEL 4
REMARK VINA RESULT:     -10.3      1.716      5.744
REMARK  9 active torsions:
REMARK  status: ('A' for Active; 'I' for Inactive)
REMARK    1  A    between atoms: C_5  and  C_6 
REMARK    2  A    between atoms: C_6  and  N_7 
REMARK       I    between atoms: N_7  and  C_8 
REMARK    3  A    between atoms: C_8  and  C_9 
REMARK    4  A    between atoms: C_9  and  N_10 
REMARK    5  A    between atoms: N_14  and  C_15 
REMARK    6  A    between atoms: C_17  and  N_18 
REMARK    7  A    between atoms: N_18  and  C_19 
REMARK    8  A    between atoms: C_26  and  N_27 
REMARK    9  A    between atoms: N_27  and  C_28 
ROOT
HETATM    1  C   UNL     1      41.788 -16.015   4.645  1.00  0.00     0.756 A 
HETATM    2  N   UNL     1      40.699 -15.703   3.966  1.00  0.00     0.131 NA
HETATM    3  C   UNL     1      40.571 -16.243   2.758  1.00  0.00     0.758 A 
HETATM    4  N   UNL     1      41.473 -17.046   2.212  1.00  0.00     0.131 NA
HETATM    5  C   UNL     1      42.493 -17.381   2.988  1.00  0.00     0.758 A 
HETATM    6  N   UNL     1      42.669 -16.901   4.214  1.00  0.00     0.131 NA
ENDROOT
BRANCH   1   7
HETATM    7  N   UNL     1      42.036 -15.374   5.841  1.00  0.00    -0.210 N 
HETATM    8  C   UNL     1      41.904 -13.920   5.919  1.00  0.00     0.169 C 
HETATM    9  C   UNL     1      43.288 -13.271   6.144  1.00  0.00     0.256 C 
HETATM   10  N   UNL     1      43.946 -13.906   7.374  1.00  0.00    -0.060 N 
HETATM   11  H   UNL     1      43.265 -13.817   8.137  1.00  0.00     0.280 HD
HETATM   12  C   UNL     1      44.134 -15.413   7.146  1.00  0.00     0.256 C 
HETATM   13  C   UNL     1      42.757 -16.068   6.910  1.00  0.00     0.169 C 
BRANCH  10  14
HETATM   14  C   UNL     1      45.202 -13.184   7.839  1.00  0.00     0.337 C 
BRANCH  14  15
HETATM   15  C   UNL     1      45.022 -12.103   8.909  1.00  0.00     0.243 C 
HETATM   16  N   UNL     1      44.119 -12.436   9.893  1.00  0.00    -0.355 N 
HETATM   17  H   UNL     1      43.501 -13.231   9.787  1.00  0.00     0.162 HD
HETATM   18  O   UNL     1      45.658 -11.054   8.893  1.00  0.00    -0.272 OA
BRANCH  16  19
HETATM   19  C   UNL     1      43.811 -11.537  10.989  1.00  0.00     0.161 C 
BRANCH  19  20
HETATM   20  C   UNL     1      42.409 -11.000  10.888  1.00  0.00    -0.041 A 
HETATM   21  C   UNL     1      41.463 -11.260  11.889  1.00  0.00     0.009 A 
HETATM   22  C   UNL     1      40.176 -10.722  11.809  1.00  0.00     0.007 A 
HETATM   23  C   UNL     1      39.809  -9.917  10.725  1.00  0.00    -0.062 A 
HETATM   24  C   UNL     1      38.452  -9.278  10.677  1.00  0.00     0.048 C 
HETATM   25  C   UNL     1      40.752  -9.653   9.727  1.00  0.00     0.007 A 
HETATM   26  C   UNL     1      42.036 -10.197   9.801  1.00  0.00     0.009 A 
ENDBRANCH  19  20
ENDBRANCH  16  19
ENDBRANCH  14  15
ENDBRANCH  10  14
ENDBRANCH   1   7
BRANCH   3  27
HETATM   27  N   UNL     1      39.469 -15.930   1.963  1.00  0.00    -0.187 N 
HETATM   28  H   UNL     1      38.644 -16.396   2.321  1.00  0.00     0.184 HD
BRANCH  27  29
HETATM   29  C   UNL     1      39.200 -14.798   1.179  1.00  0.00     0.049 A 
HETATM   30  C   UNL     1      37.884 -14.312   1.132  1.00  0.00     0.030 A 
HETATM   31  C   UNL     1      37.553 -13.200   0.352  1.00  0.00     0.002 A 
HETATM   32  C   UNL     1      38.533 -12.558  -0.398  1.00  0.00     0.000 A 
HETATM   33  C   UNL     1      39.841 -13.036  -0.376  1.00  0.00     0.002 A 
HETATM   34  C   UNL     1      40.166 -14.156   0.395  1.00  0.00     0.030 A 
ENDBRANCH  27  29
ENDBRANCH   3  27
BRANCH   5  35
HETATM   35  N   UNL     1      43.432 -18.240   2.423  1.00  0.00    -0.187 N 
HETATM   36  H   UNL     1      43.837 -17.835   1.591  1.00  0.00     0.184 HD
BRANCH  35  37
HETATM   37  C   UNL     1      43.787 -19.564   2.707  1.00  0.00     0.049 A 
HETATM   38  C   UNL     1      44.447 -19.946   3.881  1.00  0.00     0.030 A 
HETATM   39  C   UNL     1      44.821 -21.275   4.103  1.00  0.00     0.002 A 
HETATM   40  C   UNL     1      44.560 -22.243   3.138  1.00  0.00     0.000 A 
HETATM   41  C   UNL     1      43.922 -21.881   1.954  1.00  0.00     0.002 A 
HETATM   42  C   UNL     1      43.541 -20.553   1.743  1.00  0.00     0.030 A 
ENDBRANCH  35  37
ENDBRANCH   5  35
TORSDOF 9
ENDMDL
MODEL 5
REMARK VINA RESULT:     -10.2      1.233      1.640
REMARK  9 active torsions:
REMARK  status: ('A' for Active; 'I' for Inactive)
REMARK    1  A    between atoms: C_5  and  C_6 
REMARK    2  A    between atoms: C_6  and  N_7 
REMARK       I    between atoms: N_7  and  C_8 
REMARK    3  A    between atoms: C_8  and  C_9 
REMARK    4  A    between atoms: C_9  and  N_10 
REMARK    5  A    between atoms: N_14  and  C_15 
REMARK    6  A    between atoms: C_17  and  N_18 
REMARK    7  A    between atoms: N_18  and  C_19 
REMARK    8  A    between atoms: C_26  and  N_27 
REMARK    9  A    between atoms: N_27  and  C_28 
ROOT
HETATM    1  C   UNL     1      42.256 -15.802   3.708  1.00  0.00     0.756 A 
HETATM    2  N   UNL     1      43.180 -16.728   3.522  1.00  0.00     0.131 NA
HETATM    3  C   UNL     1      43.249 -17.270   2.310  1.00  0.00     0.758 A 
HETATM    4  N   UNL     1      42.441 -16.944   1.311  1.00  0.00     0.131 NA
HETATM    5  C   UNL     1      41.601 -15.947   1.550  1.00  0.00     0.758 A 
HETATM    6  N   UNL     1      41.498 -15.343   2.728  1.00  0.00     0.131 NA
ENDROOT
BRANCH   1   7
HETATM    7  N   UNL     1      42.050 -15.311   4.981  1.00  0.00    -0.210 N 
HETATM    8  C   UNL     1      40.688 -15.213   5.503  1.00  0.00     0.169 C 
HETATM    9  C   UNL     1      40.290 -13.730   5.675  1.00  0.00     0.256 C 
HETATM   10  N   UNL     1      41.342 -13.023   6.535  1.00  0.00    -0.060 N 
HETATM   11  H   UNL     1      41.427 -13.581   7.393  1.00  0.00     0.280 HD
HETATM   12  C   UNL     1      42.713 -13.094   5.847  1.00  0.00     0.256 C 
HETATM   13  C   UNL     1      43.115 -14.572   5.662  1.00  0.00     0.169 C 
BRANCH  10  14
HETATM   14  C   UNL     1      40.936 -11.625   6.975  1.00  0.00     0.337 C 
BRANCH  14  15
HETATM   15  C   UNL     1      42.003 -10.786   7.686  1.00  0.00     0.243 C 
HETATM   16  N   UNL     1      42.758 -11.495   8.593  1.00  0.00    -0.355 N 
HETATM   17  H   UNL     1      42.483 -12.424   8.889  1.00  0.00     0.162 HD
HETATM   18  O   UNL     1      42.176  -9.597   7.435  1.00  0.00    -0.272 OA
BRANCH  16  19
HETATM   19  C   UNL     1      43.813 -10.870   9.368  1.00  0.00     0.161 C 
BRANCH  19  20
HETATM   20  C   UNL     1      43.382 -10.617  10.787  1.00  0.00    -0.041 A 
HETATM   21  C   UNL     1      43.170 -11.680  11.677  1.00  0.00     0.009 A 
HETATM   22  C   UNL     1      42.812 -11.434  13.005  1.00  0.00     0.007 A 
HETATM   23  C   UNL     1      42.655 -10.123  13.468  1.00  0.00    -0.062 A 
HETATM   24  C   UNL     1      42.345  -9.858  14.913  1.00  0.00     0.048 C 
HETATM   25  C   UNL     1      42.870  -9.061  12.584  1.00  0.00     0.007 A 
HETATM   26  C   UNL     1      43.220  -9.306  11.254  1.00  0.00     0.009 A 
ENDBRANCH  19  20
ENDBRANCH  16  19
ENDBRANCH  14  15
ENDBRANCH  10  14
ENDBRANCH   1   7
BRANCH   3  27
HETATM   27  N   UNL     1      44.170 -18.282   2.046  1.00  0.00    -0.187 N 
HETATM   28  H   UNL     1      45.047 -17.878   1.741  1.00  0.00     0.184 HD
BRANCH  27  29
HETATM   29  C   UNL     1      44.285 -19.576   2.578  1.00  0.00     0.049 A 
HETATM   30  C   UNL     1      43.913 -20.666   1.776  1.00  0.00     0.030 A 
HETATM   31  C   UNL     1      43.986 -21.976   2.260  1.00  0.00     0.002 A 
HETATM   32  C   UNL     1      44.429 -22.216   3.557  1.00  0.00     0.000 A 
HETATM   33  C   UNL     1      44.787 -21.145   4.372  1.00  0.00     0.002 A 
HETATM   34  C   UNL     1      44.700 -19.836   3.889  1.00  0.00     0.030 A 
ENDBRANCH  27  29
ENDBRANCH   3  27
BRANCH   5  35
HETATM   35  N   UNL     1      40.764 -15.590   0.496  1.00  0.00    -0.187 N 
HETATM   36  H   UNL     1      39.817 -15.896   0.667  1.00  0.00     0.184 HD
BRANCH  35  37
HETATM   37  C   UNL     1      41.022 -15.041  -0.765  1.00  0.00     0.049 A 
HETATM   38  C   UNL     1      40.840 -15.746  -1.961  1.00  0.00     0.030 A 
HETATM   39  C   UNL     1      41.152 -15.172  -3.197  1.00  0.00     0.002 A 
HETATM   40  C   UNL     1      41.677 -13.884  -3.254  1.00  0.00     0.000 A 
HETATM   41  C   UNL     1      41.886 -13.173  -2.076  1.00  0.00     0.002 A 
HETATM   42  C   UNL     1      41.562 -13.749  -0.844  1.00  0.00     0.030 A 
ENDBRANCH  35  37
ENDBRANCH   5  35
TORSDOF 9
ENDMDL
MODEL 6
REMARK VINA RESULT:     -10.0      0.943      5.435
REMARK  9 active torsions:
REMARK  status: ('A' for Active; 'I' for Inactive)
REMARK    1  A    between atoms: C_5  and  C_6 
REMARK    2  A    between atoms: C_6  and  N_7 
REMARK       I    between atoms: N_7  and  C_8 
REMARK    3  A    between atoms: C_8  and  C_9 
REMARK    4  A    between atoms: C_9  and  N_10 
REMARK    5  A    between atoms: N_14  and  C_15 
REMARK    6  A    between atoms: C_17  and  N_18 
REMARK    7  A    between atoms: N_18  and  C_19 
REMARK    8  A    between atoms: C_26  and  N_27 
REMARK    9  A    between atoms: N_27  and  C_28 
ROOT
HETATM    1  C   UNL     1      42.294 -16.169   4.193  1.00  0.00     0.756 A 
HETATM    2  N   UNL     1      41.480 -15.642   3.296  1.00  0.00     0.131 NA
HETATM    3  C   UNL     1      41.573 -16.110   2.055  1.00  0.00     0.758 A 
HETATM    4  N   UNL     1      42.436 -17.045   1.684  1.00  0.00     0.131 NA
HETATM    5  C   UNL     1      43.156 -17.584   2.657  1.00  0.00     0.758 A 
HETATM    6  N   UNL     1      43.094 -17.184   3.922  1.00  0.00     0.131 NA
ENDROOT
BRANCH   1   7
HETATM    7  N   UNL     1      42.335 -15.622   5.459  1.00  0.00    -0.210 N 
HETATM    8  C   UNL     1      41.556 -14.419   5.750  1.00  0.00     0.169 C 
HETATM    9  C   UNL     1      42.501 -13.227   6.017  1.00  0.00     0.256 C 
HETATM   10  N   UNL     1      43.494 -13.610   7.119  1.00  0.00    -0.060 N 
HETATM   11  H   UNL     1      42.928 -13.936   7.910  1.00  0.00     0.280 HD
HETATM   12  C   UNL     1      44.332 -14.816   6.670  1.00  0.00     0.256 C 
HETATM   13  C   UNL     1      43.395 -16.010   6.391  1.00  0.00     0.169 C 
BRANCH  10  14
HETATM   14  C   UNL     1      44.316 -12.439   7.638  1.00  0.00     0.337 C 
BRANCH  14  15
HETATM   15  C   UNL     1      44.704 -12.469   9.120  1.00  0.00     0.243 C 
HETATM   16  N   UNL     1      43.689 -12.090   9.970  1.00  0.00    -0.355 N 
HETATM   17  H   UNL     1      42.850 -11.648   9.618  1.00  0.00     0.162 HD
HETATM   18  O   UNL     1      45.813 -12.832   9.499  1.00  0.00    -0.272 OA
BRANCH  16  19
HETATM   19  C   UNL     1      43.870 -12.050  11.409  1.00  0.00     0.161 C 
BRANCH  19  20
HETATM   20  C   UNL     1      42.995 -11.005  12.048  1.00  0.00    -0.041 A 
HETATM   21  C   UNL     1      41.608 -11.004  11.847  1.00  0.00     0.009 A 
HETATM   22  C   UNL     1      40.799 -10.056  12.479  1.00  0.00     0.007 A 
HETATM   23  C   UNL     1      41.361  -9.090  13.320  1.00  0.00    -0.062 A 
HETATM   24  C   UNL     1      40.485  -8.120  14.057  1.00  0.00     0.048 C 
HETATM   25  C   UNL     1      42.744  -9.091  13.525  1.00  0.00     0.007 A 
HETATM   26  C   UNL     1      43.555 -10.033  12.887  1.00  0.00     0.009 A 
ENDBRANCH  19  20
ENDBRANCH  16  19
ENDBRANCH  14  15
ENDBRANCH  10  14
ENDBRANCH   1   7
BRANCH   3  27
HETATM   27  N   UNL     1      40.777 -15.577   1.042  1.00  0.00    -0.187 N 
HETATM   28  H   UNL     1      39.876 -15.309   1.419  1.00  0.00     0.184 HD
BRANCH  27  29
HETATM   29  C   UNL     1      41.128 -14.914  -0.144  1.00  0.00     0.049 A 
HETATM   30  C   UNL     1      40.947 -15.581  -1.365  1.00  0.00     0.030 A 
HETATM   31  C   UNL     1      41.299 -14.978  -2.576  1.00  0.00     0.002 A 
HETATM   32  C   UNL     1      41.842 -13.697  -2.585  1.00  0.00     0.000 A 
HETATM   33  C   UNL     1      42.044 -13.026  -1.382  1.00  0.00     0.002 A 
HETATM   34  C   UNL     1      41.703 -13.637  -0.171  1.00  0.00     0.030 A 
ENDBRANCH  27  29
ENDBRANCH   3  27
BRANCH   5  35
HETATM   35  N   UNL     1      44.051 -18.579   2.273  1.00  0.00    -0.187 N 
HETATM   36  H   UNL     1      44.522 -18.330   1.415  1.00  0.00     0.184 HD
BRANCH  35  37
HETATM   37  C   UNL     1      44.290 -19.869   2.762  1.00  0.00     0.049 A 
HETATM   38  C   UNL     1      44.089 -21.027   2.001  1.00  0.00     0.030 A 
HETATM   39  C   UNL     1      44.299 -22.298   2.545  1.00  0.00     0.002 A 
HETATM   40  C   UNL     1      44.693 -22.431   3.873  1.00  0.00     0.000 A 
HETATM   41  C   UNL     1      44.879 -21.293   4.653  1.00  0.00     0.002 A 
HETATM   42  C   UNL     1      44.678 -20.025   4.100  1.00  0.00     0.030 A 
ENDBRANCH  35  37
ENDBRANCH   5  35
TORSDOF 9
ENDMDL
MODEL 7
REMARK VINA RESULT:      -9.9      2.835      9.599
REMARK  9 active torsions:
REMARK  status: ('A' for Active; 'I' for Inactive)
REMARK    1  A    between atoms: C_5  and  C_6 
REMARK    2  A    between atoms: C_6  and  N_7 
REMARK       I    between atoms: N_7  and  C_8 
REMARK    3  A    between atoms: C_8  and  C_9 
REMARK    4  A    between atoms: C_9  and  N_10 
REMARK    5  A    between atoms: N_14  and  C_15 
REMARK    6  A    between atoms: C_17  and  N_18 
REMARK    7  A    between atoms: N_18  and  C_19 
REMARK    8  A    between atoms: C_26  and  N_27 
REMARK    9  A    between atoms: N_27  and  C_28 
ROOT
HETATM    1  C   UNL     1      42.581 -14.792   5.494  1.00  0.00     0.756 A 
HETATM    2  N   UNL     1      42.694 -16.042   5.906  1.00  0.00     0.131 NA
HETATM    3  C   UNL     1      43.568 -16.275   6.879  1.00  0.00     0.758 A 
HETATM    4  N   UNL     1      44.326 -15.336   7.429  1.00  0.00     0.131 NA
HETATM    5  C   UNL     1      44.092 -14.096   7.024  1.00  0.00     0.758 A 
HETATM    6  N   UNL     1      43.215 -13.789   6.075  1.00  0.00     0.131 NA
ENDROOT
BRANCH   1   7
HETATM    7  N   UNL     1      41.794 -14.520   4.394  1.00  0.00    -0.210 N 
HETATM    8  C   UNL     1      40.693 -15.421   4.056  1.00  0.00     0.169 C 
HETATM    9  C   UNL     1      40.991 -16.149   2.727  1.00  0.00     0.256 C 
HETATM   10  N   UNL     1      41.303 -15.111   1.645  1.00  0.00    -0.060 N 
HETATM   11  H   UNL     1      40.513 -14.455   1.645  1.00  0.00     0.280 HD
HETATM   12  C   UNL     1      42.537 -14.289   2.049  1.00  0.00     0.256 C 
HETATM   13  C   UNL     1      42.252 -13.566   3.382  1.00  0.00     0.169 C 
BRANCH  10  14
HETATM   14  C   UNL     1      41.374 -15.691   0.240  1.00  0.00     0.337 C 
BRANCH  14  15
HETATM   15  C   UNL     1      41.001 -14.755  -0.915  1.00  0.00     0.243 C 
HETATM   16  N   UNL     1      42.067 -14.392  -1.706  1.00  0.00    -0.355 N 
HETATM   17  H   UNL     1      43.020 -14.573  -1.414  1.00  0.00     0.162 HD
HETATM   18  O   UNL     1      39.845 -14.398  -1.120  1.00  0.00    -0.272 OA
BRANCH  16  19
HETATM   19  C   UNL     1      41.911 -13.506  -2.844  1.00  0.00     0.161 C 
BRANCH  19  20
HETATM   20  C   UNL     1      42.325 -12.098  -2.511  1.00  0.00    -0.041 A 
HETATM   21  C   UNL     1      42.875 -11.784  -1.261  1.00  0.00     0.009 A 
HETATM   22  C   UNL     1      43.296 -10.483  -0.976  1.00  0.00     0.007 A 
HETATM   23  C   UNL     1      43.170  -9.470  -1.932  1.00  0.00    -0.062 A 
HETATM   24  C   UNL     1      43.691  -8.090  -1.653  1.00  0.00     0.048 C 
HETATM   25  C   UNL     1      42.625  -9.781  -3.182  1.00  0.00     0.007 A 
HETATM   26  C   UNL     1      42.196 -11.080  -3.465  1.00  0.00     0.009 A 
ENDBRANCH  19  20
ENDBRANCH  16  19
ENDBRANCH  14  15
ENDBRANCH  10  14
ENDBRANCH   1   7
BRANCH   3  27
HETATM   27  N   UNL     1      43.775 -17.574   7.341  1.00  0.00    -0.187 N 
HETATM   28  H   UNL     1      43.282 -17.710   8.215  1.00  0.00     0.184 HD
BRANCH  27  29
HETATM   29  C   UNL     1      44.051 -18.760   6.642  1.00  0.00     0.049 A 
HETATM   30  C   UNL     1      43.635 -19.979   7.199  1.00  0.00     0.030 A 
HETATM   31  C   UNL     1      43.901 -21.193   6.558  1.00  0.00     0.002 A 
HETATM   32  C   UNL     1      44.592 -21.206   5.350  1.00  0.00     0.000 A 
HETATM   33  C   UNL     1      45.026 -20.007   4.791  1.00  0.00     0.002 A 
HETATM   34  C   UNL     1      44.769 -18.796   5.441  1.00  0.00     0.030 A 
ENDBRANCH  27  29
ENDBRANCH   3  27
BRANCH   5  35
HETATM   35  N   UNL     1      44.873 -13.106   7.613  1.00  0.00    -0.187 N 
HETATM   36  H   UNL     1      45.809 -13.109   7.232  1.00  0.00     0.184 HD
BRANCH  35  37
HETATM   37  C   UNL     1      44.645 -12.247   8.695  1.00  0.00     0.049 A 
HETATM   38  C   UNL     1      43.508 -11.437   8.805  1.00  0.00     0.030 A 
HETATM   39  C   UNL     1      43.342 -10.562   9.883  1.00  0.00     0.002 A 
HETATM   40  C   UNL     1      44.328 -10.466  10.860  1.00  0.00     0.000 A 
HETATM   41  C   UNL     1      45.476 -11.248  10.760  1.00  0.00     0.002 A 
HETATM   42  C   UNL     1      45.630 -12.129   9.685  1.00  0.00     0.030 A 
ENDBRANCH  35  37
ENDBRANCH   5  35
TORSDOF 9
ENDMDL
MODEL 8
REMARK VINA RESULT:      -9.7      1.933      2.558
REMARK  9 active torsions:
REMARK  status: ('A' for Active; 'I' for Inactive)
REMARK    1  A    between atoms: C_5  and  C_6 
REMARK    2  A    between atoms: C_6  and  N_7 
REMARK       I    between atoms: N_7  and  C_8 
REMARK    3  A    between atoms: C_8  and  C_9 
REMARK    4  A    between atoms: C_9  and  N_10 
REMARK    5  A    between atoms: N_14  and  C_15 
REMARK    6  A    between atoms: C_17  and  N_18 
REMARK    7  A    between atoms: N_18  and  C_19 
REMARK    8  A    between atoms: C_26  and  N_27 
REMARK    9  A    between atoms: N_27  and  C_28 
ROOT
HETATM    1  C   UNL     1      42.019 -15.750   3.741  1.00  0.00     0.756 A 
HETATM    2  N   UNL     1      43.020 -16.607   3.658  1.00  0.00     0.131 NA
HETATM    3  C   UNL     1      43.199 -17.207   2.486  1.00  0.00     0.758 A 
HETATM    4  N   UNL     1      42.427 -17.002   1.428  1.00  0.00     0.131 NA
HETATM    5  C   UNL     1      41.500 -16.065   1.564  1.00  0.00     0.758 A 
HETATM    6  N   UNL     1      41.284 -15.408   2.698  1.00  0.00     0.131 NA
ENDROOT
BRANCH   1   7
HETATM    7  N   UNL     1      41.704 -15.207   4.970  1.00  0.00    -0.210 N 
HETATM    8  C   UNL     1      40.314 -15.208   5.423  1.00  0.00     0.169 C 
HETATM    9  C   UNL     1      39.774 -13.762   5.483  1.00  0.00     0.256 C 
HETATM   10  N   UNL     1      40.711 -12.911   6.346  1.00  0.00    -0.060 N 
HETATM   11  H   UNL     1      40.803 -13.408   7.240  1.00  0.00     0.280 HD
HETATM   12  C   UNL     1      42.117 -12.891   5.726  1.00  0.00     0.256 C 
HETATM   13  C   UNL     1      42.661 -14.333   5.652  1.00  0.00     0.169 C 
BRANCH  10  14
HETATM   14  C   UNL     1      40.157 -11.534   6.679  1.00  0.00     0.337 C 
BRANCH  14  15
HETATM   15  C   UNL     1      39.563 -11.347   8.079  1.00  0.00     0.243 C 
HETATM   16  N   UNL     1      39.621 -10.051   8.541  1.00  0.00    -0.355 N 
HETATM   17  H   UNL     1      40.184  -9.353   8.071  1.00  0.00     0.162 HD
HETATM   18  O   UNL     1      39.057 -12.273   8.704  1.00  0.00    -0.272 OA
BRANCH  16  19
HETATM   19  C   UNL     1      39.114  -9.680   9.848  1.00  0.00     0.161 C 
BRANCH  19  20
HETATM   20  C   UNL     1      40.215  -9.613  10.871  1.00  0.00    -0.041 A 
HETATM   21  C   UNL     1      41.183  -8.600  10.824  1.00  0.00     0.009 A 
HETATM   22  C   UNL     1      42.177  -8.520  11.803  1.00  0.00     0.007 A 
HETATM   23  C   UNL     1      42.225  -9.453  12.844  1.00  0.00    -0.062 A 
HETATM   24  C   UNL     1      43.247  -9.322  13.936  1.00  0.00     0.048 C 
HETATM   25  C   UNL     1      41.259 -10.462  12.896  1.00  0.00     0.007 A 
HETATM   26  C   UNL     1      40.269 -10.548  11.914  1.00  0.00     0.009 A 
ENDBRANCH  19  20
ENDBRANCH  16  19
ENDBRANCH  14  15
ENDBRANCH  10  14
ENDBRANCH   1   7
BRANCH   3  27
HETATM   27  N   UNL     1      44.210 -18.155   2.330  1.00  0.00    -0.187 N 
HETATM   28  H   UNL     1      45.115 -17.704   2.384  1.00  0.00     0.184 HD
BRANCH  27  29
HETATM   29  C   UNL     1      44.229 -19.527   2.622  1.00  0.00     0.049 A 
HETATM   30  C   UNL     1      44.683 -19.938   3.885  1.00  0.00     0.030 A 
HETATM   31  C   UNL     1      44.743 -21.293   4.225  1.00  0.00     0.002 A 
HETATM   32  C   UNL     1      44.353 -22.260   3.304  1.00  0.00     0.000 A 
HETATM   33  C   UNL     1      43.915 -21.872   2.041  1.00  0.00     0.002 A 
HETATM   34  C   UNL     1      43.868 -20.517   1.700  1.00  0.00     0.030 A 
ENDBRANCH  27  29
ENDBRANCH   3  27
BRANCH   5  35
HETATM   35  N   UNL     1      40.698 -15.835   0.449  1.00  0.00    -0.187 N 
HETATM   36  H   UNL     1      39.862 -16.401   0.482  1.00  0.00     0.184 HD
BRANCH  35  37
HETATM   37  C   UNL     1      40.910 -15.104  -0.726  1.00  0.00     0.049 A 
HETATM   38  C   UNL     1      40.948 -13.705  -0.763  1.00  0.00     0.030 A 
HETATM   39  C   UNL     1      41.119 -13.016  -1.968  1.00  0.00     0.002 A 
HETATM   40  C   UNL     1      41.231 -13.719  -3.163  1.00  0.00     0.000 A 
HETATM   41  C   UNL     1      41.175 -15.110  -3.152  1.00  0.00     0.002 A 
HETATM   42  C   UNL     1      41.015 -15.794  -1.943  1.00  0.00     0.030 A 
ENDBRANCH  35  37
ENDBRANCH   5  35
TORSDOF 9
ENDMDL
MODEL 9
REMARK VINA RESULT:      -9.7      3.294      6.251
REMARK  9 active torsions:
REMARK  status: ('A' for Active; 'I' for Inactive)
REMARK    1  A    between atoms: C_5  and  C_6 
REMARK    2  A    between atoms: C_6  and  N_7 
REMARK       I    between atoms: N_7  and  C_8 
REMARK    3  A    between atoms: C_8  and  C_9 
REMARK    4  A    between atoms: C_9  and  N_10 
REMARK    5  A    between atoms: N_14  and  C_15 
REMARK    6  A    between atoms: C_17  and  N_18 
REMARK    7  A    between atoms: N_18  and  C_19 
REMARK    8  A    between atoms: C_26  and  N_27 
REMARK    9  A    between atoms: N_27  and  C_28 
ROOT
HETATM    1  C   UNL     1      42.332 -14.495   5.569  1.00  0.00     0.756 A 
HETATM    2  N   UNL     1      42.445 -15.808   5.485  1.00  0.00     0.131 NA
HETATM    3  C   UNL     1      43.515 -16.355   6.054  1.00  0.00     0.758 A 
HETATM    4  N   UNL     1      44.458 -15.658   6.671  1.00  0.00     0.131 NA
HETATM    5  C   UNL     1      44.230 -14.358   6.789  1.00  0.00     0.758 A 
HETATM    6  N   UNL     1      43.169 -13.750   6.269  1.00  0.00     0.131 NA
ENDROOT
BRANCH   1   7
HETATM    7  N   UNL     1      41.318 -13.867   4.877  1.00  0.00    -0.210 N 
HETATM    8  C   UNL     1      41.647 -12.826   3.904  1.00  0.00     0.169 C 
HETATM    9  C   UNL     1      41.143 -11.454   4.403  1.00  0.00     0.256 C 
HETATM   10  N   UNL     1      39.650 -11.554   4.729  1.00  0.00    -0.060 N 
HETATM   11  H   UNL     1      39.201 -11.933   3.886  1.00  0.00     0.280 HD
HETATM   12  C   UNL     1      39.426 -12.598   5.833  1.00  0.00     0.256 C 
HETATM   13  C   UNL     1      39.935 -13.971   5.348  1.00  0.00     0.169 C 
BRANCH  10  14
HETATM   14  C   UNL     1      38.988 -10.211   4.996  1.00  0.00     0.337 C 
BRANCH  14  15
HETATM   15  C   UNL     1      39.803  -9.183   5.788  1.00  0.00     0.243 C 
HETATM   16  N   UNL     1      39.925  -9.481   7.127  1.00  0.00    -0.355 N 
HETATM   17  H   UNL     1      39.357 -10.200   7.556  1.00  0.00     0.162 HD
HETATM   18  O   UNL     1      40.319  -8.206   5.255  1.00  0.00    -0.272 OA
BRANCH  16  19
HETATM   19  C   UNL     1      40.656  -8.622   8.039  1.00  0.00     0.161 C 
BRANCH  19  20
HETATM   20  C   UNL     1      40.831  -9.267   9.387  1.00  0.00    -0.041 A 
HETATM   21  C   UNL     1      41.478  -8.592  10.432  1.00  0.00     0.009 A 
HETATM   22  C   UNL     1      41.598  -9.182  11.693  1.00  0.00     0.007 A 
HETATM   23  C   UNL     1      41.077 -10.458  11.933  1.00  0.00    -0.062 A 
HETATM   24  C   UNL     1      41.139 -11.060  13.307  1.00  0.00     0.048 C 
HETATM   25  C   UNL     1      40.428 -11.132  10.894  1.00  0.00     0.007 A 
HETATM   26  C   UNL     1      40.314 -10.547   9.630  1.00  0.00     0.009 A 
ENDBRANCH  19  20
ENDBRANCH  16  19
ENDBRANCH  14  15
ENDBRANCH  10  14
ENDBRANCH   1   7
BRANCH   3  27
HETATM   27  N   UNL     1      43.726 -17.731   5.973  1.00  0.00    -0.187 N 
HETATM   28  H   UNL     1      43.248 -18.197   6.734  1.00  0.00     0.184 HD
BRANCH  27  29
HETATM   29  C   UNL     1      43.989 -18.552   4.866  1.00  0.00     0.049 A 
HETATM   30  C   UNL     1      44.639 -19.778   5.078  1.00  0.00     0.030 A 
HETATM   31  C   UNL     1      44.945 -20.627   4.011  1.00  0.00     0.002 A 
HETATM   32  C   UNL     1      44.608 -20.261   2.711  1.00  0.00     0.000 A 
HETATM   33  C   UNL     1      43.977 -19.042   2.480  1.00  0.00     0.002 A 
HETATM   34  C   UNL     1      43.684 -18.190   3.548  1.00  0.00     0.030 A 
ENDBRANCH  27  29
ENDBRANCH   3  27
BRANCH   5  35
HETATM   35  N   UNL     1      45.210 -13.625   7.453  1.00  0.00    -0.187 N 
HETATM   36  H   UNL     1      46.134 -13.920   7.171  1.00  0.00     0.184 HD
BRANCH  35  37
HETATM   37  C   UNL     1      45.145 -12.701   8.502  1.00  0.00     0.049 A 
HETATM   38  C   UNL     1      46.074 -11.667   8.673  1.00  0.00     0.030 A 
HETATM   39  C   UNL     1      45.994 -10.793   9.761  1.00  0.00     0.002 A 
HETATM   40  C   UNL     1      44.992 -10.955  10.713  1.00  0.00     0.000 A 
HETATM   41  C   UNL     1      44.070 -11.989  10.574  1.00  0.00     0.002 A 
HETATM   42  C   UNL     1      44.149 -12.853   9.478  1.00  0.00     0.030 A 
ENDBRANCH  35  37
ENDBRANCH   5  35
TORSDOF 9
ENDMDL
MODEL 10
REMARK VINA RESULT:      -9.6      2.182      3.033
REMARK  9 active torsions:
REMARK  status: ('A' for Active; 'I' for Inactive)
REMARK    1  A    between atoms: C_5  and  C_6 
REMARK    2  A    between atoms: C_6  and  N_7 
REMARK       I    between atoms: N_7  and  C_8 
REMARK    3  A    between atoms: C_8  and  C_9 
REMARK    4  A    between atoms: C_9  and  N_10 
REMARK    5  A    between atoms: N_14  and  C_15 
REMARK    6  A    between atoms: C_17  and  N_18 
REMARK    7  A    between atoms: N_18  and  C_19 
REMARK    8  A    between atoms: C_26  and  N_27 
REMARK    9  A    between atoms: N_27  and  C_28 
ROOT
HETATM    1  C   UNL     1      40.552 -13.504   3.186  1.00  0.00     0.756 A 
HETATM    2  N   UNL     1      40.883 -14.675   3.697  1.00  0.00     0.131 NA
HETATM    3  C   UNL     1      40.510 -15.753   3.014  1.00  0.00     0.758 A 
HETATM    4  N   UNL     1      39.822 -15.706   1.882  1.00  0.00     0.131 NA
HETATM    5  C   UNL     1      39.603 -14.495   1.390  1.00  0.00     0.758 A 
HETATM    6  N   UNL     1      39.972 -13.378   2.005  1.00  0.00     0.131 NA
ENDROOT
BRANCH   1   7
HETATM    7  N   UNL     1      40.791 -12.362   3.923  1.00  0.00    -0.210 N 
HETATM    8  C   UNL     1      42.047 -12.232   4.661  1.00  0.00     0.169 C 
HETATM    9  C   UNL     1      41.774 -12.255   6.181  1.00  0.00     0.256 C 
HETATM   10  N   UNL     1      40.735 -11.182   6.522  1.00  0.00    -0.060 N 
HETATM   11  H   UNL     1      41.096 -10.304   6.130  1.00  0.00     0.280 HD
HETATM   12  C   UNL     1      39.423 -11.471   5.777  1.00  0.00     0.256 C 
HETATM   13  C   UNL     1      39.687 -11.460   4.257  1.00  0.00     0.169 C 
BRANCH  10  14
HETATM   14  C   UNL     1      40.566 -10.944   8.015  1.00  0.00     0.337 C 
BRANCH  14  15
HETATM   15  C   UNL     1      41.795 -10.444   8.780  1.00  0.00     0.243 C 
HETATM   16  N   UNL     1      42.194 -11.279   9.800  1.00  0.00    -0.355 N 
HETATM   17  H   UNL     1      41.601 -12.033  10.121  1.00  0.00     0.162 HD
HETATM   18  O   UNL     1      42.378  -9.408   8.478  1.00  0.00    -0.272 OA
BRANCH  16  19
HETATM   19  C   UNL     1      43.336 -10.970  10.641  1.00  0.00     0.161 C 
BRANCH  19  20
HETATM   20  C   UNL     1      42.912 -10.603  12.037  1.00  0.00    -0.041 A 
HETATM   21  C   UNL     1      43.667  -9.707  12.808  1.00  0.00     0.009 A 
HETATM   22  C   UNL     1      43.243  -9.339  14.088  1.00  0.00     0.007 A 
HETATM   23  C   UNL     1      42.061  -9.862  14.623  1.00  0.00    -0.062 A 
HETATM   24  C   UNL     1      41.567  -9.408  15.966  1.00  0.00     0.048 C 
HETATM   25  C   UNL     1      41.304 -10.752  13.854  1.00  0.00     0.007 A 
HETATM   26  C   UNL     1      41.731 -11.128  12.578  1.00  0.00     0.009 A 
ENDBRANCH  19  20
ENDBRANCH  16  19
ENDBRANCH  14  15
ENDBRANCH  10  14
ENDBRANCH   1   7
BRANCH   3  27
HETATM   27  N   UNL     1      40.788 -17.027   3.508  1.00  0.00    -0.187 N 
HETATM   28  H   UNL     1      39.927 -17.549   3.616  1.00  0.00     0.184 HD
BRANCH  27  29
HETATM   29  C   UNL     1      41.936 -17.825   3.386  1.00  0.00     0.049 A 
HETATM   30  C   UNL     1      42.333 -18.238   2.105  1.00  0.00     0.030 A 
HETATM   31  C   UNL     1      43.456 -19.050   1.924  1.00  0.00     0.002 A 
HETATM   32  C   UNL     1      44.200 -19.466   3.024  1.00  0.00     0.000 A 
HETATM   33  C   UNL     1      43.812 -19.079   4.304  1.00  0.00     0.002 A 
HETATM   34  C   UNL     1      42.681 -18.277   4.482  1.00  0.00     0.030 A 
ENDBRANCH  27  29
ENDBRANCH   3  27
BRANCH   5  35
HETATM   35  N   UNL     1      38.897 -14.444   0.192  1.00  0.00    -0.187 N 
HETATM   36  H   UNL     1      37.901 -14.486   0.357  1.00  0.00     0.184 HD
BRANCH  35  37
HETATM   37  C   UNL     1      39.308 -14.493  -1.146  1.00  0.00     0.049 A 
HETATM   38  C   UNL     1      38.457 -14.207  -2.220  1.00  0.00     0.030 A 
HETATM   39  C   UNL     1      38.900 -14.311  -3.543  1.00  0.00     0.002 A 
HETATM   40  C   UNL     1      40.200 -14.728  -3.812  1.00  0.00     0.000 A 
HETATM   41  C   UNL     1      41.056 -15.037  -2.759  1.00  0.00     0.002 A 
HETATM   42  C   UNL     1      40.611 -14.920  -1.438  1.00  0.00     0.030 A 
ENDBRANCH  35  37
ENDBRANCH   5  35
TORSDOF 9
ENDMDL
