MODEL 1
REMARK VINA RESULT:      -8.4      0.000      0.000
REMARK  3 active torsions:
REMARK  status: ('A' for Active; 'I' for Inactive)
REMARK    1  A    between atoms: N_3  and  C_4 
REMARK    2  A    between atoms: C_8  and  C_9 
REMARK       I    between atoms: C_9  and  N_10 
REMARK    3  A    between atoms: C_17  and  O_18 
ROOT
HETATM    1  C   UNL     1      43.247 -14.321   3.645  1.00  0.00     0.254 C 
HETATM    2  N   UNL     1      42.130 -13.813   4.302  1.00  0.00    -0.343 N 
HETATM    3  C   UNL     1      42.191 -12.421   4.729  1.00  0.00     0.165 C 
HETATM    4  C   UNL     1      41.199 -12.097   5.825  1.00  0.00    -0.031 A 
HETATM    5  C   UNL     1      40.137 -12.970   6.139  1.00  0.00    -0.049 A 
HETATM    6  C   UNL     1      40.001 -14.299   5.435  1.00  0.00     0.059 C 
HETATM    7  C   UNL     1      40.777 -14.337   4.119  1.00  0.00     0.131 C 
HETATM    8  C   UNL     1      41.325 -10.887   6.525  1.00  0.00     0.046 A 
HETATM    9  C   UNL     1      40.422 -10.571   7.535  1.00  0.00     0.066 A 
HETATM   10  C   UNL     1      39.383 -11.433   7.859  1.00  0.00     0.037 A 
HETATM   11  C   UNL     1      39.241 -12.634   7.163  1.00  0.00     0.010 A 
HETATM   12  O   UNL     1      44.199 -13.623   3.302  1.00  0.00    -0.267 OA
ENDROOT
BRANCH   1  13
HETATM   13  C   UNL     1      43.341 -15.781   3.404  1.00  0.00     0.035 A 
HETATM   14  C   UNL     1      43.559 -16.237   2.103  1.00  0.00     0.061 A 
HETATM   15  C   UNL     1      43.730 -17.601   1.863  1.00  0.00     0.146 A 
HETATM   16  C   UNL     1      43.699 -18.525   2.911  1.00  0.00     0.096 A 
HETATM   17  F   UNL     1      43.925 -17.975   0.591  1.00  0.00    -0.204 F 
HETATM   18  C   UNL     1      43.490 -18.056   4.220  1.00  0.00     0.036 A 
HETATM   19  C   UNL     1      43.326 -16.690   4.467  1.00  0.00     0.019 A 
BRANCH  16  20
HETATM   20  N   UNL     1      43.889 -19.918   2.700  1.00  0.00    -0.242 N 
HETATM   21  C   UNL     1      44.730 -20.795   3.353  1.00  0.00     0.120 A 
HETATM   22  C   UNL     1      44.543 -22.038   2.797  1.00  0.00     0.040 A 
HETATM   23  C   UNL     1      43.574 -21.836   1.808  1.00  0.00     0.140 A 
HETATM   24  N   UNL     1      43.172 -20.568   1.739  1.00  0.00    -0.180 NA
ENDBRANCH  16  20
ENDBRANCH   1  13
BRANCH   9  25
HETATM   25  O   UNL     1      40.527  -9.411   8.244  1.00  0.00    -0.361 OA
HETATM   26  H   UNL     1      39.646  -9.170   8.577  1.00  0.00     0.217 HD
ENDBRANCH   9  25
TORSDOF 3
ENDMDL
MODEL 2
REMARK VINA RESULT:      -8.4      4.520      8.169
REMARK  3 active torsions:
REMARK  status: ('A' for Active; 'I' for Inactive)
REMARK    1  A    between atoms: N_3  and  C_4 
REMARK    2  A    between atoms: C_8  and  C_9 
REMARK       I    between atoms: C_9  and  N_10 
REMARK    3  A    between atoms: C_17  and  O_18 
ROOT
HETATM    1  C   UNL     1      42.947 -17.273   1.486  1.00  0.00     0.254 C 
HETATM    2  N   UNL     1      43.351 -17.807   2.706  1.00  0.00    -0.343 N 
HETATM    3  C   UNL     1      44.245 -18.957   2.660  1.00  0.00     0.165 C 
HETATM    4  C   UNL     1      44.240 -19.759   3.944  1.00  0.00    -0.031 A 
HETATM    5  C   UNL     1      43.683 -19.244   5.131  1.00  0.00    -0.049 A 
HETATM    6  C   UNL     1      43.003 -17.896   5.139  1.00  0.00     0.059 C 
HETATM    7  C   UNL     1      43.413 -17.035   3.946  1.00  0.00     0.131 C 
HETATM    8  C   UNL     1      44.829 -21.033   3.955  1.00  0.00     0.046 A 
HETATM    9  C   UNL     1      44.837 -21.785   5.126  1.00  0.00     0.066 A 
HETATM   10  C   UNL     1      44.276 -21.289   6.295  1.00  0.00     0.037 A 
HETATM   11  C   UNL     1      43.697 -20.020   6.299  1.00  0.00     0.010 A 
HETATM   12  O   UNL     1      43.409 -17.638   0.407  1.00  0.00    -0.267 OA
ENDROOT
BRANCH   1  13
HETATM   13  C   UNL     1      41.858 -16.267   1.464  1.00  0.00     0.035 A 
HETATM   14  C   UNL     1      42.076 -15.051   0.813  1.00  0.00     0.061 A 
HETATM   15  C   UNL     1      41.041 -14.121   0.710  1.00  0.00     0.146 A 
HETATM   16  C   UNL     1      39.776 -14.390   1.241  1.00  0.00     0.096 A 
HETATM   17  F   UNL     1      41.317 -12.970   0.082  1.00  0.00    -0.204 F 
HETATM   18  C   UNL     1      39.562 -15.622   1.886  1.00  0.00     0.036 A 
HETATM   19  C   UNL     1      40.593 -16.561   1.984  1.00  0.00     0.019 A 
BRANCH  16  20
HETATM   20  N   UNL     1      38.697 -13.471   1.135  1.00  0.00    -0.242 N 
HETATM   21  C   UNL     1      37.572 -13.531   0.339  1.00  0.00     0.120 A 
HETATM   22  C   UNL     1      36.818 -12.413   0.605  1.00  0.00     0.040 A 
HETATM   23  C   UNL     1      37.553 -11.718   1.572  1.00  0.00     0.140 A 
HETATM   24  N   UNL     1      38.683 -12.343   1.901  1.00  0.00    -0.180 NA
ENDBRANCH  16  20
ENDBRANCH   1  13
BRANCH   9  25
HETATM   25  O   UNL     1      45.387 -23.032   5.166  1.00  0.00    -0.361 OA
HETATM   26  H   UNL     1      46.146 -23.056   4.561  1.00  0.00     0.217 HD
ENDBRANCH   9  25
TORSDOF 3
ENDMDL
MODEL 3
REMARK VINA RESULT:      -8.3      3.469      8.479
REMARK  3 active torsions:
REMARK  status: ('A' for Active; 'I' for Inactive)
REMARK    1  A    between atoms: N_3  and  C_4 
REMARK    2  A    between atoms: C_8  and  C_9 
REMARK       I    between atoms: C_9  and  N_10 
REMARK    3  A    between atoms: C_17  and  O_18 
ROOT
HETATM    1  C   UNL     1      42.638 -16.829   1.660  1.00  0.00     0.254 C 
HETATM    2  N   UNL     1      43.298 -17.601   2.611  1.00  0.00    -0.343 N 
HETATM    3  C   UNL     1      43.886 -18.853   2.153  1.00  0.00     0.165 C 
HETATM    4  C   UNL     1      44.135 -19.834   3.278  1.00  0.00    -0.031 A 
HETATM    5  C   UNL     1      44.100 -19.430   4.628  1.00  0.00    -0.049 A 
HETATM    6  C   UNL     1      43.737 -18.011   4.996  1.00  0.00     0.059 C 
HETATM    7  C   UNL     1      43.904 -17.049   3.822  1.00  0.00     0.131 C 
HETATM    8  C   UNL     1      44.434 -21.170   2.967  1.00  0.00     0.046 A 
HETATM    9  C   UNL     1      44.668 -22.086   3.987  1.00  0.00     0.066 A 
HETATM   10  C   UNL     1      44.620 -21.697   5.319  1.00  0.00     0.037 A 
HETATM   11  C   UNL     1      44.334 -20.371   5.642  1.00  0.00     0.010 A 
HETATM   12  O   UNL     1      42.650 -17.088   0.458  1.00  0.00    -0.267 OA
ENDROOT
BRANCH   1  13
HETATM   13  C   UNL     1      41.820 -15.676   2.108  1.00  0.00     0.035 A 
HETATM   14  C   UNL     1      42.260 -14.383   1.818  1.00  0.00     0.061 A 
HETATM   15  C   UNL     1      41.469 -13.286   2.158  1.00  0.00     0.146 A 
HETATM   16  C   UNL     1      40.228 -13.458   2.779  1.00  0.00     0.096 A 
HETATM   17  F   UNL     1      41.953 -12.072   1.864  1.00  0.00    -0.204 F 
HETATM   18  C   UNL     1      39.787 -14.765   3.057  1.00  0.00     0.036 A 
HETATM   19  C   UNL     1      40.573 -15.868   2.710  1.00  0.00     0.019 A 
BRANCH  16  20
HETATM   20  N   UNL     1      39.391 -12.361   3.120  1.00  0.00    -0.242 N 
HETATM   21  C   UNL     1      39.231 -11.726   4.334  1.00  0.00     0.120 A 
HETATM   22  C   UNL     1      38.321 -10.713   4.154  1.00  0.00     0.040 A 
HETATM   23  C   UNL     1      37.968 -10.796   2.802  1.00  0.00     0.140 A 
HETATM   24  N   UNL     1      38.604 -11.781   2.169  1.00  0.00    -0.180 NA
ENDBRANCH  16  20
ENDBRANCH   1  13
BRANCH   9  25
HETATM   25  O   UNL     1      44.946 -23.394   3.718  1.00  0.00    -0.361 OA
HETATM   26  H   UNL     1      45.261 -23.817   4.533  1.00  0.00     0.217 HD
ENDBRANCH   9  25
TORSDOF 3
ENDMDL
MODEL 4
REMARK VINA RESULT:      -8.0      4.391      6.962
REMARK  3 active torsions:
REMARK  status: ('A' for Active; 'I' for Inactive)
REMARK    1  A    between atoms: N_3  and  C_4 
REMARK    2  A    between atoms: C_8  and  C_9 
REMARK       I    between atoms: C_9  and  N_10 
REMARK    3  A    between atoms: C_17  and  O_18 
ROOT
HETATM    1  C   UNL     1      40.388 -14.911   4.022  1.00  0.00     0.254 C 
HETATM    2  N   UNL     1      41.021 -16.062   4.481  1.00  0.00    -0.343 N 
HETATM    3  C   UNL     1      41.163 -16.207   5.925  1.00  0.00     0.165 C 
HETATM    4  C   UNL     1      42.252 -17.184   6.315  1.00  0.00    -0.031 A 
HETATM    5  C   UNL     1      42.814 -18.073   5.377  1.00  0.00    -0.049 A 
HETATM    6  C   UNL     1      42.395 -18.026   3.927  1.00  0.00     0.059 C 
HETATM    7  C   UNL     1      41.055 -17.320   3.736  1.00  0.00     0.131 C 
HETATM    8  C   UNL     1      42.690 -17.221   7.648  1.00  0.00     0.046 A 
HETATM    9  C   UNL     1      43.688 -18.113   8.027  1.00  0.00     0.066 A 
HETATM   10  C   UNL     1      44.257 -18.981   7.104  1.00  0.00     0.037 A 
HETATM   11  C   UNL     1      43.822 -18.961   5.779  1.00  0.00     0.010 A 
HETATM   12  O   UNL     1      39.840 -14.103   4.768  1.00  0.00    -0.267 OA
ENDROOT
BRANCH   1  13
HETATM   13  C   UNL     1      40.429 -14.594   2.574  1.00  0.00     0.035 A 
HETATM   14  C   UNL     1      39.236 -14.591   1.850  1.00  0.00     0.061 A 
HETATM   15  C   UNL     1      39.238 -14.218   0.506  1.00  0.00     0.146 A 
HETATM   16  C   UNL     1      40.421 -13.834  -0.132  1.00  0.00     0.096 A 
HETATM   17  F   UNL     1      38.062 -14.247  -0.135  1.00  0.00    -0.204 F 
HETATM   18  C   UNL     1      41.617 -13.829   0.608  1.00  0.00     0.036 A 
HETATM   19  C   UNL     1      41.619 -14.193   1.957  1.00  0.00     0.019 A 
BRANCH  16  20
HETATM   20  N   UNL     1      40.451 -13.430  -1.495  1.00  0.00    -0.242 N 
HETATM   21  C   UNL     1      39.892 -12.320  -2.091  1.00  0.00     0.120 A 
HETATM   22  C   UNL     1      40.210 -12.364  -3.428  1.00  0.00     0.040 A 
HETATM   23  C   UNL     1      40.962 -13.535  -3.569  1.00  0.00     0.140 A 
HETATM   24  N   UNL     1      41.116 -14.185  -2.416  1.00  0.00    -0.180 NA
ENDBRANCH  16  20
ENDBRANCH   1  13
BRANCH   9  25
HETATM   25  O   UNL     1      44.147 -18.163   9.310  1.00  0.00    -0.361 OA
HETATM   26  H   UNL     1      43.580 -17.602   9.864  1.00  0.00     0.217 HD
ENDBRANCH   9  25
TORSDOF 3
ENDMDL
MODEL 5
REMARK VINA RESULT:      -8.0      4.358      7.221
REMARK  3 active torsions:
REMARK  status: ('A' for Active; 'I' for Inactive)
REMARK    1  A    between atoms: N_3  and  C_4 
REMARK    2  A    between atoms: C_8  and  C_9 
REMARK       I    between atoms: C_9  and  N_10 
REMARK    3  A    between atoms: C_17  and  O_18 
ROOT
HETATM    1  C   UNL     1      42.096 -17.615   1.979  1.00  0.00     0.254 C 
HETATM    2  N   UNL     1      42.653 -17.288   3.212  1.00  0.00    -0.343 N 
HETATM    3  C   UNL     1      43.203 -18.383   4.000  1.00  0.00     0.165 C 
HETATM    4  C   UNL     1      43.328 -18.047   5.470  1.00  0.00    -0.031 A 
HETATM    5  C   UNL     1      43.228 -16.719   5.933  1.00  0.00    -0.049 A 
HETATM    6  C   UNL     1      42.916 -15.594   4.976  1.00  0.00     0.059 C 
HETATM    7  C   UNL     1      43.208 -15.972   3.525  1.00  0.00     0.131 C 
HETATM    8  C   UNL     1      43.577 -19.079   6.389  1.00  0.00     0.046 A 
HETATM    9  C   UNL     1      43.697 -18.790   7.744  1.00  0.00     0.066 A 
HETATM   10  C   UNL     1      43.583 -17.486   8.207  1.00  0.00     0.037 A 
HETATM   11  C   UNL     1      43.347 -16.450   7.304  1.00  0.00     0.010 A 
HETATM   12  O   UNL     1      42.172 -18.738   1.485  1.00  0.00    -0.267 OA
ENDROOT
BRANCH   1  13
HETATM   13  C   UNL     1      41.313 -16.591   1.247  1.00  0.00     0.035 A 
HETATM   14  C   UNL     1      40.197 -16.026   1.866  1.00  0.00     0.061 A 
HETATM   15  C   UNL     1      39.491 -15.004   1.230  1.00  0.00     0.146 A 
HETATM   16  C   UNL     1      39.890 -14.525  -0.021  1.00  0.00     0.096 A 
HETATM   17  F   UNL     1      38.423 -14.511   1.872  1.00  0.00    -0.204 F 
HETATM   18  C   UNL     1      41.022 -15.092  -0.633  1.00  0.00     0.036 A 
HETATM   19  C   UNL     1      41.738 -16.110   0.004  1.00  0.00     0.019 A 
BRANCH  16  20
HETATM   20  N   UNL     1      39.203 -13.472  -0.685  1.00  0.00    -0.242 N 
HETATM   21  C   UNL     1      39.442 -12.114  -0.653  1.00  0.00     0.120 A 
HETATM   22  C   UNL     1      38.516 -11.512  -1.471  1.00  0.00     0.040 A 
HETATM   23  C   UNL     1      37.744 -12.570  -1.963  1.00  0.00     0.140 A 
HETATM   24  N   UNL     1      38.146 -13.753  -1.500  1.00  0.00    -0.180 NA
ENDBRANCH  16  20
ENDBRANCH   1  13
BRANCH   9  25
HETATM   25  O   UNL     1      43.922 -19.772   8.663  1.00  0.00    -0.361 OA
HETATM   26  H   UNL     1      44.803 -19.638   9.050  1.00  0.00     0.217 HD
ENDBRANCH   9  25
TORSDOF 3
ENDMDL
MODEL 6
REMARK VINA RESULT:      -7.9      3.430      8.691
REMARK  3 active torsions:
REMARK  status: ('A' for Active; 'I' for Inactive)
REMARK    1  A    between atoms: N_3  and  C_4 
REMARK    2  A    between atoms: C_8  and  C_9 
REMARK       I    between atoms: C_9  and  N_10 
REMARK    3  A    between atoms: C_17  and  O_18 
ROOT
HETATM    1  C   UNL     1      41.532 -16.244   1.247  1.00  0.00     0.254 C 
HETATM    2  N   UNL     1      42.513 -16.985   1.898  1.00  0.00    -0.343 N 
HETATM    3  C   UNL     1      42.869 -18.270   1.310  1.00  0.00     0.165 C 
HETATM    4  C   UNL     1      43.542 -19.203   2.294  1.00  0.00    -0.031 A 
HETATM    5  C   UNL     1      44.043 -18.736   3.526  1.00  0.00    -0.049 A 
HETATM    6  C   UNL     1      43.858 -17.295   3.935  1.00  0.00     0.059 C 
HETATM    7  C   UNL     1      43.549 -16.392   2.742  1.00  0.00     0.131 C 
HETATM    8  C   UNL     1      43.691 -20.558   1.958  1.00  0.00     0.046 A 
HETATM    9  C   UNL     1      44.308 -21.431   2.849  1.00  0.00     0.066 A 
HETATM   10  C   UNL     1      44.791 -20.980   4.071  1.00  0.00     0.037 A 
HETATM   11  C   UNL     1      44.658 -19.634   4.411  1.00  0.00     0.010 A 
HETATM   12  O   UNL     1      41.067 -16.559   0.153  1.00  0.00    -0.267 OA
ENDROOT
BRANCH   1  13
HETATM   13  C   UNL     1      40.959 -15.055   1.922  1.00  0.00     0.035 A 
HETATM   14  C   UNL     1      40.349 -15.214   3.167  1.00  0.00     0.061 A 
HETATM   15  C   UNL     1      39.874 -14.098   3.858  1.00  0.00     0.146 A 
HETATM   16  C   UNL     1      40.009 -12.812   3.326  1.00  0.00     0.096 A 
HETATM   17  F   UNL     1      39.289 -14.320   5.042  1.00  0.00    -0.204 F 
HETATM   18  C   UNL     1      40.636 -12.659   2.076  1.00  0.00     0.036 A 
HETATM   19  C   UNL     1      41.120 -13.773   1.384  1.00  0.00     0.019 A 
BRANCH  16  20
HETATM   20  N   UNL     1      39.553 -11.655   4.015  1.00  0.00    -0.242 N 
HETATM   21  C   UNL     1      40.171 -10.931   5.013  1.00  0.00     0.120 A 
HETATM   22  C   UNL     1      39.337  -9.890   5.344  1.00  0.00     0.040 A 
HETATM   23  C   UNL     1      38.228 -10.050   4.507  1.00  0.00     0.140 A 
HETATM   24  N   UNL     1      38.344 -11.106   3.702  1.00  0.00    -0.180 NA
ENDBRANCH  16  20
ENDBRANCH   1  13
BRANCH   9  25
HETATM   25  O   UNL     1      44.454 -22.755   2.560  1.00  0.00    -0.361 OA
HETATM   26  H   UNL     1      44.401 -22.870   1.597  1.00  0.00     0.217 HD
ENDBRANCH   9  25
TORSDOF 3
ENDMDL
MODEL 7
REMARK VINA RESULT:      -7.8      4.823      6.690
REMARK  3 active torsions:
REMARK  status: ('A' for Active; 'I' for Inactive)
REMARK    1  A    between atoms: N_3  and  C_4 
REMARK    2  A    between atoms: C_8  and  C_9 
REMARK       I    between atoms: C_9  and  N_10 
REMARK    3  A    between atoms: C_17  and  O_18 
ROOT
HETATM    1  C   UNL     1      41.520 -16.022   0.693  1.00  0.00     0.254 C 
HETATM    2  N   UNL     1      41.535 -14.716   0.215  1.00  0.00    -0.343 N 
HETATM    3  C   UNL     1      41.370 -14.536  -1.222  1.00  0.00     0.165 C 
HETATM    4  C   UNL     1      41.877 -13.196  -1.710  1.00  0.00    -0.031 A 
HETATM    5  C   UNL     1      42.163 -12.146  -0.815  1.00  0.00    -0.049 A 
HETATM    6  C   UNL     1      42.042 -12.353   0.676  1.00  0.00     0.059 C 
HETATM    7  C   UNL     1      41.164 -13.554   1.023  1.00  0.00     0.131 C 
HETATM    8  C   UNL     1      42.040 -12.989  -3.089  1.00  0.00     0.046 A 
HETATM    9  C   UNL     1      42.503 -11.764  -3.558  1.00  0.00     0.066 A 
HETATM   10  C   UNL     1      42.802 -10.731  -2.680  1.00  0.00     0.037 A 
HETATM   11  C   UNL     1      42.634 -10.920  -1.308  1.00  0.00     0.010 A 
HETATM   12  O   UNL     1      41.243 -16.992  -0.010  1.00  0.00    -0.267 OA
ENDROOT
BRANCH   1  13
HETATM   13  C   UNL     1      41.921 -16.282   2.097  1.00  0.00     0.035 A 
HETATM   14  C   UNL     1      41.046 -16.980   2.931  1.00  0.00     0.061 A 
HETATM   15  C   UNL     1      41.433 -17.306   4.231  1.00  0.00     0.146 A 
HETATM   16  C   UNL     1      42.697 -16.954   4.714  1.00  0.00     0.096 A 
HETATM   17  F   UNL     1      40.544 -17.966   4.984  1.00  0.00    -0.204 F 
HETATM   18  C   UNL     1      43.578 -16.261   3.863  1.00  0.00     0.036 A 
HETATM   19  C   UNL     1      43.197 -15.940   2.557  1.00  0.00     0.019 A 
BRANCH  16  20
HETATM   20  N   UNL     1      43.128 -17.289   6.026  1.00  0.00    -0.242 N 
HETATM   21  C   UNL     1      42.721 -16.774   7.239  1.00  0.00     0.120 A 
HETATM   22  C   UNL     1      43.420 -17.432   8.223  1.00  0.00     0.040 A 
HETATM   23  C   UNL     1      44.237 -18.332   7.529  1.00  0.00     0.140 A 
HETATM   24  N   UNL     1      44.071 -18.258   6.209  1.00  0.00    -0.180 NA
ENDBRANCH  16  20
ENDBRANCH   1  13
BRANCH   9  25
HETATM   25  O   UNL     1      42.687 -11.536  -4.890  1.00  0.00    -0.361 OA
HETATM   26  H   UNL     1      41.950 -11.938  -5.378  1.00  0.00     0.217 HD
ENDBRANCH   9  25
TORSDOF 3
ENDMDL
MODEL 8
REMARK VINA RESULT:      -7.7      4.890      8.343
REMARK  3 active torsions:
REMARK  status: ('A' for Active; 'I' for Inactive)
REMARK    1  A    between atoms: N_3  and  C_4 
REMARK    2  A    between atoms: C_8  and  C_9 
REMARK       I    between atoms: C_9  and  N_10 
REMARK    3  A    between atoms: C_17  and  O_18 
ROOT
HETATM    1  C   UNL     1      39.986 -15.079   2.887  1.00  0.00     0.254 C 
HETATM    2  N   UNL     1      40.651 -16.292   2.736  1.00  0.00    -0.343 N 
HETATM    3  C   UNL     1      41.320 -16.830   3.915  1.00  0.00     0.165 C 
HETATM    4  C   UNL     1      42.393 -17.842   3.573  1.00  0.00    -0.031 A 
HETATM    5  C   UNL     1      42.482 -18.416   2.289  1.00  0.00    -0.049 A 
HETATM    6  C   UNL     1      41.548 -17.979   1.186  1.00  0.00     0.059 C 
HETATM    7  C   UNL     1      40.297 -17.290   1.728  1.00  0.00     0.131 C 
HETATM    8  C   UNL     1      43.302 -18.236   4.568  1.00  0.00     0.046 A 
HETATM    9  C   UNL     1      44.293 -19.166   4.275  1.00  0.00     0.066 A 
HETATM   10  C   UNL     1      44.396 -19.723   3.007  1.00  0.00     0.037 A 
HETATM   11  C   UNL     1      43.492 -19.348   2.013  1.00  0.00     0.010 A 
HETATM   12  O   UNL     1      39.831 -14.530   3.975  1.00  0.00    -0.267 OA
ENDROOT
BRANCH   1  13
HETATM   13  C   UNL     1      39.498 -14.370   1.680  1.00  0.00     0.035 A 
HETATM   14  C   UNL     1      40.429 -13.814   0.801  1.00  0.00     0.061 A 
HETATM   15  C   UNL     1      39.998 -13.212  -0.381  1.00  0.00     0.146 A 
HETATM   16  C   UNL     1      38.640 -13.163  -0.710  1.00  0.00     0.096 A 
HETATM   17  F   UNL     1      40.940 -12.688  -1.176  1.00  0.00    -0.204 F 
HETATM   18  C   UNL     1      37.709 -13.736   0.176  1.00  0.00     0.036 A 
HETATM   19  C   UNL     1      38.137 -14.348   1.358  1.00  0.00     0.019 A 
BRANCH  16  20
HETATM   20  N   UNL     1      38.172 -12.574  -1.915  1.00  0.00    -0.242 N 
HETATM   21  C   UNL     1      38.160 -11.248  -2.294  1.00  0.00     0.120 A 
HETATM   22  C   UNL     1      37.621 -11.184  -3.557  1.00  0.00     0.040 A 
HETATM   23  C   UNL     1      37.323 -12.513  -3.878  1.00  0.00     0.140 A 
HETATM   24  N   UNL     1      37.650 -13.359  -2.902  1.00  0.00    -0.180 NA
ENDBRANCH  16  20
ENDBRANCH   1  13
BRANCH   9  25
HETATM   25  O   UNL     1      45.201 -19.558   5.214  1.00  0.00    -0.361 OA
HETATM   26  H   UNL     1      45.835 -18.835   5.353  1.00  0.00     0.217 HD
ENDBRANCH   9  25
TORSDOF 3
ENDMDL
MODEL 9
REMARK VINA RESULT:      -7.7      4.788      7.955
REMARK  3 active torsions:
REMARK  status: ('A' for Active; 'I' for Inactive)
REMARK    1  A    between atoms: N_3  and  C_4 
REMARK    2  A    between atoms: C_8  and  C_9 
REMARK       I    between atoms: C_9  and  N_10 
REMARK    3  A    between atoms: C_17  and  O_18 
ROOT
HETATM    1  C   UNL     1      40.612 -15.275   2.321  1.00  0.00     0.254 C 
HETATM    2  N   UNL     1      41.303 -16.466   2.524  1.00  0.00    -0.343 N 
HETATM    3  C   UNL     1      41.239 -17.048   3.858  1.00  0.00     0.165 C 
HETATM    4  C   UNL     1      42.366 -18.021   4.131  1.00  0.00    -0.031 A 
HETATM    5  C   UNL     1      43.169 -18.528   3.090  1.00  0.00    -0.049 A 
HETATM    6  C   UNL     1      42.974 -18.056   1.669  1.00  0.00     0.059 C 
HETATM    7  C   UNL     1      41.603 -17.419   1.456  1.00  0.00     0.131 C 
HETATM    8  C   UNL     1      42.597 -18.446   5.449  1.00  0.00     0.046 A 
HETATM    9  C   UNL     1      43.627 -19.341   5.720  1.00  0.00     0.066 A 
HETATM   10  C   UNL     1      44.432 -19.833   4.701  1.00  0.00     0.037 A 
HETATM   11  C   UNL     1      44.205 -19.426   3.386  1.00  0.00     0.010 A 
HETATM   12  O   UNL     1      39.862 -14.783   3.161  1.00  0.00    -0.267 OA
ENDROOT
BRANCH   1  13
HETATM   13  C   UNL     1      40.834 -14.516   1.067  1.00  0.00     0.035 A 
HETATM   14  C   UNL     1      39.909 -14.641   0.030  1.00  0.00     0.061 A 
HETATM   15  C   UNL     1      40.054 -13.876  -1.128  1.00  0.00     0.146 A 
HETATM   16  C   UNL     1      41.111 -12.971  -1.266  1.00  0.00     0.096 A 
HETATM   17  F   UNL     1      39.139 -14.051  -2.091  1.00  0.00    -0.204 F 
HETATM   18  C   UNL     1      42.032 -12.843  -0.210  1.00  0.00     0.036 A 
HETATM   19  C   UNL     1      41.886 -13.601   0.955  1.00  0.00     0.019 A 
BRANCH  16  20
HETATM   20  N   UNL     1      41.273 -12.165  -2.424  1.00  0.00    -0.242 N 
HETATM   21  C   UNL     1      40.519 -11.094  -2.858  1.00  0.00     0.120 A 
HETATM   22  C   UNL     1      41.084 -10.637  -4.025  1.00  0.00     0.040 A 
HETATM   23  C   UNL     1      42.177 -11.484  -4.240  1.00  0.00     0.140 A 
HETATM   24  N   UNL     1      42.303 -12.406  -3.286  1.00  0.00    -0.180 NA
ENDBRANCH  16  20
ENDBRANCH   1  13
BRANCH   9  25
HETATM   25  O   UNL     1      43.888 -19.761   6.991  1.00  0.00    -0.361 OA
HETATM   26  H   UNL     1      43.575 -19.083   7.612  1.00  0.00     0.217 HD
ENDBRANCH   9  25
TORSDOF 3
ENDMDL
MODEL 10
REMARK VINA RESULT:      -7.6      3.837      8.483
REMARK  3 active torsions:
REMARK  status: ('A' for Active; 'I' for Inactive)
REMARK    1  A    between atoms: N_3  and  C_4 
REMARK    2  A    between atoms: C_8  and  C_9 
REMARK       I    between atoms: C_9  and  N_10 
REMARK    3  A    between atoms: C_17  and  O_18 
ROOT
HETATM    1  C   UNL     1      41.808 -15.271   4.289  1.00  0.00     0.254 C 
HETATM    2  N   UNL     1      42.019 -16.552   3.788  1.00  0.00    -0.343 N 
HETATM    3  C   UNL     1      42.609 -17.528   4.696  1.00  0.00     0.165 C 
HETATM    4  C   UNL     1      43.246 -18.695   3.973  1.00  0.00    -0.031 A 
HETATM    5  C   UNL     1      42.993 -18.944   2.609  1.00  0.00    -0.049 A 
HETATM    6  C   UNL     1      42.130 -18.002   1.804  1.00  0.00     0.059 C 
HETATM    7  C   UNL     1      41.244 -17.130   2.691  1.00  0.00     0.131 C 
HETATM    8  C   UNL     1      44.086 -19.564   4.687  1.00  0.00     0.046 A 
HETATM    9  C   UNL     1      44.680 -20.644   4.042  1.00  0.00     0.066 A 
HETATM   10  C   UNL     1      44.446 -20.885   2.694  1.00  0.00     0.037 A 
HETATM   11  C   UNL     1      43.605 -20.036   1.976  1.00  0.00     0.010 A 
HETATM   12  O   UNL     1      41.968 -14.978   5.472  1.00  0.00    -0.267 OA
ENDROOT
BRANCH   1  13
HETATM   13  C   UNL     1      41.440 -14.182   3.353  1.00  0.00     0.035 A 
HETATM   14  C   UNL     1      40.155 -13.641   3.419  1.00  0.00     0.061 A 
HETATM   15  C   UNL     1      39.811 -12.562   2.604  1.00  0.00     0.146 A 
HETATM   16  C   UNL     1      40.741 -12.001   1.723  1.00  0.00     0.096 A 
HETATM   17  F   UNL     1      38.560 -12.096   2.707  1.00  0.00    -0.204 F 
HETATM   18  C   UNL     1      42.037 -12.545   1.671  1.00  0.00     0.036 A 
HETATM   19  C   UNL     1      42.389 -13.620   2.492  1.00  0.00     0.019 A 
BRANCH  16  20
HETATM   20  N   UNL     1      40.426 -10.889   0.895  1.00  0.00    -0.242 N 
HETATM   21  C   UNL     1      40.536  -9.540   1.161  1.00  0.00     0.120 A 
HETATM   22  C   UNL     1      40.122  -8.863   0.039  1.00  0.00     0.040 A 
HETATM   23  C   UNL     1      39.770  -9.869  -0.867  1.00  0.00     0.140 A 
HETATM   24  N   UNL     1      39.948 -11.091  -0.367  1.00  0.00    -0.180 NA
ENDBRANCH  16  20
ENDBRANCH   1  13
BRANCH   9  25
HETATM   25  O   UNL     1      45.513 -21.497   4.703  1.00  0.00    -0.361 OA
HETATM   26  H   UNL     1      45.832 -22.167   4.076  1.00  0.00     0.217 HD
ENDBRANCH   9  25
TORSDOF 3
ENDMDL
