MODEL 1
REMARK VINA RESULT:      -8.2      0.000      0.000
REMARK  7 active torsions:
REMARK  status: ('A' for Active; 'I' for Inactive)
REMARK    1  A    between atoms: C_2  and  O_3 
REMARK    2  A    between atoms: O_3  and  C_4 
REMARK    3  A    between atoms: C_4  and  C_5 
REMARK    4  A    between atoms: C_10  and  N_11 
REMARK       I    between atoms: N_11  and  C_12 
REMARK       I    between atoms: C_12  and  N_13 
REMARK    5  A    between atoms: N_13  and  N_14 
REMARK       I    between atoms: N_14  and  C_15 
REMARK    6  A    between atoms: C_15  and  C_16 
REMARK    7  A    between atoms: C_19  and  O_20 
ROOT
HETATM    1  N   UNL     1      43.315 -16.778   1.708  1.00  0.00    -0.293 N 
HETATM    2  C   UNL     1      42.079 -16.720   1.095  1.00  0.00     0.340 C 
HETATM    3  N   UNL     1      42.131 -15.999  -0.086  1.00  0.00    -0.249 N 
HETATM    4  O   UNL     1      41.032 -17.198   1.530  1.00  0.00    -0.245 OA
HETATM    5  H   UNL     1      44.082 -16.277   1.285  1.00  0.00     0.172 HD
HETATM    6  H   UNL     1      42.993 -15.993  -0.628  1.00  0.00     0.192 HD
ENDROOT
BRANCH   1   7
HETATM    7  C   UNL     1      43.528 -17.378   2.933  1.00  0.00     0.116 A 
HETATM    8  N   UNL     1      43.636 -16.666   4.096  1.00  0.00    -0.345 N 
HETATM    9  C   UNL     1      43.883 -17.508   5.148  1.00  0.00     0.024 A 
HETATM   10  H   UNL     1      43.564 -15.654   4.140  1.00  0.00     0.167 HD
HETATM   11  C   UNL     1      43.940 -18.810   4.655  1.00  0.00     0.071 A 
HETATM   12  C   UNL     1      44.059 -16.976   6.526  1.00  0.00     0.069 C 
HETATM   13  C   UNL     1      43.681 -18.721   3.233  1.00  0.00     0.000 A 
HETATM   14  C   UNL     1      43.613 -19.859   2.272  1.00  0.00     0.053 C 
BRANCH  11  15
HETATM   15  C   UNL     1      44.223 -19.996   5.477  1.00  0.00     0.295 C 
HETATM   16  O   UNL     1      43.635 -20.254   6.520  1.00  0.00    -0.259 OA
BRANCH  15  17
HETATM   17  O   UNL     1      45.224 -20.769   4.960  1.00  0.00    -0.318 OA
BRANCH  17  18
HETATM   18  C   UNL     1      45.088 -22.184   5.147  1.00  0.00     0.174 C 
HETATM   19  C   UNL     1      44.667 -22.849   3.851  1.00  0.00     0.034 C 
ENDBRANCH  17  18
ENDBRANCH  15  17
ENDBRANCH  11  15
ENDBRANCH   1   7
BRANCH   3  20
HETATM   20  N   UNL     1      40.968 -15.942  -0.872  1.00  0.00    -0.262 N 
HETATM   21  C   UNL     1      40.858 -14.883  -1.753  1.00  0.00     0.270 C 
HETATM   22  O   UNL     1      41.715 -14.004  -1.820  1.00  0.00    -0.266 OA
HETATM   23  H   UNL     1      40.437 -16.808  -0.951  1.00  0.00     0.190 HD
BRANCH  21  24
HETATM   24  C   UNL     1      39.661 -14.852  -2.639  1.00  0.00     0.033 A 
HETATM   25  C   UNL     1      39.450 -15.785  -3.659  1.00  0.00     0.020 A 
HETATM   26  C   UNL     1      38.286 -15.721  -4.432  1.00  0.00     0.038 A 
HETATM   27  C   UNL     1      37.319 -14.740  -4.194  1.00  0.00     0.068 A 
HETATM   28  C   UNL     1      37.528 -13.809  -3.177  1.00  0.00     0.038 A 
HETATM   29  C   UNL     1      38.692 -13.868  -2.402  1.00  0.00     0.020 A 
BRANCH  27  30
HETATM   30  O   UNL     1      36.227 -14.801  -5.015  1.00  0.00    -0.356 OA
HETATM   31  C   UNL     1      35.244 -13.786  -4.854  1.00  0.00     0.210 C 
ENDBRANCH  27  30
ENDBRANCH  21  24
ENDBRANCH   3  20
TORSDOF 7
ENDMDL
MODEL 2
REMARK VINA RESULT:      -7.9      1.523      2.867
REMARK  7 active torsions:
REMARK  status: ('A' for Active; 'I' for Inactive)
REMARK    1  A    between atoms: C_2  and  O_3 
REMARK    2  A    between atoms: O_3  and  C_4 
REMARK    3  A    between atoms: C_4  and  C_5 
REMARK    4  A    between atoms: C_10  and  N_11 
REMARK       I    between atoms: N_11  and  C_12 
REMARK       I    between atoms: C_12  and  N_13 
REMARK    5  A    between atoms: N_13  and  N_14 
REMARK       I    between atoms: N_14  and  C_15 
REMARK    6  A    between atoms: C_15  and  C_16 
REMARK    7  A    between atoms: C_19  and  O_20 
ROOT
HETATM    1  N   UNL     1      43.076 -16.927   0.442  1.00  0.00    -0.293 N 
HETATM    2  C   UNL     1      41.820 -16.401   0.212  1.00  0.00     0.340 C 
HETATM    3  N   UNL     1      41.787 -15.661  -0.958  1.00  0.00    -0.249 N 
HETATM    4  O   UNL     1      40.841 -16.515   0.949  1.00  0.00    -0.245 OA
HETATM    5  H   UNL     1      43.817 -16.696  -0.203  1.00  0.00     0.172 HD
HETATM    6  H   UNL     1      42.404 -15.916  -1.726  1.00  0.00     0.192 HD
ENDROOT
BRANCH   1   7
HETATM    7  C   UNL     1      43.401 -17.650   1.573  1.00  0.00     0.116 A 
HETATM    8  N   UNL     1      43.667 -18.991   1.541  1.00  0.00    -0.345 N 
HETATM    9  C   UNL     1      43.921 -19.456   2.805  1.00  0.00     0.024 A 
HETATM   10  H   UNL     1      43.647 -19.544   0.690  1.00  0.00     0.167 HD
HETATM   11  C   UNL     1      43.816 -18.384   3.689  1.00  0.00     0.071 A 
HETATM   12  C   UNL     1      44.223 -20.892   3.043  1.00  0.00     0.069 C 
HETATM   13  C   UNL     1      43.510 -17.219   2.884  1.00  0.00     0.000 A 
HETATM   14  C   UNL     1      43.327 -15.824   3.378  1.00  0.00     0.053 C 
BRANCH  11  15
HETATM   15  C   UNL     1      43.985 -18.490   5.145  1.00  0.00     0.295 C 
HETATM   16  O   UNL     1      45.076 -18.524   5.701  1.00  0.00    -0.259 OA
BRANCH  15  17
HETATM   17  O   UNL     1      42.794 -18.565   5.810  1.00  0.00    -0.318 OA
BRANCH  17  18
HETATM   18  C   UNL     1      42.488 -17.469   6.682  1.00  0.00     0.174 C 
HETATM   19  C   UNL     1      41.162 -16.842   6.295  1.00  0.00     0.034 C 
ENDBRANCH  17  18
ENDBRANCH  15  17
ENDBRANCH  11  15
ENDBRANCH   1   7
BRANCH   3  20
HETATM   20  N   UNL     1      40.547 -15.148  -1.375  1.00  0.00    -0.262 N 
HETATM   21  C   UNL     1      40.413 -14.844  -2.716  1.00  0.00     0.270 C 
HETATM   22  O   UNL     1      41.345 -14.975  -3.507  1.00  0.00    -0.266 OA
HETATM   23  H   UNL     1      39.763 -15.301  -0.743  1.00  0.00     0.190 HD
BRANCH  21  24
HETATM   24  C   UNL     1      39.081 -14.364  -3.179  1.00  0.00     0.033 A 
HETATM   25  C   UNL     1      38.731 -13.010  -3.205  1.00  0.00     0.020 A 
HETATM   26  C   UNL     1      37.476 -12.625  -3.687  1.00  0.00     0.038 A 
HETATM   27  C   UNL     1      36.563 -13.575  -4.154  1.00  0.00     0.068 A 
HETATM   28  C   UNL     1      36.911 -14.925  -4.129  1.00  0.00     0.038 A 
HETATM   29  C   UNL     1      38.165 -15.316  -3.647  1.00  0.00     0.020 A 
BRANCH  27  30
HETATM   30  O   UNL     1      35.381 -13.058  -4.607  1.00  0.00    -0.356 OA
HETATM   31  C   UNL     1      35.160 -13.095  -6.013  1.00  0.00     0.210 C 
ENDBRANCH  27  30
ENDBRANCH  21  24
ENDBRANCH   3  20
TORSDOF 7
ENDMDL
MODEL 3
REMARK VINA RESULT:      -7.7      3.210      3.772
REMARK  7 active torsions:
REMARK  status: ('A' for Active; 'I' for Inactive)
REMARK    1  A    between atoms: C_2  and  O_3 
REMARK    2  A    between atoms: O_3  and  C_4 
REMARK    3  A    between atoms: C_4  and  C_5 
REMARK    4  A    between atoms: C_10  and  N_11 
REMARK       I    between atoms: N_11  and  C_12 
REMARK       I    between atoms: C_12  and  N_13 
REMARK    5  A    between atoms: N_13  and  N_14 
REMARK       I    between atoms: N_14  and  C_15 
REMARK    6  A    between atoms: C_15  and  C_16 
REMARK    7  A    between atoms: C_19  and  O_20 
ROOT
HETATM    1  N   UNL     1      40.735 -16.581   0.661  1.00  0.00    -0.293 N 
HETATM    2  C   UNL     1      41.043 -15.342   0.135  1.00  0.00     0.340 C 
HETATM    3  N   UNL     1      40.415 -15.136  -1.081  1.00  0.00    -0.249 N 
HETATM    4  O   UNL     1      41.808 -14.515   0.631  1.00  0.00    -0.245 OA
HETATM    5  H   UNL     1      40.153 -17.200   0.116  1.00  0.00     0.172 HD
HETATM    6  H   UNL     1      39.515 -15.579  -1.258  1.00  0.00     0.192 HD
ENDROOT
BRANCH   1   7
HETATM    7  C   UNL     1      41.281 -17.067   1.832  1.00  0.00     0.116 A 
HETATM    8  N   UNL     1      40.642 -16.976   3.038  1.00  0.00    -0.345 N 
HETATM    9  C   UNL     1      41.426 -17.502   4.032  1.00  0.00     0.024 A 
HETATM   10  H   UNL     1      39.728 -16.552   3.154  1.00  0.00     0.167 HD
HETATM   11  C   UNL     1      42.614 -17.947   3.456  1.00  0.00     0.071 A 
HETATM   12  C   UNL     1      40.963 -17.508   5.445  1.00  0.00     0.069 C 
HETATM   13  C   UNL     1      42.500 -17.691   2.035  1.00  0.00     0.000 A 
HETATM   14  C   UNL     1      43.515 -18.018   0.993  1.00  0.00     0.053 C 
BRANCH  11  15
HETATM   15  C   UNL     1      43.727 -18.542   4.208  1.00  0.00     0.295 C 
HETATM   16  O   UNL     1      44.540 -17.887   4.850  1.00  0.00    -0.259 OA
BRANCH  15  17
HETATM   17  O   UNL     1      43.769 -19.903   4.101  1.00  0.00    -0.318 OA
BRANCH  17  18
HETATM   18  C   UNL     1      44.881 -20.446   3.377  1.00  0.00     0.174 C 
HETATM   19  C   UNL     1      44.400 -21.448   2.345  1.00  0.00     0.034 C 
ENDBRANCH  17  18
ENDBRANCH  15  17
ENDBRANCH  11  15
ENDBRANCH   1   7
BRANCH   3  20
HETATM   20  N   UNL     1      40.554 -13.876  -1.687  1.00  0.00    -0.262 N 
HETATM   21  C   UNL     1      41.093 -13.848  -2.959  1.00  0.00     0.270 C 
HETATM   22  O   UNL     1      41.474 -14.871  -3.524  1.00  0.00    -0.266 OA
HETATM   23  H   UNL     1      40.001 -13.121  -1.285  1.00  0.00     0.190 HD
BRANCH  21  24
HETATM   24  C   UNL     1      41.181 -12.524  -3.636  1.00  0.00     0.033 A 
HETATM   25  C   UNL     1      42.399 -11.889  -3.901  1.00  0.00     0.020 A 
HETATM   26  C   UNL     1      42.412 -10.662  -4.573  1.00  0.00     0.038 A 
HETATM   27  C   UNL     1      41.223 -10.062  -4.997  1.00  0.00     0.068 A 
HETATM   28  C   UNL     1      40.008 -10.696  -4.735  1.00  0.00     0.038 A 
HETATM   29  C   UNL     1      39.989 -11.922  -4.060  1.00  0.00     0.020 A 
BRANCH  27  30
HETATM   30  O   UNL     1      41.383  -8.873  -5.653  1.00  0.00    -0.356 OA
HETATM   31  C   UNL     1      41.802  -8.940  -7.011  1.00  0.00     0.210 C 
ENDBRANCH  27  30
ENDBRANCH  21  24
ENDBRANCH   3  20
TORSDOF 7
ENDMDL
MODEL 4
REMARK VINA RESULT:      -7.6      2.509      3.861
REMARK  7 active torsions:
REMARK  status: ('A' for Active; 'I' for Inactive)
REMARK    1  A    between atoms: C_2  and  O_3 
REMARK    2  A    between atoms: O_3  and  C_4 
REMARK    3  A    between atoms: C_4  and  C_5 
REMARK    4  A    between atoms: C_10  and  N_11 
REMARK       I    between atoms: N_11  and  C_12 
REMARK       I    between atoms: C_12  and  N_13 
REMARK    5  A    between atoms: N_13  and  N_14 
REMARK       I    between atoms: N_14  and  C_15 
REMARK    6  A    between atoms: C_15  and  C_16 
REMARK    7  A    between atoms: C_19  and  O_20 
ROOT
HETATM    1  N   UNL     1      41.686 -17.901   2.144  1.00  0.00    -0.293 N 
HETATM    2  C   UNL     1      42.153 -17.081   1.136  1.00  0.00     0.340 C 
HETATM    3  N   UNL     1      41.159 -16.789   0.218  1.00  0.00    -0.249 N 
HETATM    4  O   UNL     1      43.308 -16.676   1.009  1.00  0.00    -0.245 OA
HETATM    5  H   UNL     1      40.733 -18.227   2.092  1.00  0.00     0.172 HD
HETATM    6  H   UNL     1      40.190 -16.748   0.529  1.00  0.00     0.192 HD
ENDROOT
BRANCH   1   7
HETATM    7  C   UNL     1      42.488 -18.398   3.152  1.00  0.00     0.116 A 
HETATM    8  N   UNL     1      43.569 -19.200   2.908  1.00  0.00    -0.345 N 
HETATM    9  C   UNL     1      44.158 -19.576   4.087  1.00  0.00     0.024 A 
HETATM   10  H   UNL     1      43.857 -19.479   1.976  1.00  0.00     0.167 HD
HETATM   11  C   UNL     1      43.435 -19.004   5.133  1.00  0.00     0.071 A 
HETATM   12  C   UNL     1      45.348 -20.467   4.095  1.00  0.00     0.069 C 
HETATM   13  C   UNL     1      42.380 -18.223   4.521  1.00  0.00     0.000 A 
HETATM   14  C   UNL     1      41.359 -17.404   5.234  1.00  0.00     0.053 C 
BRANCH  11  15
HETATM   15  C   UNL     1      43.737 -19.207   6.556  1.00  0.00     0.295 C 
HETATM   16  O   UNL     1      43.404 -20.204   7.186  1.00  0.00    -0.259 OA
BRANCH  15  17
HETATM   17  O   UNL     1      44.415 -18.157   7.107  1.00  0.00    -0.318 OA
BRANCH  17  18
HETATM   18  C   UNL     1      43.637 -17.245   7.893  1.00  0.00     0.174 C 
HETATM   19  C   UNL     1      43.848 -15.822   7.412  1.00  0.00     0.034 C 
ENDBRANCH  17  18
ENDBRANCH  15  17
ENDBRANCH  11  15
ENDBRANCH   1   7
BRANCH   3  20
HETATM   20  N   UNL     1      41.461 -15.881  -0.811  1.00  0.00    -0.262 N 
HETATM   21  C   UNL     1      40.742 -14.702  -0.839  1.00  0.00     0.270 C 
HETATM   22  O   UNL     1      39.847 -14.469  -0.028  1.00  0.00    -0.266 OA
HETATM   23  H   UNL     1      42.356 -16.015  -1.278  1.00  0.00     0.190 HD
BRANCH  21  24
HETATM   24  C   UNL     1      41.103 -13.704  -1.884  1.00  0.00     0.033 A 
HETATM   25  C   UNL     1      42.398 -13.196  -2.029  1.00  0.00     0.020 A 
HETATM   26  C   UNL     1      42.678 -12.288  -3.056  1.00  0.00     0.038 A 
HETATM   27  C   UNL     1      41.682 -11.885  -3.951  1.00  0.00     0.068 A 
HETATM   28  C   UNL     1      40.391 -12.392  -3.807  1.00  0.00     0.038 A 
HETATM   29  C   UNL     1      40.105 -13.299  -2.780  1.00  0.00     0.020 A 
BRANCH  27  30
HETATM   30  O   UNL     1      42.098 -11.005  -4.911  1.00  0.00    -0.356 OA
HETATM   31  C   UNL     1      42.392  -9.680  -4.484  1.00  0.00     0.210 C 
ENDBRANCH  27  30
ENDBRANCH  21  24
ENDBRANCH   3  20
TORSDOF 7
ENDMDL
MODEL 5
REMARK VINA RESULT:      -7.6      6.162     10.439
REMARK  7 active torsions:
REMARK  status: ('A' for Active; 'I' for Inactive)
REMARK    1  A    between atoms: C_2  and  O_3 
REMARK    2  A    between atoms: O_3  and  C_4 
REMARK    3  A    between atoms: C_4  and  C_5 
REMARK    4  A    between atoms: C_10  and  N_11 
REMARK       I    between atoms: N_11  and  C_12 
REMARK       I    between atoms: C_12  and  N_13 
REMARK    5  A    between atoms: N_13  and  N_14 
REMARK       I    between atoms: N_14  and  C_15 
REMARK    6  A    between atoms: C_15  and  C_16 
REMARK    7  A    between atoms: C_19  and  O_20 
ROOT
HETATM    1  N   UNL     1      39.498 -13.683   6.597  1.00  0.00    -0.293 N 
HETATM    2  C   UNL     1      40.413 -14.394   5.846  1.00  0.00     0.340 C 
HETATM    3  N   UNL     1      40.140 -15.751   5.862  1.00  0.00    -0.249 N 
HETATM    4  O   UNL     1      41.387 -13.924   5.258  1.00  0.00    -0.245 OA
HETATM    5  H   UNL     1      38.787 -14.198   7.095  1.00  0.00     0.172 HD
HETATM    6  H   UNL     1      39.176 -16.063   5.958  1.00  0.00     0.192 HD
ENDROOT
BRANCH   1   7
HETATM    7  C   UNL     1      39.578 -12.321   6.803  1.00  0.00     0.116 A 
HETATM    8  N   UNL     1      40.030 -11.777   7.974  1.00  0.00    -0.345 N 
HETATM    9  C   UNL     1      39.968 -10.409   7.918  1.00  0.00     0.024 A 
HETATM   10  H   UNL     1      40.339 -12.332   8.765  1.00  0.00     0.167 HD
HETATM   11  C   UNL     1      39.456 -10.050   6.672  1.00  0.00     0.071 A 
HETATM   12  C   UNL     1      40.389  -9.578   9.077  1.00  0.00     0.069 C 
HETATM   13  C   UNL     1      39.236 -11.286   5.950  1.00  0.00     0.000 A 
HETATM   14  C   UNL     1      38.719 -11.417   4.557  1.00  0.00     0.053 C 
BRANCH  11  15
HETATM   15  C   UNL     1      39.205  -8.666   6.247  1.00  0.00     0.295 C 
HETATM   16  O   UNL     1      40.089  -7.892   5.897  1.00  0.00    -0.259 OA
BRANCH  15  17
HETATM   17  O   UNL     1      37.882  -8.330   6.298  1.00  0.00    -0.318 OA
BRANCH  17  18
HETATM   18  C   UNL     1      37.377  -7.581   5.185  1.00  0.00     0.174 C 
HETATM   19  C   UNL     1      36.413  -8.427   4.375  1.00  0.00     0.034 C 
ENDBRANCH  17  18
ENDBRANCH  15  17
ENDBRANCH  11  15
ENDBRANCH   1   7
BRANCH   3  20
HETATM   20  N   UNL     1      40.929 -16.589   5.058  1.00  0.00    -0.262 N 
HETATM   21  C   UNL     1      41.880 -17.360   5.699  1.00  0.00     0.270 C 
HETATM   22  O   UNL     1      42.060 -17.290   6.913  1.00  0.00    -0.266 OA
HETATM   23  H   UNL     1      40.569 -16.786   4.126  1.00  0.00     0.190 HD
BRANCH  21  24
HETATM   24  C   UNL     1      42.674 -18.303   4.863  1.00  0.00     0.033 A 
HETATM   25  C   UNL     1      42.538 -18.381   3.473  1.00  0.00     0.020 A 
HETATM   26  C   UNL     1      43.342 -19.263   2.743  1.00  0.00     0.038 A 
HETATM   27  C   UNL     1      44.292 -20.065   3.382  1.00  0.00     0.068 A 
HETATM   28  C   UNL     1      44.429 -19.988   4.767  1.00  0.00     0.038 A 
HETATM   29  C   UNL     1      43.626 -19.108   5.503  1.00  0.00     0.020 A 
BRANCH  27  30
HETATM   30  O   UNL     1      45.016 -20.870   2.546  1.00  0.00    -0.356 OA
HETATM   31  C   UNL     1      44.295 -21.865   1.829  1.00  0.00     0.210 C 
ENDBRANCH  27  30
ENDBRANCH  21  24
ENDBRANCH   3  20
TORSDOF 7
ENDMDL
MODEL 6
REMARK VINA RESULT:      -7.5      6.155     10.032
REMARK  7 active torsions:
REMARK  status: ('A' for Active; 'I' for Inactive)
REMARK    1  A    between atoms: C_2  and  O_3 
REMARK    2  A    between atoms: O_3  and  C_4 
REMARK    3  A    between atoms: C_4  and  C_5 
REMARK    4  A    between atoms: C_10  and  N_11 
REMARK       I    between atoms: N_11  and  C_12 
REMARK       I    between atoms: C_12  and  N_13 
REMARK    5  A    between atoms: N_13  and  N_14 
REMARK       I    between atoms: N_14  and  C_15 
REMARK    6  A    between atoms: C_15  and  C_16 
REMARK    7  A    between atoms: C_19  and  O_20 
ROOT
HETATM    1  N   UNL     1      42.364 -12.399   6.520  1.00  0.00    -0.293 N 
HETATM    2  C   UNL     1      42.954 -13.621   6.266  1.00  0.00     0.340 C 
HETATM    3  N   UNL     1      42.558 -14.132   5.041  1.00  0.00    -0.249 N 
HETATM    4  O   UNL     1      43.706 -14.233   7.024  1.00  0.00    -0.245 OA
HETATM    5  H   UNL     1      41.703 -12.039   5.848  1.00  0.00     0.172 HD
HETATM    6  H   UNL     1      42.322 -13.490   4.288  1.00  0.00     0.192 HD
ENDROOT
BRANCH   1   7
HETATM    7  C   UNL     1      42.535 -11.704   7.700  1.00  0.00     0.116 A 
HETATM    8  N   UNL     1      43.671 -11.798   8.456  1.00  0.00    -0.345 N 
HETATM    9  C   UNL     1      43.555 -11.034   9.588  1.00  0.00     0.024 A 
HETATM   10  H   UNL     1      44.463 -12.380   8.202  1.00  0.00     0.167 HD
HETATM   11  C   UNL     1      42.302 -10.424   9.571  1.00  0.00     0.071 A 
HETATM   12  C   UNL     1      44.655 -10.980  10.587  1.00  0.00     0.069 C 
HETATM   13  C   UNL     1      41.664 -10.837   8.338  1.00  0.00     0.000 A 
HETATM   14  C   UNL     1      40.314 -10.421   7.858  1.00  0.00     0.053 C 
BRANCH  11  15
HETATM   15  C   UNL     1      41.791  -9.552  10.637  1.00  0.00     0.295 C 
HETATM   16  O   UNL     1      41.703  -8.334  10.534  1.00  0.00    -0.259 OA
BRANCH  15  17
HETATM   17  O   UNL     1      41.439 -10.244  11.762  1.00  0.00    -0.318 OA
BRANCH  17  18
HETATM   18  C   UNL     1      41.644  -9.567  13.008  1.00  0.00     0.174 C 
HETATM   19  C   UNL     1      42.835 -10.157  13.740  1.00  0.00     0.034 C 
ENDBRANCH  17  18
ENDBRANCH  15  17
ENDBRANCH  11  15
ENDBRANCH   1   7
BRANCH   3  20
HETATM   20  N   UNL     1      43.157 -15.324   4.603  1.00  0.00    -0.262 N 
HETATM   21  C   UNL     1      42.353 -16.446   4.546  1.00  0.00     0.270 C 
HETATM   22  O   UNL     1      41.176 -16.419   4.901  1.00  0.00    -0.266 OA
HETATM   23  H   UNL     1      44.036 -15.225   4.097  1.00  0.00     0.190 HD
BRANCH  21  24
HETATM   24  C   UNL     1      42.962 -17.699   4.016  1.00  0.00     0.033 A 
HETATM   25  C   UNL     1      42.730 -18.162   2.717  1.00  0.00     0.020 A 
HETATM   26  C   UNL     1      43.362 -19.327   2.270  1.00  0.00     0.038 A 
HETATM   27  C   UNL     1      44.235 -20.035   3.102  1.00  0.00     0.068 A 
HETATM   28  C   UNL     1      44.467 -19.573   4.397  1.00  0.00     0.038 A 
HETATM   29  C   UNL     1      43.835 -18.409   4.850  1.00  0.00     0.020 A 
BRANCH  27  30
HETATM   30  O   UNL     1      44.792 -21.146   2.533  1.00  0.00    -0.356 OA
HETATM   31  C   UNL     1      43.971 -21.893   1.643  1.00  0.00     0.210 C 
ENDBRANCH  27  30
ENDBRANCH  21  24
ENDBRANCH   3  20
TORSDOF 7
ENDMDL
MODEL 7
REMARK VINA RESULT:      -7.4      2.820      3.813
REMARK  7 active torsions:
REMARK  status: ('A' for Active; 'I' for Inactive)
REMARK    1  A    between atoms: C_2  and  O_3 
REMARK    2  A    between atoms: O_3  and  C_4 
REMARK    3  A    between atoms: C_4  and  C_5 
REMARK    4  A    between atoms: C_10  and  N_11 
REMARK       I    between atoms: N_11  and  C_12 
REMARK       I    between atoms: C_12  and  N_13 
REMARK    5  A    between atoms: N_13  and  N_14 
REMARK       I    between atoms: N_14  and  C_15 
REMARK    6  A    between atoms: C_15  and  C_16 
REMARK    7  A    between atoms: C_19  and  O_20 
ROOT
HETATM    1  N   UNL     1      40.881 -17.168   1.071  1.00  0.00    -0.293 N 
HETATM    2  C   UNL     1      41.411 -16.189   0.254  1.00  0.00     0.340 C 
HETATM    3  N   UNL     1      40.852 -16.225  -1.012  1.00  0.00    -0.249 N 
HETATM    4  O   UNL     1      42.299 -15.393   0.561  1.00  0.00    -0.245 OA
HETATM    5  H   UNL     1      40.211 -17.810   0.674  1.00  0.00     0.172 HD
HETATM    6  H   UNL     1      39.893 -16.547  -1.123  1.00  0.00     0.192 HD
ENDROOT
BRANCH   1   7
HETATM    7  C   UNL     1      41.311 -17.395   2.362  1.00  0.00     0.116 A 
HETATM    8  N   UNL     1      40.640 -16.924   3.458  1.00  0.00    -0.345 N 
HETATM    9  C   UNL     1      41.307 -17.263   4.606  1.00  0.00     0.024 A 
HETATM   10  H   UNL     1      39.785 -16.381   3.397  1.00  0.00     0.167 HD
HETATM   11  C   UNL     1      42.450 -17.975   4.248  1.00  0.00     0.071 A 
HETATM   12  C   UNL     1      40.790 -16.851   5.938  1.00  0.00     0.069 C 
HETATM   13  C   UNL     1      42.429 -18.082   2.804  1.00  0.00     0.000 A 
HETATM   14  C   UNL     1      43.434 -18.782   1.954  1.00  0.00     0.053 C 
BRANCH  11  15
HETATM   15  C   UNL     1      43.444 -18.481   5.204  1.00  0.00     0.295 C 
HETATM   16  O   UNL     1      43.671 -19.672   5.383  1.00  0.00    -0.259 OA
BRANCH  15  17
HETATM   17  O   UNL     1      44.078 -17.480   5.886  1.00  0.00    -0.318 OA
BRANCH  17  18
HETATM   18  C   UNL     1      44.506 -17.796   7.217  1.00  0.00     0.174 C 
HETATM   19  C   UNL     1      43.510 -17.264   8.230  1.00  0.00     0.034 C 
ENDBRANCH  17  18
ENDBRANCH  15  17
ENDBRANCH  11  15
ENDBRANCH   1   7
BRANCH   3  20
HETATM   20  N   UNL     1      41.222 -15.221  -1.922  1.00  0.00    -0.262 N 
HETATM   21  C   UNL     1      40.397 -14.116  -2.006  1.00  0.00     0.270 C 
HETATM   22  O   UNL     1      39.362 -14.029  -1.348  1.00  0.00    -0.266 OA
HETATM   23  H   UNL     1      42.191 -15.235  -2.236  1.00  0.00     0.190 HD
BRANCH  21  24
HETATM   24  C   UNL     1      40.817 -13.015  -2.918  1.00  0.00     0.033 A 
HETATM   25  C   UNL     1      39.905 -12.248  -3.648  1.00  0.00     0.020 A 
HETATM   26  C   UNL     1      40.364 -11.204  -4.458  1.00  0.00     0.038 A 
HETATM   27  C   UNL     1      41.728 -10.907  -4.543  1.00  0.00     0.068 A 
HETATM   28  C   UNL     1      42.638 -11.672  -3.814  1.00  0.00     0.038 A 
HETATM   29  C   UNL     1      42.184 -12.718  -3.003  1.00  0.00     0.020 A 
BRANCH  27  30
HETATM   30  O   UNL     1      42.035  -9.856  -5.361  1.00  0.00    -0.356 OA
HETATM   31  C   UNL     1      41.277  -9.730  -6.558  1.00  0.00     0.210 C 
ENDBRANCH  27  30
ENDBRANCH  21  24
ENDBRANCH   3  20
TORSDOF 7
ENDMDL
MODEL 8
REMARK VINA RESULT:      -7.3      6.251      9.554
REMARK  7 active torsions:
REMARK  status: ('A' for Active; 'I' for Inactive)
REMARK    1  A    between atoms: C_2  and  O_3 
REMARK    2  A    between atoms: O_3  and  C_4 
REMARK    3  A    between atoms: C_4  and  C_5 
REMARK    4  A    between atoms: C_10  and  N_11 
REMARK       I    between atoms: N_11  and  C_12 
REMARK       I    between atoms: C_12  and  N_13 
REMARK    5  A    between atoms: N_13  and  N_14 
REMARK       I    between atoms: N_14  and  C_15 
REMARK    6  A    between atoms: C_15  and  C_16 
REMARK    7  A    between atoms: C_19  and  O_20 
ROOT
HETATM    1  N   UNL     1      39.936 -15.212   4.573  1.00  0.00    -0.293 N 
HETATM    2  C   UNL     1      40.387 -14.397   5.592  1.00  0.00     0.340 C 
HETATM    3  N   UNL     1      39.344 -13.716   6.197  1.00  0.00    -0.249 N 
HETATM    4  O   UNL     1      41.561 -14.235   5.924  1.00  0.00    -0.245 OA
HETATM    5  H   UNL     1      38.952 -15.197   4.349  1.00  0.00     0.172 HD
HETATM    6  H   UNL     1      38.422 -14.145   6.229  1.00  0.00     0.192 HD
ENDROOT
BRANCH   1   7
HETATM    7  C   UNL     1      40.775 -15.951   3.763  1.00  0.00     0.116 A 
HETATM    8  N   UNL     1      41.055 -15.597   2.471  1.00  0.00    -0.345 N 
HETATM    9  C   UNL     1      41.881 -16.525   1.893  1.00  0.00     0.024 A 
HETATM   10  H   UNL     1      40.671 -14.772   2.023  1.00  0.00     0.167 HD
HETATM   11  C   UNL     1      42.146 -17.516   2.836  1.00  0.00     0.071 A 
HETATM   12  C   UNL     1      42.321 -16.379   0.480  1.00  0.00     0.069 C 
HETATM   13  C   UNL     1      41.455 -17.123   4.047  1.00  0.00     0.000 A 
HETATM   14  C   UNL     1      41.459 -17.855   5.346  1.00  0.00     0.053 C 
BRANCH  11  15
HETATM   15  C   UNL     1      42.969 -18.706   2.579  1.00  0.00     0.295 C 
HETATM   16  O   UNL     1      42.616 -19.632   1.858  1.00  0.00    -0.259 OA
BRANCH  15  17
HETATM   17  O   UNL     1      44.162 -18.677   3.244  1.00  0.00    -0.318 OA
BRANCH  17  18
HETATM   18  C   UNL     1      44.515 -19.868   3.960  1.00  0.00     0.174 C 
HETATM   19  C   UNL     1      44.718 -19.558   5.431  1.00  0.00     0.034 C 
ENDBRANCH  17  18
ENDBRANCH  15  17
ENDBRANCH  11  15
ENDBRANCH   1   7
BRANCH   3  20
HETATM   20  N   UNL     1      39.640 -12.925   7.319  1.00  0.00    -0.262 N 
HETATM   21  C   UNL     1      39.475 -11.560   7.186  1.00  0.00     0.270 C 
HETATM   22  O   UNL     1      39.124 -11.050   6.123  1.00  0.00    -0.266 OA
HETATM   23  H   UNL     1      39.676 -13.411   8.214  1.00  0.00     0.190 HD
BRANCH  21  24
HETATM   24  C   UNL     1      39.720 -10.719   8.391  1.00  0.00     0.033 A 
HETATM   25  C   UNL     1      38.685 -10.217   9.187  1.00  0.00     0.020 A 
HETATM   26  C   UNL     1      38.985  -9.464  10.327  1.00  0.00     0.038 A 
HETATM   27  C   UNL     1      40.311  -9.213  10.693  1.00  0.00     0.068 A 
HETATM   28  C   UNL     1      41.344  -9.714   9.901  1.00  0.00     0.038 A 
HETATM   29  C   UNL     1      41.048 -10.466   8.758  1.00  0.00     0.020 A 
BRANCH  27  30
HETATM   30  O   UNL     1      40.460  -8.476  11.835  1.00  0.00    -0.356 OA
HETATM   31  C   UNL     1      40.471  -9.192  13.064  1.00  0.00     0.210 C 
ENDBRANCH  27  30
ENDBRANCH  21  24
ENDBRANCH   3  20
TORSDOF 7
ENDMDL
MODEL 9
REMARK VINA RESULT:      -7.2      6.483     10.555
REMARK  7 active torsions:
REMARK  status: ('A' for Active; 'I' for Inactive)
REMARK    1  A    between atoms: C_2  and  O_3 
REMARK    2  A    between atoms: O_3  and  C_4 
REMARK    3  A    between atoms: C_4  and  C_5 
REMARK    4  A    between atoms: C_10  and  N_11 
REMARK       I    between atoms: N_11  and  C_12 
REMARK       I    between atoms: C_12  and  N_13 
REMARK    5  A    between atoms: N_13  and  N_14 
REMARK       I    between atoms: N_14  and  C_15 
REMARK    6  A    between atoms: C_15  and  C_16 
REMARK    7  A    between atoms: C_19  and  O_20 
ROOT
HETATM    1  N   UNL     1      44.302 -12.894   8.497  1.00  0.00    -0.293 N 
HETATM    2  C   UNL     1      43.969 -13.610   7.364  1.00  0.00     0.340 C 
HETATM    3  N   UNL     1      44.941 -14.544   7.049  1.00  0.00    -0.249 N 
HETATM    4  O   UNL     1      42.966 -13.440   6.670  1.00  0.00    -0.245 OA
HETATM    5  H   UNL     1      45.193 -13.078   8.933  1.00  0.00     0.172 HD
HETATM    6  H   UNL     1      45.492 -14.960   7.797  1.00  0.00     0.192 HD
ENDROOT
BRANCH   1   7
HETATM    7  C   UNL     1      43.539 -11.855   8.991  1.00  0.00     0.116 A 
HETATM    8  N   UNL     1      42.735 -11.085   8.196  1.00  0.00    -0.345 N 
HETATM    9  C   UNL     1      42.125 -10.108   8.939  1.00  0.00     0.024 A 
HETATM   10  H   UNL     1      42.641 -11.226   7.195  1.00  0.00     0.167 HD
HETATM   11  C   UNL     1      42.547 -10.244  10.260  1.00  0.00     0.071 A 
HETATM   12  C   UNL     1      41.209  -9.125   8.302  1.00  0.00     0.069 C 
HETATM   13  C   UNL     1      43.433 -11.389  10.290  1.00  0.00     0.000 A 
HETATM   14  C   UNL     1      44.119 -11.946  11.492  1.00  0.00     0.053 C 
BRANCH  11  15
HETATM   15  C   UNL     1      42.139  -9.354  11.356  1.00  0.00     0.295 C 
HETATM   16  O   UNL     1      42.565  -8.214  11.500  1.00  0.00    -0.259 OA
BRANCH  15  17
HETATM   17  O   UNL     1      41.245  -9.940  12.207  1.00  0.00    -0.318 OA
BRANCH  17  18
HETATM   18  C   UNL     1      41.287  -9.497  13.569  1.00  0.00     0.174 C 
HETATM   19  C   UNL     1      42.334 -10.275  14.344  1.00  0.00     0.034 C 
ENDBRANCH  17  18
ENDBRANCH  15  17
ENDBRANCH  11  15
ENDBRANCH   1   7
BRANCH   3  20
HETATM   20  N   UNL     1      44.690 -15.417   5.977  1.00  0.00    -0.262 N 
HETATM   21  C   UNL     1      44.217 -16.676   6.292  1.00  0.00     0.270 C 
HETATM   22  O   UNL     1      44.061 -17.038   7.456  1.00  0.00    -0.266 OA
HETATM   23  H   UNL     1      44.598 -14.985   5.060  1.00  0.00     0.190 HD
BRANCH  21  24
HETATM   24  C   UNL     1      43.883 -17.584   5.159  1.00  0.00     0.033 A 
HETATM   25  C   UNL     1      42.993 -17.228   4.141  1.00  0.00     0.020 A 
HETATM   26  C   UNL     1      42.751 -18.114   3.086  1.00  0.00     0.038 A 
HETATM   27  C   UNL     1      43.396 -19.353   3.026  1.00  0.00     0.068 A 
HETATM   28  C   UNL     1      44.285 -19.709   4.040  1.00  0.00     0.038 A 
HETATM   29  C   UNL     1      44.529 -18.827   5.099  1.00  0.00     0.020 A 
BRANCH  27  30
HETATM   30  O   UNL     1      43.077 -20.113   1.935  1.00  0.00    -0.356 OA
HETATM   31  C   UNL     1      43.698 -21.389   1.837  1.00  0.00     0.210 C 
ENDBRANCH  27  30
ENDBRANCH  21  24
ENDBRANCH   3  20
TORSDOF 7
ENDMDL
MODEL 10
REMARK VINA RESULT:      -7.2      6.249      9.565
REMARK  7 active torsions:
REMARK  status: ('A' for Active; 'I' for Inactive)
REMARK    1  A    between atoms: C_2  and  O_3 
REMARK    2  A    between atoms: O_3  and  C_4 
REMARK    3  A    between atoms: C_4  and  C_5 
REMARK    4  A    between atoms: C_10  and  N_11 
REMARK       I    between atoms: N_11  and  C_12 
REMARK       I    between atoms: C_12  and  N_13 
REMARK    5  A    between atoms: N_13  and  N_14 
REMARK       I    between atoms: N_14  and  C_15 
REMARK    6  A    between atoms: C_15  and  C_16 
REMARK    7  A    between atoms: C_19  and  O_20 
ROOT
HETATM    1  N   UNL     1      41.594 -15.075   5.039  1.00  0.00    -0.293 N 
HETATM    2  C   UNL     1      42.073 -14.042   5.820  1.00  0.00     0.340 C 
HETATM    3  N   UNL     1      41.064 -13.161   6.171  1.00  0.00    -0.249 N 
HETATM    4  O   UNL     1      43.246 -13.866   6.148  1.00  0.00    -0.245 OA
HETATM    5  H   UNL     1      40.620 -15.063   4.775  1.00  0.00     0.172 HD
HETATM    6  H   UNL     1      40.113 -13.510   6.277  1.00  0.00     0.192 HD
ENDROOT
BRANCH   1   7
HETATM    7  C   UNL     1      42.402 -16.054   4.496  1.00  0.00     0.116 A 
HETATM    8  N   UNL     1      42.884 -15.990   3.218  1.00  0.00    -0.345 N 
HETATM    9  C   UNL     1      43.622 -17.109   2.931  1.00  0.00     0.024 A 
HETATM   10  H   UNL     1      42.686 -15.222   2.585  1.00  0.00     0.167 HD
HETATM   11  C   UNL     1      43.619 -17.929   4.057  1.00  0.00     0.071 A 
HETATM   12  C   UNL     1      44.244 -17.289   1.592  1.00  0.00     0.069 C 
HETATM   13  C   UNL     1      42.856 -17.229   5.070  1.00  0.00     0.000 A 
HETATM   14  C   UNL     1      42.593 -17.698   6.461  1.00  0.00     0.053 C 
BRANCH  11  15
HETATM   15  C   UNL     1      44.275 -19.242   4.128  1.00  0.00     0.295 C 
HETATM   16  O   UNL     1      45.225 -19.488   4.862  1.00  0.00    -0.259 OA
BRANCH  15  17
HETATM   17  O   UNL     1      43.724 -20.155   3.274  1.00  0.00    -0.318 OA
BRANCH  17  18
HETATM   18  C   UNL     1      44.563 -21.254   2.897  1.00  0.00     0.174 C 
HETATM   19  C   UNL     1      44.067 -21.877   1.605  1.00  0.00     0.034 C 
ENDBRANCH  17  18
ENDBRANCH  15  17
ENDBRANCH  11  15
ENDBRANCH   1   7
BRANCH   3  20
HETATM   20  N   UNL     1      41.384 -12.114   7.051  1.00  0.00    -0.262 N 
HETATM   21  C   UNL     1      40.355 -11.271   7.424  1.00  0.00     0.270 C 
HETATM   22  O   UNL     1      39.216 -11.401   6.977  1.00  0.00    -0.266 OA
HETATM   23  H   UNL     1      42.256 -12.213   7.568  1.00  0.00     0.190 HD
BRANCH  21  24
HETATM   24  C   UNL     1      40.670 -10.200   8.410  1.00  0.00     0.033 A 
HETATM   25  C   UNL     1      39.949  -9.004   8.484  1.00  0.00     0.020 A 
HETATM   26  C   UNL     1      40.274  -8.054   9.458  1.00  0.00     0.038 A 
HETATM   27  C   UNL     1      41.306  -8.287  10.372  1.00  0.00     0.068 A 
HETATM   28  C   UNL     1      42.025  -9.480  10.300  1.00  0.00     0.038 A 
HETATM   29  C   UNL     1      41.705 -10.432   9.325  1.00  0.00     0.020 A 
BRANCH  27  30
HETATM   30  O   UNL     1      41.507  -7.281  11.277  1.00  0.00    -0.356 OA
HETATM   31  C   UNL     1      42.426  -7.541  12.331  1.00  0.00     0.210 C 
ENDBRANCH  27  30
ENDBRANCH  21  24
ENDBRANCH   3  20
TORSDOF 7
ENDMDL
