MODEL 1
REMARK VINA RESULT:      -8.3      0.000      0.000
REMARK  11 active torsions:
REMARK  status: ('A' for Active; 'I' for Inactive)
REMARK    1  A    between atoms: O_2  and  C_3 
REMARK    2  A    between atoms: C_5  and  C_6 
REMARK    3  A    between atoms: C_10  and  C_11 
REMARK       I    between atoms: C_11  and  N_12 
REMARK    4  A    between atoms: N_12  and  C_13 
REMARK    5  A    between atoms: C_13  and  C_14 
REMARK    6  A    between atoms: C_15  and  C_16 
REMARK    7  A    between atoms: C_16  and  O_17 
REMARK    8  A    between atoms: O_17  and  C_18 
REMARK    9  A    between atoms: C_19  and  C_20 
REMARK   10  A    between atoms: C_20  and  C_21 
REMARK   11  A    between atoms: C_29  and  O_30 
ROOT
HETATM    1  C   UNL     1      41.514 -14.674   4.276  1.00  0.00     0.270 C 
HETATM    2  N   UNL     1      40.895 -15.868   4.546  1.00  0.00    -0.345 N 
HETATM    3  O   UNL     1      42.185 -14.073   5.108  1.00  0.00    -0.266 OA
HETATM    4  H   UNL     1      40.314 -16.304   3.846  1.00  0.00     0.163 HD
ENDROOT
BRANCH   1   5
HETATM    5  C   UNL     1      41.307 -14.156   2.950  1.00  0.00     0.120 A 
HETATM    6  N   UNL     1      40.069 -13.758   2.526  1.00  0.00    -0.272 N 
HETATM    7  N   UNL     1      40.021 -13.367   1.244  1.00  0.00    -0.174 NA
HETATM    8  H   UNL     1      39.212 -13.760   3.070  1.00  0.00     0.189 HD
HETATM    9  C   UNL     1      41.288 -13.474   0.820  1.00  0.00     0.092 A 
HETATM   10  C   UNL     1      42.130 -13.957   1.860  1.00  0.00     0.071 A 
BRANCH   9  11
HETATM   11  C   UNL     1      41.666 -13.210  -0.564  1.00  0.00     0.030 A 
HETATM   12  C   UNL     1      41.230 -14.106  -1.555  1.00  0.00     0.053 A 
HETATM   13  C   UNL     1      41.533 -13.897  -2.902  1.00  0.00     0.069 A 
HETATM   14  C   UNL     1      42.293 -12.786  -3.265  1.00  0.00     0.039 A 
HETATM   15  C   UNL     1      42.741 -11.891  -2.286  1.00  0.00     0.040 A 
HETATM   16  C   UNL     1      42.422 -12.089  -0.938  1.00  0.00     0.081 A 
BRANCH  13  17
HETATM   17  O   UNL     1      41.042 -14.850  -3.751  1.00  0.00    -0.356 OA
HETATM   18  C   UNL     1      40.349 -15.942  -3.161  1.00  0.00     0.210 C 
ENDBRANCH  13  17
BRANCH  16  19
HETATM   19  O   UNL     1      42.910 -11.268   0.047  1.00  0.00    -0.355 OA
HETATM   20  C   UNL     1      42.773  -9.877  -0.229  1.00  0.00     0.210 C 
ENDBRANCH  16  19
ENDBRANCH   9  11
ENDBRANCH   1   5
BRANCH   2  21
HETATM   21  C   UNL     1      40.889 -16.428   5.873  1.00  0.00     0.217 C 
BRANCH  21  22
HETATM   22  C   UNL     1      41.962 -17.415   6.003  1.00  0.00    -0.085 C 
HETATM   23  C   UNL     1      42.877 -18.190   6.087  1.00  0.00    -0.078 C 
BRANCH  23  24
HETATM   24  C   UNL     1      44.042 -19.083   6.161  1.00  0.00     0.269 C 
BRANCH  24  25
HETATM   25  O   UNL     1      44.807 -19.031   4.951  1.00  0.00    -0.339 OA
BRANCH  25  26
HETATM   26  C   UNL     1      44.522 -19.982   4.006  1.00  0.00     0.076 A 
HETATM   27  C   UNL     1      43.998 -19.528   2.783  1.00  0.00    -0.021 A 
HETATM   28  C   UNL     1      43.703 -20.463   1.776  1.00  0.00     0.010 A 
HETATM   29  C   UNL     1      43.952 -21.821   1.968  1.00  0.00     0.001 A 
HETATM   30  C   UNL     1      44.498 -22.261   3.168  1.00  0.00     0.003 A 
HETATM   31  C   UNL     1      44.785 -21.345   4.183  1.00  0.00     0.037 A 
BRANCH  27  32
HETATM   32  C   UNL     1      43.696 -18.066   2.536  1.00  0.00     0.067 C 
BRANCH  32  33
HETATM   33  C   UNL     1      42.811 -17.864   1.336  1.00  0.00    -0.032 C 
HETATM   34  C   UNL     1      41.503 -17.580   1.398  1.00  0.00     0.007 C 
ENDBRANCH  32  33
ENDBRANCH  27  32
ENDBRANCH  25  26
ENDBRANCH  24  25
ENDBRANCH  23  24
ENDBRANCH  21  22
ENDBRANCH   2  21
TORSDOF 11
ENDMDL
MODEL 2
REMARK VINA RESULT:      -8.2      5.874     10.033
REMARK  11 active torsions:
REMARK  status: ('A' for Active; 'I' for Inactive)
REMARK    1  A    between atoms: O_2  and  C_3 
REMARK    2  A    between atoms: C_5  and  C_6 
REMARK    3  A    between atoms: C_10  and  C_11 
REMARK       I    between atoms: C_11  and  N_12 
REMARK    4  A    between atoms: N_12  and  C_13 
REMARK    5  A    between atoms: C_13  and  C_14 
REMARK    6  A    between atoms: C_15  and  C_16 
REMARK    7  A    between atoms: C_16  and  O_17 
REMARK    8  A    between atoms: O_17  and  C_18 
REMARK    9  A    between atoms: C_19  and  C_20 
REMARK   10  A    between atoms: C_20  and  C_21 
REMARK   11  A    between atoms: C_29  and  O_30 
ROOT
HETATM    1  C   UNL     1      40.122 -13.714   5.537  1.00  0.00     0.270 C 
HETATM    2  N   UNL     1      39.984 -13.217   6.807  1.00  0.00    -0.345 N 
HETATM    3  O   UNL     1      39.794 -13.081   4.539  1.00  0.00    -0.266 OA
HETATM    4  H   UNL     1      40.224 -13.792   7.601  1.00  0.00     0.163 HD
ENDROOT
BRANCH   1   5
HETATM    5  C   UNL     1      40.663 -15.044   5.448  1.00  0.00     0.120 A 
HETATM    6  N   UNL     1      40.076 -16.096   6.096  1.00  0.00    -0.272 N 
HETATM    7  N   UNL     1      40.736 -17.258   5.977  1.00  0.00    -0.174 NA
HETATM    8  H   UNL     1      39.233 -16.066   6.660  1.00  0.00     0.189 HD
HETATM    9  C   UNL     1      41.776 -16.966   5.184  1.00  0.00     0.092 A 
HETATM   10  C   UNL     1      41.765 -15.591   4.821  1.00  0.00     0.071 A 
BRANCH   9  11
HETATM   11  C   UNL     1      42.801 -17.951   4.858  1.00  0.00     0.030 A 
HETATM   12  C   UNL     1      42.720 -18.611   3.620  1.00  0.00     0.053 A 
HETATM   13  C   UNL     1      43.682 -19.545   3.234  1.00  0.00     0.069 A 
HETATM   14  C   UNL     1      44.735 -19.836   4.100  1.00  0.00     0.039 A 
HETATM   15  C   UNL     1      44.823 -19.193   5.340  1.00  0.00     0.040 A 
HETATM   16  C   UNL     1      43.869 -18.242   5.721  1.00  0.00     0.081 A 
BRANCH  13  17
HETATM   17  O   UNL     1      43.472 -20.105   2.003  1.00  0.00    -0.356 OA
HETATM   18  C   UNL     1      43.865 -21.461   1.838  1.00  0.00     0.210 C 
ENDBRANCH  13  17
BRANCH  16  19
HETATM   19  O   UNL     1      43.891 -17.653   6.959  1.00  0.00    -0.355 OA
HETATM   20  C   UNL     1      44.159 -18.553   8.031  1.00  0.00     0.210 C 
ENDBRANCH  16  19
ENDBRANCH   9  11
ENDBRANCH   1   5
BRANCH   2  21
HETATM   21  C   UNL     1      39.319 -11.965   7.056  1.00  0.00     0.217 C 
BRANCH  21  22
HETATM   22  C   UNL     1      39.557 -11.538   8.436  1.00  0.00    -0.085 C 
HETATM   23  C   UNL     1      39.770 -11.138   9.549  1.00  0.00    -0.078 C 
BRANCH  23  24
HETATM   24  C   UNL     1      40.052 -10.584  10.881  1.00  0.00     0.269 C 
BRANCH  24  25
HETATM   25  O   UNL     1      41.160 -11.253  11.493  1.00  0.00    -0.339 OA
BRANCH  25  26
HETATM   26  C   UNL     1      41.721 -10.636  12.582  1.00  0.00     0.076 A 
HETATM   27  C   UNL     1      42.949  -9.983  12.381  1.00  0.00    -0.021 A 
HETATM   28  C   UNL     1      43.557  -9.322  13.463  1.00  0.00     0.010 A 
HETATM   29  C   UNL     1      42.942  -9.284  14.713  1.00  0.00     0.001 A 
HETATM   30  C   UNL     1      41.712  -9.906  14.898  1.00  0.00     0.003 A 
HETATM   31  C   UNL     1      41.102 -10.576  13.836  1.00  0.00     0.037 A 
BRANCH  27  32
HETATM   32  C   UNL     1      43.662 -10.012  11.047  1.00  0.00     0.067 C 
BRANCH  32  33
HETATM   33  C   UNL     1      44.755 -11.046  11.010  1.00  0.00    -0.032 C 
HETATM   34  C   UNL     1      44.548 -12.369  11.029  1.00  0.00     0.007 C 
ENDBRANCH  32  33
ENDBRANCH  27  32
ENDBRANCH  25  26
ENDBRANCH  24  25
ENDBRANCH  23  24
ENDBRANCH  21  22
ENDBRANCH   2  21
TORSDOF 11
ENDMDL
MODEL 3
REMARK VINA RESULT:      -7.8      6.838     10.226
REMARK  11 active torsions:
REMARK  status: ('A' for Active; 'I' for Inactive)
REMARK    1  A    between atoms: O_2  and  C_3 
REMARK    2  A    between atoms: C_5  and  C_6 
REMARK    3  A    between atoms: C_10  and  C_11 
REMARK       I    between atoms: C_11  and  N_12 
REMARK    4  A    between atoms: N_12  and  C_13 
REMARK    5  A    between atoms: C_13  and  C_14 
REMARK    6  A    between atoms: C_15  and  C_16 
REMARK    7  A    between atoms: C_16  and  O_17 
REMARK    8  A    between atoms: O_17  and  C_18 
REMARK    9  A    between atoms: C_19  and  C_20 
REMARK   10  A    between atoms: C_20  and  C_21 
REMARK   11  A    between atoms: C_29  and  O_30 
ROOT
HETATM    1  C   UNL     1      44.944 -12.519   8.929  1.00  0.00     0.270 C 
HETATM    2  N   UNL     1      44.249 -13.330   8.069  1.00  0.00    -0.345 N 
HETATM    3  O   UNL     1      46.129 -12.247   8.770  1.00  0.00    -0.266 OA
HETATM    4  H   UNL     1      43.287 -13.564   8.265  1.00  0.00     0.163 HD
ENDROOT
BRANCH   1   5
HETATM    5  C   UNL     1      44.194 -12.018  10.050  1.00  0.00     0.120 A 
HETATM    6  N   UNL     1      44.151 -12.696  11.237  1.00  0.00    -0.272 N 
HETATM    7  N   UNL     1      43.353 -12.143  12.163  1.00  0.00    -0.174 NA
HETATM    8  H   UNL     1      44.630 -13.564  11.458  1.00  0.00     0.189 HD
HETATM    9  C   UNL     1      42.887 -11.033  11.573  1.00  0.00     0.092 A 
HETATM   10  C   UNL     1      43.395 -10.911  10.251  1.00  0.00     0.071 A 
BRANCH   9  11
HETATM   11  C   UNL     1      41.912 -10.164  12.223  1.00  0.00     0.030 A 
HETATM   12  C   UNL     1      42.353  -9.331  13.265  1.00  0.00     0.053 A 
HETATM   13  C   UNL     1      41.478  -8.455  13.911  1.00  0.00     0.069 A 
HETATM   14  C   UNL     1      40.141  -8.419  13.521  1.00  0.00     0.039 A 
HETATM   15  C   UNL     1      39.685  -9.250  12.490  1.00  0.00     0.040 A 
HETATM   16  C   UNL     1      40.566 -10.115  11.830  1.00  0.00     0.081 A 
BRANCH  13  17
HETATM   17  O   UNL     1      42.050  -7.708  14.904  1.00  0.00    -0.356 OA
HETATM   18  C   UNL     1      41.197  -7.277  15.956  1.00  0.00     0.210 C 
ENDBRANCH  13  17
BRANCH  16  19
HETATM   19  O   UNL     1      40.130 -10.991  10.868  1.00  0.00    -0.355 OA
HETATM   20  C   UNL     1      39.443 -10.374   9.783  1.00  0.00     0.210 C 
ENDBRANCH  16  19
ENDBRANCH   9  11
ENDBRANCH   1   5
BRANCH   2  21
HETATM   21  C   UNL     1      44.907 -14.022   6.992  1.00  0.00     0.217 C 
BRANCH  21  22
HETATM   22  C   UNL     1      43.913 -14.526   6.041  1.00  0.00    -0.085 C 
HETATM   23  C   UNL     1      43.086 -14.887   5.248  1.00  0.00    -0.078 C 
BRANCH  23  24
HETATM   24  C   UNL     1      42.063 -15.257   4.260  1.00  0.00     0.269 C 
BRANCH  24  25
HETATM   25  O   UNL     1      41.762 -16.655   4.328  1.00  0.00    -0.339 OA
BRANCH  25  26
HETATM   26  C   UNL     1      42.545 -17.486   3.568  1.00  0.00     0.076 A 
HETATM   27  C   UNL     1      43.169 -18.556   4.231  1.00  0.00    -0.021 A 
HETATM   28  C   UNL     1      43.970 -19.445   3.493  1.00  0.00     0.010 A 
HETATM   29  C   UNL     1      44.122 -19.292   2.116  1.00  0.00     0.001 A 
HETATM   30  C   UNL     1      43.478 -18.249   1.461  1.00  0.00     0.003 A 
HETATM   31  C   UNL     1      42.689 -17.351   2.182  1.00  0.00     0.037 A 
BRANCH  27  32
HETATM   32  C   UNL     1      43.046 -18.752   5.727  1.00  0.00     0.067 C 
BRANCH  32  33
HETATM   33  C   UNL     1      44.386 -18.918   6.390  1.00  0.00    -0.032 C 
HETATM   34  C   UNL     1      45.272 -17.929   6.567  1.00  0.00     0.007 C 
ENDBRANCH  32  33
ENDBRANCH  27  32
ENDBRANCH  25  26
ENDBRANCH  24  25
ENDBRANCH  23  24
ENDBRANCH  21  22
ENDBRANCH   2  21
TORSDOF 11
ENDMDL
MODEL 4
REMARK VINA RESULT:      -7.8      5.692      9.809
REMARK  11 active torsions:
REMARK  status: ('A' for Active; 'I' for Inactive)
REMARK    1  A    between atoms: O_2  and  C_3 
REMARK    2  A    between atoms: C_5  and  C_6 
REMARK    3  A    between atoms: C_10  and  C_11 
REMARK       I    between atoms: C_11  and  N_12 
REMARK    4  A    between atoms: N_12  and  C_13 
REMARK    5  A    between atoms: C_13  and  C_14 
REMARK    6  A    between atoms: C_15  and  C_16 
REMARK    7  A    between atoms: C_16  and  O_17 
REMARK    8  A    between atoms: O_17  and  C_18 
REMARK    9  A    between atoms: C_19  and  C_20 
REMARK   10  A    between atoms: C_20  and  C_21 
REMARK   11  A    between atoms: C_29  and  O_30 
ROOT
HETATM    1  C   UNL     1      40.379 -13.981   5.324  1.00  0.00     0.270 C 
HETATM    2  N   UNL     1      40.521 -13.085   6.353  1.00  0.00    -0.345 N 
HETATM    3  O   UNL     1      39.446 -13.933   4.529  1.00  0.00    -0.266 OA
HETATM    4  H   UNL     1      41.279 -13.192   7.010  1.00  0.00     0.163 HD
ENDROOT
BRANCH   1   5
HETATM    5  C   UNL     1      41.391 -15.001   5.246  1.00  0.00     0.120 A 
HETATM    6  N   UNL     1      42.554 -14.906   5.960  1.00  0.00    -0.272 N 
HETATM    7  N   UNL     1      43.429 -15.896   5.728  1.00  0.00    -0.174 NA
HETATM    8  H   UNL     1      42.812 -14.164   6.603  1.00  0.00     0.189 HD
HETATM    9  C   UNL     1      42.797 -16.696   4.857  1.00  0.00     0.092 A 
HETATM   10  C   UNL     1      41.512 -16.178   4.535  1.00  0.00     0.071 A 
BRANCH   9  11
HETATM   11  C   UNL     1      43.439 -17.873   4.282  1.00  0.00     0.030 A 
HETATM   12  C   UNL     1      43.758 -18.942   5.136  1.00  0.00     0.053 A 
HETATM   13  C   UNL     1      44.348 -20.108   4.646  1.00  0.00     0.069 A 
HETATM   14  C   UNL     1      44.636 -20.205   3.286  1.00  0.00     0.039 A 
HETATM   15  C   UNL     1      44.332 -19.144   2.425  1.00  0.00     0.040 A 
HETATM   16  C   UNL     1      43.723 -17.982   2.912  1.00  0.00     0.081 A 
BRANCH  13  17
HETATM   17  O   UNL     1      44.601 -21.061   5.594  1.00  0.00    -0.356 OA
HETATM   18  C   UNL     1      44.955 -22.355   5.127  1.00  0.00     0.210 C 
ENDBRANCH  13  17
BRANCH  16  19
HETATM   19  O   UNL     1      43.482 -16.900   2.103  1.00  0.00    -0.355 OA
HETATM   20  C   UNL     1      42.560 -17.154   1.046  1.00  0.00     0.210 C 
ENDBRANCH  16  19
ENDBRANCH   9  11
ENDBRANCH   1   5
BRANCH   2  21
HETATM   21  C   UNL     1      39.506 -12.107   6.643  1.00  0.00     0.217 C 
BRANCH  21  22
HETATM   22  C   UNL     1      39.641 -11.642   8.025  1.00  0.00    -0.085 C 
HETATM   23  C   UNL     1      39.806 -11.251   9.149  1.00  0.00    -0.078 C 
BRANCH  23  24
HETATM   24  C   UNL     1      40.079 -10.757  10.506  1.00  0.00     0.269 C 
BRANCH  24  25
HETATM   25  O   UNL     1      41.321 -11.271  11.000  1.00  0.00    -0.339 OA
BRANCH  25  26
HETATM   26  C   UNL     1      41.783 -10.730  12.172  1.00  0.00     0.076 A 
HETATM   27  C   UNL     1      43.039 -10.101  12.132  1.00  0.00    -0.021 A 
HETATM   28  C   UNL     1      43.550  -9.518  13.305  1.00  0.00     0.010 A 
HETATM   29  C   UNL     1      42.813  -9.531  14.488  1.00  0.00     0.001 A 
HETATM   30  C   UNL     1      41.558 -10.128  14.514  1.00  0.00     0.003 A 
HETATM   31  C   UNL     1      41.043 -10.723  13.360  1.00  0.00     0.037 A 
BRANCH  27  32
HETATM   32  C   UNL     1      43.882 -10.077  10.875  1.00  0.00     0.067 C 
BRANCH  32  33
HETATM   33  C   UNL     1      44.996 -11.087  10.919  1.00  0.00    -0.032 C 
HETATM   34  C   UNL     1      45.315 -11.909   9.910  1.00  0.00     0.007 C 
ENDBRANCH  32  33
ENDBRANCH  27  32
ENDBRANCH  25  26
ENDBRANCH  24  25
ENDBRANCH  23  24
ENDBRANCH  21  22
ENDBRANCH   2  21
TORSDOF 11
ENDMDL
MODEL 5
REMARK VINA RESULT:      -7.8      5.040      9.284
REMARK  11 active torsions:
REMARK  status: ('A' for Active; 'I' for Inactive)
REMARK    1  A    between atoms: O_2  and  C_3 
REMARK    2  A    between atoms: C_5  and  C_6 
REMARK    3  A    between atoms: C_10  and  C_11 
REMARK       I    between atoms: C_11  and  N_12 
REMARK    4  A    between atoms: N_12  and  C_13 
REMARK    5  A    between atoms: C_13  and  C_14 
REMARK    6  A    between atoms: C_15  and  C_16 
REMARK    7  A    between atoms: C_16  and  O_17 
REMARK    8  A    between atoms: O_17  and  C_18 
REMARK    9  A    between atoms: C_19  and  C_20 
REMARK   10  A    between atoms: C_20  and  C_21 
REMARK   11  A    between atoms: C_29  and  O_30 
ROOT
HETATM    1  C   UNL     1      40.310 -14.075   5.075  1.00  0.00     0.270 C 
HETATM    2  N   UNL     1      39.715 -13.735   6.262  1.00  0.00    -0.345 N 
HETATM    3  O   UNL     1      40.362 -13.310   4.117  1.00  0.00    -0.266 OA
HETATM    4  H   UNL     1      39.654 -14.414   7.007  1.00  0.00     0.163 HD
ENDROOT
BRANCH   1   5
HETATM    5  C   UNL     1      40.857 -15.404   5.014  1.00  0.00     0.120 A 
HETATM    6  N   UNL     1      40.266 -16.448   5.671  1.00  0.00    -0.272 N 
HETATM    7  N   UNL     1      40.931 -17.609   5.580  1.00  0.00    -0.174 NA
HETATM    8  H   UNL     1      39.415 -16.413   6.224  1.00  0.00     0.189 HD
HETATM    9  C   UNL     1      41.981 -17.325   4.796  1.00  0.00     0.092 A 
HETATM   10  C   UNL     1      41.969 -15.956   4.411  1.00  0.00     0.071 A 
BRANCH   9  11
HETATM   11  C   UNL     1      43.014 -18.312   4.500  1.00  0.00     0.030 A 
HETATM   12  C   UNL     1      42.937 -19.010   3.283  1.00  0.00     0.053 A 
HETATM   13  C   UNL     1      43.907 -19.948   2.925  1.00  0.00     0.069 A 
HETATM   14  C   UNL     1      44.963 -20.203   3.798  1.00  0.00     0.039 A 
HETATM   15  C   UNL     1      45.046 -19.521   5.018  1.00  0.00     0.040 A 
HETATM   16  C   UNL     1      44.084 -18.567   5.370  1.00  0.00     0.081 A 
BRANCH  13  17
HETATM   17  O   UNL     1      43.701 -20.547   1.713  1.00  0.00    -0.356 OA
HETATM   18  C   UNL     1      44.134 -21.895   1.579  1.00  0.00     0.210 C 
ENDBRANCH  13  17
BRANCH  16  19
HETATM   19  O   UNL     1      44.103 -17.939   6.590  1.00  0.00    -0.355 OA
HETATM   20  C   UNL     1      43.788 -18.789   7.690  1.00  0.00     0.210 C 
ENDBRANCH  16  19
ENDBRANCH   9  11
ENDBRANCH   1   5
BRANCH   2  21
HETATM   21  C   UNL     1      38.994 -12.498   6.415  1.00  0.00     0.217 C 
BRANCH  21  22
HETATM   22  C   UNL     1      39.861 -11.487   7.024  1.00  0.00    -0.085 C 
HETATM   23  C   UNL     1      40.616 -10.686   7.506  1.00  0.00    -0.078 C 
BRANCH  23  24
HETATM   24  C   UNL     1      41.597  -9.744   8.064  1.00  0.00     0.269 C 
BRANCH  24  25
HETATM   25  O   UNL     1      41.965 -10.115   9.397  1.00  0.00    -0.339 OA
BRANCH  25  26
HETATM   26  C   UNL     1      43.182 -10.728   9.547  1.00  0.00     0.076 A 
HETATM   27  C   UNL     1      43.909 -10.425  10.711  1.00  0.00    -0.021 A 
HETATM   28  C   UNL     1      45.157 -11.040  10.917  1.00  0.00     0.010 A 
HETATM   29  C   UNL     1      45.659 -11.962  10.000  1.00  0.00     0.001 A 
HETATM   30  C   UNL     1      44.921 -12.280   8.866  1.00  0.00     0.003 A 
HETATM   31  C   UNL     1      43.686 -11.669   8.641  1.00  0.00     0.037 A 
BRANCH  27  32
HETATM   32  C   UNL     1      43.412  -9.419  11.725  1.00  0.00     0.067 C 
BRANCH  32  33
HETATM   33  C   UNL     1      43.368  -9.989  13.117  1.00  0.00    -0.032 C 
HETATM   34  C   UNL     1      42.959  -9.316  14.200  1.00  0.00     0.007 C 
ENDBRANCH  32  33
ENDBRANCH  27  32
ENDBRANCH  25  26
ENDBRANCH  24  25
ENDBRANCH  23  24
ENDBRANCH  21  22
ENDBRANCH   2  21
TORSDOF 11
ENDMDL
MODEL 6
REMARK VINA RESULT:      -7.8      1.909      2.332
REMARK  11 active torsions:
REMARK  status: ('A' for Active; 'I' for Inactive)
REMARK    1  A    between atoms: O_2  and  C_3 
REMARK    2  A    between atoms: C_5  and  C_6 
REMARK    3  A    between atoms: C_10  and  C_11 
REMARK       I    between atoms: C_11  and  N_12 
REMARK    4  A    between atoms: N_12  and  C_13 
REMARK    5  A    between atoms: C_13  and  C_14 
REMARK    6  A    between atoms: C_15  and  C_16 
REMARK    7  A    between atoms: C_16  and  O_17 
REMARK    8  A    between atoms: O_17  and  C_18 
REMARK    9  A    between atoms: C_19  and  C_20 
REMARK   10  A    between atoms: C_20  and  C_21 
REMARK   11  A    between atoms: C_29  and  O_30 
ROOT
HETATM    1  C   UNL     1      43.015 -13.891   3.398  1.00  0.00     0.270 C 
HETATM    2  N   UNL     1      42.261 -14.496   4.371  1.00  0.00    -0.345 N 
HETATM    3  O   UNL     1      44.206 -13.638   3.546  1.00  0.00    -0.266 OA
HETATM    4  H   UNL     1      41.273 -14.642   4.223  1.00  0.00     0.163 HD
ENDROOT
BRANCH   1   5
HETATM    5  C   UNL     1      42.311 -13.550   2.191  1.00  0.00     0.120 A 
HETATM    6  N   UNL     1      42.403 -12.300   1.642  1.00  0.00    -0.272 N 
HETATM    7  N   UNL     1      41.633 -12.112   0.560  1.00  0.00    -0.174 NA
HETATM    8  H   UNL     1      42.961 -11.525   1.988  1.00  0.00     0.189 HD
HETATM    9  C   UNL     1      41.043 -13.300   0.366  1.00  0.00     0.092 A 
HETATM   10  C   UNL     1      41.446 -14.233   1.360  1.00  0.00     0.071 A 
BRANCH   9  11
HETATM   11  C   UNL     1      40.054 -13.510  -0.685  1.00  0.00     0.030 A 
HETATM   12  C   UNL     1      40.394 -14.345  -1.763  1.00  0.00     0.053 A 
HETATM   13  C   UNL     1      39.485 -14.610  -2.788  1.00  0.00     0.069 A 
HETATM   14  C   UNL     1      38.221 -14.023  -2.746  1.00  0.00     0.039 A 
HETATM   15  C   UNL     1      37.872 -13.181  -1.683  1.00  0.00     0.040 A 
HETATM   16  C   UNL     1      38.777 -12.930  -0.645  1.00  0.00     0.081 A 
BRANCH  13  17
HETATM   17  O   UNL     1      39.956 -15.439  -3.768  1.00  0.00    -0.356 OA
HETATM   18  C   UNL     1      39.015 -16.313  -4.379  1.00  0.00     0.210 C 
ENDBRANCH  13  17
BRANCH  16  19
HETATM   19  O   UNL     1      38.486 -12.052   0.369  1.00  0.00    -0.355 OA
HETATM   20  C   UNL     1      37.177 -12.199   0.912  1.00  0.00     0.210 C 
ENDBRANCH  16  19
ENDBRANCH   9  11
ENDBRANCH   1   5
BRANCH   2  21
HETATM   21  C   UNL     1      42.794 -14.755   5.683  1.00  0.00     0.217 C 
BRANCH  21  22
HETATM   22  C   UNL     1      43.194 -16.159   5.791  1.00  0.00    -0.085 C 
HETATM   23  C   UNL     1      43.556 -17.304   5.836  1.00  0.00    -0.078 C 
BRANCH  23  24
HETATM   24  C   UNL     1      44.044 -18.691   5.832  1.00  0.00     0.269 C 
BRANCH  24  25
HETATM   25  O   UNL     1      44.945 -18.915   4.742  1.00  0.00    -0.339 OA
BRANCH  25  26
HETATM   26  C   UNL     1      44.621 -19.933   3.881  1.00  0.00     0.076 A 
HETATM   27  C   UNL     1      44.216 -19.567   2.586  1.00  0.00    -0.021 A 
HETATM   28  C   UNL     1      43.887 -20.575   1.662  1.00  0.00     0.010 A 
HETATM   29  C   UNL     1      43.989 -21.921   2.008  1.00  0.00     0.001 A 
HETATM   30  C   UNL     1      44.419 -22.277   3.281  1.00  0.00     0.003 A 
HETATM   31  C   UNL     1      44.737 -21.288   4.214  1.00  0.00     0.037 A 
BRANCH  27  32
HETATM   32  C   UNL     1      44.074 -18.119   2.171  1.00  0.00     0.067 C 
BRANCH  32  33
HETATM   33  C   UNL     1      42.641 -17.738   1.918  1.00  0.00    -0.032 C 
HETATM   34  C   UNL     1      41.670 -17.786   2.839  1.00  0.00     0.007 C 
ENDBRANCH  32  33
ENDBRANCH  27  32
ENDBRANCH  25  26
ENDBRANCH  24  25
ENDBRANCH  23  24
ENDBRANCH  21  22
ENDBRANCH   2  21
TORSDOF 11
ENDMDL
MODEL 7
REMARK VINA RESULT:      -7.3      6.811      9.919
REMARK  11 active torsions:
REMARK  status: ('A' for Active; 'I' for Inactive)
REMARK    1  A    between atoms: O_2  and  C_3 
REMARK    2  A    between atoms: C_5  and  C_6 
REMARK    3  A    between atoms: C_10  and  C_11 
REMARK       I    between atoms: C_11  and  N_12 
REMARK    4  A    between atoms: N_12  and  C_13 
REMARK    5  A    between atoms: C_13  and  C_14 
REMARK    6  A    between atoms: C_15  and  C_16 
REMARK    7  A    between atoms: C_16  and  O_17 
REMARK    8  A    between atoms: O_17  and  C_18 
REMARK    9  A    between atoms: C_19  and  C_20 
REMARK   10  A    between atoms: C_20  and  C_21 
REMARK   11  A    between atoms: C_29  and  O_30 
ROOT
HETATM    1  C   UNL     1      44.845 -12.438   9.486  1.00  0.00     0.270 C 
HETATM    2  N   UNL     1      44.287 -12.902   8.322  1.00  0.00    -0.345 N 
HETATM    3  O   UNL     1      46.042 -12.544   9.734  1.00  0.00    -0.266 OA
HETATM    4  H   UNL     1      43.290 -12.836   8.181  1.00  0.00     0.163 HD
ENDROOT
BRANCH   1   5
HETATM    5  C   UNL     1      43.928 -11.833  10.414  1.00  0.00     0.120 A 
HETATM    6  N   UNL     1      43.660 -12.407  11.627  1.00  0.00    -0.272 N 
HETATM    7  N   UNL     1      42.731 -11.766  12.350  1.00  0.00    -0.174 NA
HETATM    8  H   UNL     1      44.067 -13.260  11.997  1.00  0.00     0.189 HD
HETATM    9  C   UNL     1      42.406 -10.703  11.600  1.00  0.00     0.092 A 
HETATM   10  C   UNL     1      43.139 -10.701  10.382  1.00  0.00     0.071 A 
BRANCH   9  11
HETATM   11  C   UNL     1      41.359  -9.768  11.997  1.00  0.00     0.030 A 
HETATM   12  C   UNL     1      40.284  -9.559  11.115  1.00  0.00     0.053 A 
HETATM   13  C   UNL     1      39.236  -8.698  11.445  1.00  0.00     0.069 A 
HETATM   14  C   UNL     1      39.265  -8.026  12.665  1.00  0.00     0.039 A 
HETATM   15  C   UNL     1      40.334  -8.217  13.549  1.00  0.00     0.040 A 
HETATM   16  C   UNL     1      41.377  -9.094  13.228  1.00  0.00     0.081 A 
BRANCH  13  17
HETATM   17  O   UNL     1      38.262  -8.595  10.490  1.00  0.00    -0.356 OA
HETATM   18  C   UNL     1      38.630  -8.925   9.157  1.00  0.00     0.210 C 
ENDBRANCH  13  17
BRANCH  16  19
HETATM   19  O   UNL     1      42.470  -9.244  14.042  1.00  0.00    -0.355 OA
HETATM   20  C   UNL     1      42.159  -9.657  15.370  1.00  0.00     0.210 C 
ENDBRANCH  16  19
ENDBRANCH   9  11
ENDBRANCH   1   5
BRANCH   2  21
HETATM   21  C   UNL     1      45.055 -13.663   7.372  1.00  0.00     0.217 C 
BRANCH  21  22
HETATM   22  C   UNL     1      44.215 -14.032   6.231  1.00  0.00    -0.085 C 
HETATM   23  C   UNL     1      43.499 -14.285   5.299  1.00  0.00    -0.078 C 
BRANCH  23  24
HETATM   24  C   UNL     1      42.593 -14.527   4.168  1.00  0.00     0.269 C 
BRANCH  24  25
HETATM   25  O   UNL     1      42.121 -15.880   4.166  1.00  0.00    -0.339 OA
BRANCH  25  26
HETATM   26  C   UNL     1      42.765 -16.750   3.324  1.00  0.00     0.076 A 
HETATM   27  C   UNL     1      43.128 -17.999   3.855  1.00  0.00    -0.021 A 
HETATM   28  C   UNL     1      43.777 -18.932   3.026  1.00  0.00     0.010 A 
HETATM   29  C   UNL     1      44.032 -18.641   1.687  1.00  0.00     0.001 A 
HETATM   30  C   UNL     1      43.643 -17.415   1.160  1.00  0.00     0.003 A 
HETATM   31  C   UNL     1      43.009 -16.473   1.974  1.00  0.00     0.037 A 
BRANCH  27  32
HETATM   32  C   UNL     1      42.887 -18.353   5.306  1.00  0.00     0.067 C 
BRANCH  32  33
HETATM   33  C   UNL     1      43.924 -17.753   6.217  1.00  0.00    -0.032 C 
HETATM   34  C   UNL     1      45.097 -18.329   6.513  1.00  0.00     0.007 C 
ENDBRANCH  32  33
ENDBRANCH  27  32
ENDBRANCH  25  26
ENDBRANCH  24  25
ENDBRANCH  23  24
ENDBRANCH  21  22
ENDBRANCH   2  21
TORSDOF 11
ENDMDL
MODEL 8
REMARK VINA RESULT:      -7.3      5.435      8.754
REMARK  11 active torsions:
REMARK  status: ('A' for Active; 'I' for Inactive)
REMARK    1  A    between atoms: O_2  and  C_3 
REMARK    2  A    between atoms: C_5  and  C_6 
REMARK    3  A    between atoms: C_10  and  C_11 
REMARK       I    between atoms: C_11  and  N_12 
REMARK    4  A    between atoms: N_12  and  C_13 
REMARK    5  A    between atoms: C_13  and  C_14 
REMARK    6  A    between atoms: C_15  and  C_16 
REMARK    7  A    between atoms: C_16  and  O_17 
REMARK    8  A    between atoms: O_17  and  C_18 
REMARK    9  A    between atoms: C_19  and  C_20 
REMARK   10  A    between atoms: C_20  and  C_21 
REMARK   11  A    between atoms: C_29  and  O_30 
ROOT
HETATM    1  C   UNL     1      39.719 -11.739   5.811  1.00  0.00     0.270 C 
HETATM    2  N   UNL     1      40.173 -12.968   5.406  1.00  0.00    -0.345 N 
HETATM    3  O   UNL     1      38.714 -11.216   5.339  1.00  0.00    -0.266 OA
HETATM    4  H   UNL     1      41.030 -13.338   5.789  1.00  0.00     0.163 HD
ENDROOT
BRANCH   1   5
HETATM    5  C   UNL     1      40.513 -11.085   6.817  1.00  0.00     0.120 A 
HETATM    6  N   UNL     1      41.277  -9.990   6.520  1.00  0.00    -0.272 N 
HETATM    7  N   UNL     1      42.017  -9.537   7.543  1.00  0.00    -0.174 NA
HETATM    8  H   UNL     1      41.351  -9.528   5.619  1.00  0.00     0.189 HD
HETATM    9  C   UNL     1      41.693 -10.342   8.565  1.00  0.00     0.092 A 
HETATM   10  C   UNL     1      40.746 -11.322   8.156  1.00  0.00     0.071 A 
BRANCH   9  11
HETATM   11  C   UNL     1      42.338 -10.235   9.869  1.00  0.00     0.030 A 
HETATM   12  C   UNL     1      41.572  -9.776  10.954  1.00  0.00     0.053 A 
HETATM   13  C   UNL     1      42.119  -9.675  12.234  1.00  0.00     0.069 A 
HETATM   14  C   UNL     1      43.454 -10.025  12.433  1.00  0.00     0.039 A 
HETATM   15  C   UNL     1      44.231 -10.475  11.359  1.00  0.00     0.040 A 
HETATM   16  C   UNL     1      43.678 -10.594  10.079  1.00  0.00     0.081 A 
BRANCH  13  17
HETATM   17  O   UNL     1      41.255  -9.214  13.189  1.00  0.00    -0.356 OA
HETATM   18  C   UNL     1      41.473  -9.658  14.522  1.00  0.00     0.210 C 
ENDBRANCH  13  17
BRANCH  16  19
HETATM   19  O   UNL     1      44.436 -10.962   8.996  1.00  0.00    -0.355 OA
HETATM   20  C   UNL     1      44.677 -12.363   8.900  1.00  0.00     0.210 C 
ENDBRANCH  16  19
ENDBRANCH   9  11
ENDBRANCH   1   5
BRANCH   2  21
HETATM   21  C   UNL     1      39.567 -13.667   4.303  1.00  0.00     0.217 C 
BRANCH  21  22
HETATM   22  C   UNL     1      40.534 -14.591   3.706  1.00  0.00    -0.085 C 
HETATM   23  C   UNL     1      41.315 -15.385   3.256  1.00  0.00    -0.078 C 
BRANCH  23  24
HETATM   24  C   UNL     1      42.249 -16.406   2.760  1.00  0.00     0.269 C 
BRANCH  24  25
HETATM   25  O   UNL     1      41.899 -17.705   3.250  1.00  0.00    -0.339 OA
BRANCH  25  26
HETATM   26  C   UNL     1      42.654 -18.190   4.288  1.00  0.00     0.076 A 
HETATM   27  C   UNL     1      43.707 -19.060   3.957  1.00  0.00    -0.021 A 
HETATM   28  C   UNL     1      44.519 -19.572   4.984  1.00  0.00     0.010 A 
HETATM   29  C   UNL     1      44.309 -19.203   6.312  1.00  0.00     0.001 A 
HETATM   30  C   UNL     1      43.284 -18.319   6.629  1.00  0.00     0.003 A 
HETATM   31  C   UNL     1      42.461 -17.811   5.621  1.00  0.00     0.037 A 
BRANCH  27  32
HETATM   32  C   UNL     1      43.963 -19.501   2.532  1.00  0.00     0.067 C 
BRANCH  32  33
HETATM   33  C   UNL     1      44.419 -20.933   2.455  1.00  0.00    -0.032 C 
HETATM   34  C   UNL     1      43.919 -21.843   1.608  1.00  0.00     0.007 C 
ENDBRANCH  32  33
ENDBRANCH  27  32
ENDBRANCH  25  26
ENDBRANCH  24  25
ENDBRANCH  23  24
ENDBRANCH  21  22
ENDBRANCH   2  21
TORSDOF 11
ENDMDL
MODEL 9
REMARK VINA RESULT:      -7.3      5.153      8.090
REMARK  11 active torsions:
REMARK  status: ('A' for Active; 'I' for Inactive)
REMARK    1  A    between atoms: O_2  and  C_3 
REMARK    2  A    between atoms: C_5  and  C_6 
REMARK    3  A    between atoms: C_10  and  C_11 
REMARK       I    between atoms: C_11  and  N_12 
REMARK    4  A    between atoms: N_12  and  C_13 
REMARK    5  A    between atoms: C_13  and  C_14 
REMARK    6  A    between atoms: C_15  and  C_16 
REMARK    7  A    between atoms: C_16  and  O_17 
REMARK    8  A    between atoms: O_17  and  C_18 
REMARK    9  A    between atoms: C_19  and  C_20 
REMARK   10  A    between atoms: C_20  and  C_21 
REMARK   11  A    between atoms: C_29  and  O_30 
ROOT
HETATM    1  C   UNL     1      41.583 -12.516   5.083  1.00  0.00     0.270 C 
HETATM    2  N   UNL     1      40.889 -13.684   5.275  1.00  0.00    -0.345 N 
HETATM    3  O   UNL     1      42.084 -12.213   4.005  1.00  0.00    -0.266 OA
HETATM    4  H   UNL     1      40.535 -13.914   6.191  1.00  0.00     0.163 HD
ENDROOT
BRANCH   1   5
HETATM    5  C   UNL     1      41.705 -11.671   6.241  1.00  0.00     0.120 A 
HETATM    6  N   UNL     1      41.629 -10.309   6.140  1.00  0.00    -0.272 N 
HETATM    7  N   UNL     1      41.834  -9.655   7.293  1.00  0.00    -0.174 NA
HETATM    8  H   UNL     1      41.466  -9.772   5.294  1.00  0.00     0.189 HD
HETATM    9  C   UNL     1      42.010 -10.630   8.197  1.00  0.00     0.092 A 
HETATM   10  C   UNL     1      41.928 -11.910   7.582  1.00  0.00     0.071 A 
BRANCH   9  11
HETATM   11  C   UNL     1      42.337 -10.343   9.589  1.00  0.00     0.030 A 
HETATM   12  C   UNL     1      41.289 -10.011  10.464  1.00  0.00     0.053 A 
HETATM   13  C   UNL     1      41.529  -9.752  11.815  1.00  0.00     0.069 A 
HETATM   14  C   UNL     1      42.835  -9.813  12.297  1.00  0.00     0.039 A 
HETATM   15  C   UNL     1      43.890 -10.134  11.435  1.00  0.00     0.040 A 
HETATM   16  C   UNL     1      43.648 -10.412  10.084  1.00  0.00     0.081 A 
BRANCH  13  17
HETATM   17  O   UNL     1      40.413  -9.442  12.543  1.00  0.00    -0.356 OA
HETATM   18  C   UNL     1      39.523  -8.487  11.981  1.00  0.00     0.210 C 
ENDBRANCH  13  17
BRANCH  16  19
HETATM   19  O   UNL     1      44.671 -10.657   9.203  1.00  0.00    -0.355 OA
HETATM   20  C   UNL     1      45.899 -11.028   9.823  1.00  0.00     0.210 C 
ENDBRANCH  16  19
ENDBRANCH   9  11
ENDBRANCH   1   5
BRANCH   2  21
HETATM   21  C   UNL     1      40.819 -14.692   4.250  1.00  0.00     0.217 C 
BRANCH  21  22
HETATM   22  C   UNL     1      41.743 -15.785   4.559  1.00  0.00    -0.085 C 
HETATM   23  C   UNL     1      42.469 -16.695   4.855  1.00  0.00    -0.078 C 
BRANCH  23  24
HETATM   24  C   UNL     1      43.309 -17.826   5.274  1.00  0.00     0.269 C 
BRANCH  24  25
HETATM   25  O   UNL     1      44.299 -18.126   4.283  1.00  0.00    -0.339 OA
BRANCH  25  26
HETATM   26  C   UNL     1      44.291 -19.402   3.778  1.00  0.00     0.076 A 
HETATM   27  C   UNL     1      43.924 -19.550   2.430  1.00  0.00    -0.021 A 
HETATM   28  C   UNL     1      43.914 -20.836   1.861  1.00  0.00     0.010 A 
HETATM   29  C   UNL     1      44.292 -21.950   2.609  1.00  0.00     0.001 A 
HETATM   30  C   UNL     1      44.682 -21.793   3.934  1.00  0.00     0.003 A 
HETATM   31  C   UNL     1      44.685 -20.523   4.516  1.00  0.00     0.037 A 
BRANCH  27  32
HETATM   32  C   UNL     1      43.491 -18.373   1.584  1.00  0.00     0.067 C 
BRANCH  32  33
HETATM   33  C   UNL     1      41.999 -18.180   1.599  1.00  0.00    -0.032 C 
HETATM   34  C   UNL     1      41.363 -17.139   1.047  1.00  0.00     0.007 C 
ENDBRANCH  32  33
ENDBRANCH  27  32
ENDBRANCH  25  26
ENDBRANCH  24  25
ENDBRANCH  23  24
ENDBRANCH  21  22
ENDBRANCH   2  21
TORSDOF 11
ENDMDL
MODEL 10
REMARK VINA RESULT:      -7.2      5.353      8.557
REMARK  11 active torsions:
REMARK  status: ('A' for Active; 'I' for Inactive)
REMARK    1  A    between atoms: O_2  and  C_3 
REMARK    2  A    between atoms: C_5  and  C_6 
REMARK    3  A    between atoms: C_10  and  C_11 
REMARK       I    between atoms: C_11  and  N_12 
REMARK    4  A    between atoms: N_12  and  C_13 
REMARK    5  A    between atoms: C_13  and  C_14 
REMARK    6  A    between atoms: C_15  and  C_16 
REMARK    7  A    between atoms: C_16  and  O_17 
REMARK    8  A    between atoms: O_17  and  C_18 
REMARK    9  A    between atoms: C_19  and  C_20 
REMARK   10  A    between atoms: C_20  and  C_21 
REMARK   11  A    between atoms: C_29  and  O_30 
ROOT
HETATM    1  C   UNL     1      39.929 -11.722   5.493  1.00  0.00     0.270 C 
HETATM    2  N   UNL     1      40.690 -12.430   4.599  1.00  0.00    -0.345 N 
HETATM    3  O   UNL     1      38.706 -11.659   5.418  1.00  0.00    -0.266 OA
HETATM    4  H   UNL     1      41.697 -12.415   4.672  1.00  0.00     0.163 HD
ENDROOT
BRANCH   1   5
HETATM    5  C   UNL     1      40.662 -11.035   6.523  1.00  0.00     0.120 A 
HETATM    6  N   UNL     1      41.289  -9.845   6.277  1.00  0.00    -0.272 N 
HETATM    7  N   UNL     1      41.991  -9.363   7.313  1.00  0.00    -0.174 NA
HETATM    8  H   UNL     1      41.292  -9.330   5.401  1.00  0.00     0.189 HD
HETATM    9  C   UNL     1      41.782 -10.253   8.294  1.00  0.00     0.092 A 
HETATM   10  C   UNL     1      40.946 -11.313   7.844  1.00  0.00     0.071 A 
BRANCH   9  11
HETATM   11  C   UNL     1      42.435 -10.140   9.593  1.00  0.00     0.030 A 
HETATM   12  C   UNL     1      41.757  -9.465  10.622  1.00  0.00     0.053 A 
HETATM   13  C   UNL     1      42.313  -9.345  11.897  1.00  0.00     0.069 A 
HETATM   14  C   UNL     1      43.569  -9.895  12.146  1.00  0.00     0.039 A 
HETATM   15  C   UNL     1      44.260 -10.562  11.127  1.00  0.00     0.040 A 
HETATM   16  C   UNL     1      43.695 -10.700   9.854  1.00  0.00     0.081 A 
BRANCH  13  17
HETATM   17  O   UNL     1      41.539  -8.662  12.794  1.00  0.00    -0.356 OA
HETATM   18  C   UNL     1      40.316  -8.122  12.310  1.00  0.00     0.210 C 
ENDBRANCH  13  17
BRANCH  16  19
HETATM   19  O   UNL     1      44.381 -11.284   8.820  1.00  0.00    -0.355 OA
HETATM   20  C   UNL     1      45.698 -11.710   9.158  1.00  0.00     0.210 C 
ENDBRANCH  16  19
ENDBRANCH   9  11
ENDBRANCH   1   5
BRANCH   2  21
HETATM   21  C   UNL     1      40.107 -13.040   3.432  1.00  0.00     0.217 C 
BRANCH  21  22
HETATM   22  C   UNL     1      40.417 -14.471   3.409  1.00  0.00    -0.085 C 
HETATM   23  C   UNL     1      40.723 -15.632   3.401  1.00  0.00    -0.078 C 
BRANCH  23  24
HETATM   24  C   UNL     1      41.169 -17.033   3.411  1.00  0.00     0.269 C 
BRANCH  24  25
HETATM   25  O   UNL     1      42.568 -17.125   3.705  1.00  0.00    -0.339 OA
BRANCH  25  26
HETATM   26  C   UNL     1      43.182 -18.310   3.386  1.00  0.00     0.076 A 
HETATM   27  C   UNL     1      44.094 -18.827   4.322  1.00  0.00    -0.021 A 
HETATM   28  C   UNL     1      44.738 -20.046   4.047  1.00  0.00     0.010 A 
HETATM   29  C   UNL     1      44.459 -20.754   2.879  1.00  0.00     0.001 A 
HETATM   30  C   UNL     1      43.534 -20.251   1.971  1.00  0.00     0.003 A 
HETATM   31  C   UNL     1      42.895 -19.036   2.224  1.00  0.00     0.037 A 
BRANCH  27  32
HETATM   32  C   UNL     1      44.441 -18.086   5.595  1.00  0.00     0.067 C 
BRANCH  32  33
HETATM   33  C   UNL     1      43.636 -18.570   6.771  1.00  0.00    -0.032 C 
HETATM   34  C   UNL     1      44.100 -18.652   8.025  1.00  0.00     0.007 C 
ENDBRANCH  32  33
ENDBRANCH  27  32
ENDBRANCH  25  26
ENDBRANCH  24  25
ENDBRANCH  23  24
ENDBRANCH  21  22
ENDBRANCH   2  21
TORSDOF 11
ENDMDL
