MODEL 1
REMARK VINA RESULT:      -9.9      0.000      0.000
REMARK  4 active torsions:
REMARK  status: ('A' for Active; 'I' for Inactive)
REMARK    1  A    between atoms: C_3  and  C_4 
REMARK       I    between atoms: C_4  and  N_5 
REMARK    2  A    between atoms: N_5  and  N_6 
REMARK    3  A    between atoms: C_7  and  C_8 
REMARK    4  A    between atoms: C_23  and  C_24 
ROOT
HETATM    1  C   UNL     1      44.686 -13.292   7.922  1.00  0.00     0.290 C 
HETATM    2  N   UNL     1      43.824 -14.286   7.483  1.00  0.00    -0.242 N 
HETATM    3  O   UNL     1      45.847 -13.160   7.544  1.00  0.00    -0.264 OA
HETATM    4  H   UNL     1      42.899 -14.339   7.885  1.00  0.00     0.192 HD
ENDROOT
BRANCH   1   5
HETATM    5  C   UNL     1      44.115 -12.352   8.864  1.00  0.00     0.127 A 
HETATM    6  C   UNL     1      44.363 -11.991  10.185  1.00  0.00     0.003 A 
HETATM    7  C   UNL     1      45.446 -12.459  11.092  1.00  0.00     0.053 C 
HETATM    8  C   UNL     1      43.359 -11.008  10.492  1.00  0.00     0.095 A 
HETATM    9  N   UNL     1      42.615 -10.733   9.412  1.00  0.00    -0.173 NA
HETATM   10  N   UNL     1      43.104 -11.525   8.456  1.00  0.00    -0.272 N 
HETATM   11  H   UNL     1      42.699 -11.479   7.526  1.00  0.00     0.189 HD
BRANCH   8  12
HETATM   12  C   UNL     1      43.108 -10.317  11.757  1.00  0.00    -0.005 A 
HETATM   13  C   UNL     1      42.867 -11.034  12.937  1.00  0.00     0.014 A 
HETATM   14  C   UNL     1      42.630 -10.362  14.139  1.00  0.00     0.001 A 
HETATM   15  C   UNL     1      42.622  -8.968  14.170  1.00  0.00     0.000 A 
HETATM   16  C   UNL     1      42.845  -8.244  13.000  1.00  0.00     0.001 A 
HETATM   17  C   UNL     1      43.083  -8.916  11.798  1.00  0.00     0.014 A 
ENDBRANCH   8  12
ENDBRANCH   1   5
BRANCH   2  18
HETATM   18  N   UNL     1      44.125 -15.372   6.698  1.00  0.00    -0.183 NA
HETATM   19  C   UNL     1      43.196 -16.211   6.367  1.00  0.00     0.153 C 
BRANCH  19  20
HETATM   20  C   UNL     1      43.512 -17.327   5.488  1.00  0.00     0.018 A 
HETATM   21  C   UNL     1      43.565 -17.274   4.054  1.00  0.00     0.004 A 
HETATM   22  C   UNL     1      43.907 -18.547   3.598  1.00  0.00     0.043 A 
HETATM   23  C   UNL     1      43.356 -16.257   3.096  1.00  0.00     0.014 A 
HETATM   24  C   UNL     1      44.050 -18.857   2.241  1.00  0.00     0.030 A 
HETATM   25  N   UNL     1      44.056 -19.345   4.707  1.00  0.00    -0.358 N 
HETATM   26  C   UNL     1      43.836 -17.833   1.315  1.00  0.00     0.002 A 
HETATM   27  C   UNL     1      43.493 -16.550   1.734  1.00  0.00     0.001 A 
HETATM   28  H   UNL     1      44.308 -20.323   4.672  1.00  0.00     0.166 HD
HETATM   29  C   UNL     1      43.824 -18.630   5.856  1.00  0.00     0.018 A 
HETATM   30  C   UNL     1      43.932 -19.275   7.192  1.00  0.00     0.069 C 
ENDBRANCH  19  20
ENDBRANCH   2  18
TORSDOF 4
ENDMDL
MODEL 2
REMARK VINA RESULT:      -9.7      1.100      2.368
REMARK  4 active torsions:
REMARK  status: ('A' for Active; 'I' for Inactive)
REMARK    1  A    between atoms: C_3  and  C_4 
REMARK       I    between atoms: C_4  and  N_5 
REMARK    2  A    between atoms: N_5  and  N_6 
REMARK    3  A    between atoms: C_7  and  C_8 
REMARK    4  A    between atoms: C_23  and  C_24 
ROOT
HETATM    1  C   UNL     1      44.538 -12.974   7.863  1.00  0.00     0.290 C 
HETATM    2  N   UNL     1      43.644 -13.597   7.006  1.00  0.00    -0.242 N 
HETATM    3  O   UNL     1      45.760 -13.029   7.755  1.00  0.00    -0.264 OA
HETATM    4  H   UNL     1      42.655 -13.529   7.202  1.00  0.00     0.192 HD
ENDROOT
BRANCH   1   5
HETATM    5  C   UNL     1      43.935 -12.188   8.919  1.00  0.00     0.127 A 
HETATM    6  C   UNL     1      44.164 -12.007  10.280  1.00  0.00     0.003 A 
HETATM    7  C   UNL     1      45.253 -12.566  11.125  1.00  0.00     0.053 C 
HETATM    8  C   UNL     1      43.131 -11.103  10.709  1.00  0.00     0.095 A 
HETATM    9  N   UNL     1      42.388 -10.700   9.670  1.00  0.00    -0.173 NA
HETATM   10  N   UNL     1      42.904 -11.340   8.619  1.00  0.00    -0.272 N 
HETATM   11  H   UNL     1      42.504 -11.176   7.700  1.00  0.00     0.189 HD
BRANCH   8  12
HETATM   12  C   UNL     1      42.853 -10.600  12.055  1.00  0.00    -0.005 A 
HETATM   13  C   UNL     1      43.699  -9.666  12.668  1.00  0.00     0.014 A 
HETATM   14  C   UNL     1      43.421  -9.192  13.953  1.00  0.00     0.001 A 
HETATM   15  C   UNL     1      42.300  -9.656  14.640  1.00  0.00     0.000 A 
HETATM   16  C   UNL     1      41.459 -10.596  14.047  1.00  0.00     0.001 A 
HETATM   17  C   UNL     1      41.737 -11.069  12.762  1.00  0.00     0.014 A 
ENDBRANCH   8  12
ENDBRANCH   1   5
BRANCH   2  18
HETATM   18  N   UNL     1      43.926 -14.495   6.006  1.00  0.00    -0.183 NA
HETATM   19  C   UNL     1      43.064 -15.407   5.690  1.00  0.00     0.153 C 
BRANCH  19  20
HETATM   20  C   UNL     1      43.346 -16.318   4.592  1.00  0.00     0.018 A 
HETATM   21  C   UNL     1      43.776 -17.683   4.725  1.00  0.00     0.004 A 
HETATM   22  C   UNL     1      43.928 -18.203   3.440  1.00  0.00     0.043 A 
HETATM   23  C   UNL     1      44.049 -18.528   5.823  1.00  0.00     0.014 A 
HETATM   24  C   UNL     1      44.337 -19.519   3.194  1.00  0.00     0.030 A 
HETATM   25  N   UNL     1      43.605 -17.200   2.558  1.00  0.00    -0.358 N 
HETATM   26  C   UNL     1      44.601 -20.333   4.299  1.00  0.00     0.002 A 
HETATM   27  C   UNL     1      44.461 -19.847   5.596  1.00  0.00     0.001 A 
HETATM   28  H   UNL     1      43.625 -17.300   1.553  1.00  0.00     0.166 HD
HETATM   29  C   UNL     1      43.252 -16.056   3.230  1.00  0.00     0.018 A 
HETATM   30  C   UNL     1      42.852 -14.828   2.492  1.00  0.00     0.069 C 
ENDBRANCH  19  20
ENDBRANCH   2  18
TORSDOF 4
ENDMDL
MODEL 3
REMARK VINA RESULT:      -9.3      6.693     10.838
REMARK  4 active torsions:
REMARK  status: ('A' for Active; 'I' for Inactive)
REMARK    1  A    between atoms: C_3  and  C_4 
REMARK       I    between atoms: C_4  and  N_5 
REMARK    2  A    between atoms: N_5  and  N_6 
REMARK    3  A    between atoms: C_7  and  C_8 
REMARK    4  A    between atoms: C_23  and  C_24 
ROOT
HETATM    1  C   UNL     1      41.411 -15.916   0.177  1.00  0.00     0.290 C 
HETATM    2  N   UNL     1      42.562 -16.667   0.367  1.00  0.00    -0.242 N 
HETATM    3  O   UNL     1      40.467 -15.879   0.962  1.00  0.00    -0.264 OA
HETATM    4  H   UNL     1      43.267 -16.666  -0.357  1.00  0.00     0.192 HD
ENDROOT
BRANCH   1   5
HETATM    5  C   UNL     1      41.391 -15.112  -1.026  1.00  0.00     0.127 A 
HETATM    6  C   UNL     1      41.448 -13.752  -1.316  1.00  0.00     0.003 A 
HETATM    7  C   UNL     1      41.641 -12.607  -0.385  1.00  0.00     0.053 C 
HETATM    8  C   UNL     1      41.327 -13.675  -2.747  1.00  0.00     0.095 A 
HETATM    9  N   UNL     1      41.287 -14.900  -3.288  1.00  0.00    -0.173 NA
HETATM   10  N   UNL     1      41.353 -15.731  -2.246  1.00  0.00    -0.272 N 
HETATM   11  H   UNL     1      41.355 -16.732  -2.416  1.00  0.00     0.189 HD
BRANCH   8  12
HETATM   12  C   UNL     1      41.274 -12.488  -3.602  1.00  0.00    -0.005 A 
HETATM   13  C   UNL     1      42.446 -11.892  -4.084  1.00  0.00     0.014 A 
HETATM   14  C   UNL     1      42.382 -10.759  -4.900  1.00  0.00     0.001 A 
HETATM   15  C   UNL     1      41.145 -10.208  -5.233  1.00  0.00     0.000 A 
HETATM   16  C   UNL     1      39.973 -10.784  -4.748  1.00  0.00     0.001 A 
HETATM   17  C   UNL     1      40.037 -11.917  -3.932  1.00  0.00     0.014 A 
ENDBRANCH   8  12
ENDBRANCH   1   5
BRANCH   2  18
HETATM   18  N   UNL     1      42.801 -17.606   1.341  1.00  0.00    -0.183 NA
HETATM   19  C   UNL     1      43.769 -17.433   2.183  1.00  0.00     0.153 C 
BRANCH  19  20
HETATM   20  C   UNL     1      43.980 -18.403   3.247  1.00  0.00     0.018 A 
HETATM   21  C   UNL     1      44.193 -19.812   3.066  1.00  0.00     0.004 A 
HETATM   22  C   UNL     1      44.358 -20.378   4.329  1.00  0.00     0.043 A 
HETATM   23  C   UNL     1      44.263 -20.662   1.940  1.00  0.00     0.014 A 
HETATM   24  C   UNL     1      44.589 -21.745   4.528  1.00  0.00     0.030 A 
HETATM   25  N   UNL     1      44.250 -19.360   5.245  1.00  0.00    -0.358 N 
HETATM   26  C   UNL     1      44.653 -22.563   3.396  1.00  0.00     0.002 A 
HETATM   27  C   UNL     1      44.492 -22.031   2.119  1.00  0.00     0.001 A 
HETATM   28  H   UNL     1      44.332 -19.485   6.245  1.00  0.00     0.166 HD
HETATM   29  C   UNL     1      44.023 -18.161   4.615  1.00  0.00     0.018 A 
HETATM   30  C   UNL     1      43.877 -16.903   5.395  1.00  0.00     0.069 C 
ENDBRANCH  19  20
ENDBRANCH   2  18
TORSDOF 4
ENDMDL
MODEL 4
REMARK VINA RESULT:      -9.3      6.701     11.288
REMARK  4 active torsions:
REMARK  status: ('A' for Active; 'I' for Inactive)
REMARK    1  A    between atoms: C_3  and  C_4 
REMARK       I    between atoms: C_4  and  N_5 
REMARK    2  A    between atoms: N_5  and  N_6 
REMARK    3  A    between atoms: C_7  and  C_8 
REMARK    4  A    between atoms: C_23  and  C_24 
ROOT
HETATM    1  C   UNL     1      41.704 -15.047  -0.080  1.00  0.00     0.290 C 
HETATM    2  N   UNL     1      42.185 -16.349  -0.085  1.00  0.00    -0.242 N 
HETATM    3  O   UNL     1      41.993 -14.202   0.763  1.00  0.00    -0.264 OA
HETATM    4  H   UNL     1      41.856 -16.984  -0.798  1.00  0.00     0.192 HD
ENDROOT
BRANCH   1   5
HETATM    5  C   UNL     1      40.837 -14.705  -1.187  1.00  0.00     0.127 A 
HETATM    6  C   UNL     1      39.547 -14.200  -1.322  1.00  0.00     0.003 A 
HETATM    7  C   UNL     1      38.608 -13.745  -0.262  1.00  0.00     0.053 C 
HETATM    8  C   UNL     1      39.315 -14.159  -2.741  1.00  0.00     0.095 A 
HETATM    9  N   UNL     1      40.412 -14.529  -3.414  1.00  0.00    -0.173 NA
HETATM   10  N   UNL     1      41.305 -14.822  -2.468  1.00  0.00    -0.272 N 
HETATM   11  H   UNL     1      42.236 -15.118  -2.746  1.00  0.00     0.189 HD
BRANCH   8  12
HETATM   12  C   UNL     1      38.105 -13.760  -3.462  1.00  0.00    -0.005 A 
HETATM   13  C   UNL     1      37.776 -12.408  -3.630  1.00  0.00     0.014 A 
HETATM   14  C   UNL     1      36.619 -12.040  -4.322  1.00  0.00     0.001 A 
HETATM   15  C   UNL     1      35.776 -13.021  -4.842  1.00  0.00     0.000 A 
HETATM   16  C   UNL     1      36.084 -14.369  -4.669  1.00  0.00     0.001 A 
HETATM   17  C   UNL     1      37.242 -14.736  -3.978  1.00  0.00     0.014 A 
ENDBRANCH   8  12
ENDBRANCH   1   5
BRANCH   2  18
HETATM   18  N   UNL     1      42.914 -16.978   0.893  1.00  0.00    -0.183 NA
HETATM   19  C   UNL     1      42.312 -17.534   1.895  1.00  0.00     0.153 C 
BRANCH  19  20
HETATM   20  C   UNL     1      43.088 -18.248   2.897  1.00  0.00     0.018 A 
HETATM   21  C   UNL     1      43.550 -19.604   2.789  1.00  0.00     0.004 A 
HETATM   22  C   UNL     1      44.257 -19.901   3.954  1.00  0.00     0.043 A 
HETATM   23  C   UNL     1      43.434 -20.610   1.805  1.00  0.00     0.014 A 
HETATM   24  C   UNL     1      44.852 -21.147   4.186  1.00  0.00     0.030 A 
HETATM   25  N   UNL     1      44.229 -18.776   4.741  1.00  0.00    -0.358 N 
HETATM   26  C   UNL     1      44.721 -22.124   3.196  1.00  0.00     0.002 A 
HETATM   27  C   UNL     1      44.022 -21.862   2.021  1.00  0.00     0.001 A 
HETATM   28  H   UNL     1      44.669 -18.707   5.648  1.00  0.00     0.166 HD
HETATM   29  C   UNL     1      43.531 -17.768   4.124  1.00  0.00     0.018 A 
HETATM   30  C   UNL     1      43.366 -16.441   4.777  1.00  0.00     0.069 C 
ENDBRANCH  19  20
ENDBRANCH   2  18
TORSDOF 4
ENDMDL
MODEL 5
REMARK VINA RESULT:      -9.1      6.493     11.197
REMARK  4 active torsions:
REMARK  status: ('A' for Active; 'I' for Inactive)
REMARK    1  A    between atoms: C_3  and  C_4 
REMARK       I    between atoms: C_4  and  N_5 
REMARK    2  A    between atoms: N_5  and  N_6 
REMARK    3  A    between atoms: C_7  and  C_8 
REMARK    4  A    between atoms: C_23  and  C_24 
ROOT
HETATM    1  C   UNL     1      41.751 -15.186   0.157  1.00  0.00     0.290 C 
HETATM    2  N   UNL     1      42.282 -16.468   0.164  1.00  0.00    -0.242 N 
HETATM    3  O   UNL     1      41.980 -14.333   1.010  1.00  0.00    -0.264 OA
HETATM    4  H   UNL     1      42.000 -17.113  -0.559  1.00  0.00     0.192 HD
ENDROOT
BRANCH   1   5
HETATM    5  C   UNL     1      40.903 -14.876  -0.974  1.00  0.00     0.127 A 
HETATM    6  C   UNL     1      39.661 -14.274  -1.153  1.00  0.00     0.003 A 
HETATM    7  C   UNL     1      38.777 -13.640  -0.138  1.00  0.00     0.053 C 
HETATM    8  C   UNL     1      39.417 -14.348  -2.568  1.00  0.00     0.095 A 
HETATM    9  N   UNL     1      40.469 -14.875  -3.207  1.00  0.00    -0.173 NA
HETATM   10  N   UNL     1      41.345 -15.154  -2.240  1.00  0.00    -0.272 N 
HETATM   11  H   UNL     1      42.243 -15.556  -2.492  1.00  0.00     0.189 HD
BRANCH   8  12
HETATM   12  C   UNL     1      38.238 -13.914  -3.320  1.00  0.00    -0.005 A 
HETATM   13  C   UNL     1      37.979 -12.554  -3.538  1.00  0.00     0.014 A 
HETATM   14  C   UNL     1      36.851 -12.153  -4.258  1.00  0.00     0.001 A 
HETATM   15  C   UNL     1      35.967 -13.108  -4.760  1.00  0.00     0.000 A 
HETATM   16  C   UNL     1      36.207 -14.463  -4.537  1.00  0.00     0.001 A 
HETATM   17  C   UNL     1      37.335 -14.864  -3.818  1.00  0.00     0.014 A 
ENDBRANCH   8  12
ENDBRANCH   1   5
BRANCH   2  18
HETATM   18  N   UNL     1      43.006 -17.070   1.163  1.00  0.00    -0.183 NA
HETATM   19  C   UNL     1      42.501 -18.063   1.822  1.00  0.00     0.153 C 
BRANCH  19  20
HETATM   20  C   UNL     1      43.296 -18.733   2.840  1.00  0.00     0.018 A 
HETATM   21  C   UNL     1      43.678 -18.175   4.107  1.00  0.00     0.004 A 
HETATM   22  C   UNL     1      44.425 -19.138   4.783  1.00  0.00     0.043 A 
HETATM   23  C   UNL     1      43.455 -16.935   4.745  1.00  0.00     0.014 A 
HETATM   24  C   UNL     1      44.960 -18.929   6.060  1.00  0.00     0.030 A 
HETATM   25  N   UNL     1      44.498 -20.239   3.966  1.00  0.00    -0.358 N 
HETATM   26  C   UNL     1      44.725 -17.693   6.668  1.00  0.00     0.002 A 
HETATM   27  C   UNL     1      43.984 -16.707   6.021  1.00  0.00     0.001 A 
HETATM   28  H   UNL     1      44.981 -21.094   4.206  1.00  0.00     0.166 HD
HETATM   29  C   UNL     1      43.824 -20.018   2.790  1.00  0.00     0.018 A 
HETATM   30  C   UNL     1      43.753 -21.069   1.740  1.00  0.00     0.069 C 
ENDBRANCH  19  20
ENDBRANCH   2  18
TORSDOF 4
ENDMDL
MODEL 6
REMARK VINA RESULT:      -9.0      6.960     10.876
REMARK  4 active torsions:
REMARK  status: ('A' for Active; 'I' for Inactive)
REMARK    1  A    between atoms: C_3  and  C_4 
REMARK       I    between atoms: C_4  and  N_5 
REMARK    2  A    between atoms: N_5  and  N_6 
REMARK    3  A    between atoms: C_7  and  C_8 
REMARK    4  A    between atoms: C_23  and  C_24 
ROOT
HETATM    1  C   UNL     1      41.367 -15.898   0.260  1.00  0.00     0.290 C 
HETATM    2  N   UNL     1      42.449 -16.754   0.408  1.00  0.00    -0.242 N 
HETATM    3  O   UNL     1      40.469 -15.762   1.086  1.00  0.00    -0.264 OA
HETATM    4  H   UNL     1      43.116 -16.828  -0.347  1.00  0.00     0.192 HD
ENDROOT
BRANCH   1   5
HETATM    5  C   UNL     1      41.367 -15.109  -0.954  1.00  0.00     0.127 A 
HETATM    6  C   UNL     1      41.439 -13.753  -1.260  1.00  0.00     0.003 A 
HETATM    7  C   UNL     1      41.632 -12.599  -0.342  1.00  0.00     0.053 C 
HETATM    8  C   UNL     1      41.335 -13.694  -2.693  1.00  0.00     0.095 A 
HETATM    9  N   UNL     1      41.290 -14.925  -3.220  1.00  0.00    -0.173 NA
HETATM   10  N   UNL     1      41.337 -15.743  -2.166  1.00  0.00    -0.272 N 
HETATM   11  H   UNL     1      41.332 -16.747  -2.324  1.00  0.00     0.189 HD
BRANCH   8  12
HETATM   12  C   UNL     1      41.301 -12.517  -3.563  1.00  0.00    -0.005 A 
HETATM   13  C   UNL     1      42.484 -11.892  -3.978  1.00  0.00     0.014 A 
HETATM   14  C   UNL     1      42.439 -10.770  -4.810  1.00  0.00     0.001 A 
HETATM   15  C   UNL     1      41.211 -10.258  -5.226  1.00  0.00     0.000 A 
HETATM   16  C   UNL     1      40.027 -10.863  -4.808  1.00  0.00     0.001 A 
HETATM   17  C   UNL     1      40.072 -11.985  -3.977  1.00  0.00     0.014 A 
ENDBRANCH   8  12
ENDBRANCH   1   5
BRANCH   2  18
HETATM   18  N   UNL     1      42.643 -17.700   1.385  1.00  0.00    -0.183 NA
HETATM   19  C   UNL     1      43.805 -18.252   1.531  1.00  0.00     0.153 C 
BRANCH  19  20
HETATM   20  C   UNL     1      44.017 -19.211   2.604  1.00  0.00     0.018 A 
HETATM   21  C   UNL     1      44.056 -18.903   4.007  1.00  0.00     0.004 A 
HETATM   22  C   UNL     1      44.274 -20.097   4.693  1.00  0.00     0.043 A 
HETATM   23  C   UNL     1      43.924 -17.716   4.760  1.00  0.00     0.014 A 
HETATM   24  C   UNL     1      44.367 -20.168   6.088  1.00  0.00     0.030 A 
HETATM   25  N   UNL     1      44.365 -21.093   3.752  1.00  0.00    -0.358 N 
HETATM   26  C   UNL     1      44.233 -18.977   6.808  1.00  0.00     0.002 A 
HETATM   27  C   UNL     1      44.016 -17.767   6.156  1.00  0.00     0.001 A 
HETATM   28  H   UNL     1      44.519 -22.068   3.970  1.00  0.00     0.166 HD
HETATM   29  C   UNL     1      44.212 -20.582   2.487  1.00  0.00     0.018 A 
HETATM   30  C   UNL     1      44.264 -21.468   1.293  1.00  0.00     0.069 C 
ENDBRANCH  19  20
ENDBRANCH   2  18
TORSDOF 4
ENDMDL
MODEL 7
REMARK VINA RESULT:      -8.6      6.891     10.531
REMARK  4 active torsions:
REMARK  status: ('A' for Active; 'I' for Inactive)
REMARK    1  A    between atoms: C_3  and  C_4 
REMARK       I    between atoms: C_4  and  N_5 
REMARK    2  A    between atoms: N_5  and  N_6 
REMARK    3  A    between atoms: C_7  and  C_8 
REMARK    4  A    between atoms: C_23  and  C_24 
ROOT
HETATM    1  C   UNL     1      43.111 -14.823   2.717  1.00  0.00     0.290 C 
HETATM    2  N   UNL     1      41.988 -14.691   1.913  1.00  0.00    -0.242 N 
HETATM    3  O   UNL     1      43.811 -13.887   3.095  1.00  0.00    -0.264 OA
HETATM    4  H   UNL     1      41.501 -15.526   1.619  1.00  0.00     0.192 HD
ENDROOT
BRANCH   1   5
HETATM    5  C   UNL     1      43.411 -16.174   3.140  1.00  0.00     0.127 A 
HETATM    6  C   UNL     1      43.718 -17.373   2.502  1.00  0.00     0.003 A 
HETATM    7  C   UNL     1      43.920 -17.631   1.051  1.00  0.00     0.053 C 
HETATM    8  C   UNL     1      43.850 -18.332   3.565  1.00  0.00     0.095 A 
HETATM    9  N   UNL     1      43.720 -17.741   4.760  1.00  0.00    -0.173 NA
HETATM   10  N   UNL     1      43.487 -16.458   4.477  1.00  0.00    -0.272 N 
HETATM   11  H   UNL     1      43.368 -15.800   5.242  1.00  0.00     0.189 HD
BRANCH   8  12
HETATM   12  C   UNL     1      44.118 -19.769   3.477  1.00  0.00    -0.005 A 
HETATM   13  C   UNL     1      43.856 -20.482   2.300  1.00  0.00     0.014 A 
HETATM   14  C   UNL     1      44.118 -21.853   2.229  1.00  0.00     0.001 A 
HETATM   15  C   UNL     1      44.633 -22.524   3.337  1.00  0.00     0.000 A 
HETATM   16  C   UNL     1      44.883 -21.828   4.518  1.00  0.00     0.001 A 
HETATM   17  C   UNL     1      44.623 -20.457   4.589  1.00  0.00     0.014 A 
ENDBRANCH   8  12
ENDBRANCH   1   5
BRANCH   2  18
HETATM   18  N   UNL     1      41.545 -13.562   1.270  1.00  0.00    -0.183 NA
HETATM   19  C   UNL     1      41.573 -13.498  -0.023  1.00  0.00     0.153 C 
BRANCH  19  20
HETATM   20  C   UNL     1      41.048 -12.321  -0.698  1.00  0.00     0.018 A 
HETATM   21  C   UNL     1      41.826 -11.210  -1.171  1.00  0.00     0.004 A 
HETATM   22  C   UNL     1      40.948 -10.303  -1.762  1.00  0.00     0.043 A 
HETATM   23  C   UNL     1      43.202 -10.891  -1.152  1.00  0.00     0.014 A 
HETATM   24  C   UNL     1      41.370  -9.096  -2.333  1.00  0.00     0.030 A 
HETATM   25  N   UNL     1      39.686 -10.835  -1.656  1.00  0.00    -0.358 N 
HETATM   26  C   UNL     1      42.736  -8.806  -2.300  1.00  0.00     0.002 A 
HETATM   27  C   UNL     1      43.642  -9.688  -1.718  1.00  0.00     0.001 A 
HETATM   28  H   UNL     1      38.850 -10.388  -2.005  1.00  0.00     0.166 HD
HETATM   29  C   UNL     1      39.723 -12.051  -1.019  1.00  0.00     0.018 A 
HETATM   30  C   UNL     1      38.478 -12.832  -0.791  1.00  0.00     0.069 C 
ENDBRANCH  19  20
ENDBRANCH   2  18
TORSDOF 4
ENDMDL
MODEL 8
REMARK VINA RESULT:      -8.5      7.780     10.968
REMARK  4 active torsions:
REMARK  status: ('A' for Active; 'I' for Inactive)
REMARK    1  A    between atoms: C_3  and  C_4 
REMARK       I    between atoms: C_4  and  N_5 
REMARK    2  A    between atoms: N_5  and  N_6 
REMARK    3  A    between atoms: C_7  and  C_8 
REMARK    4  A    between atoms: C_23  and  C_24 
ROOT
HETATM    1  C   UNL     1      42.020 -15.484   1.094  1.00  0.00     0.290 C 
HETATM    2  N   UNL     1      41.342 -15.645  -0.105  1.00  0.00    -0.242 N 
HETATM    3  O   UNL     1      42.048 -14.442   1.744  1.00  0.00    -0.264 OA
HETATM    4  H   UNL     1      41.413 -16.529  -0.588  1.00  0.00     0.192 HD
ENDROOT
BRANCH   1   5
HETATM    5  C   UNL     1      42.693 -16.667   1.586  1.00  0.00     0.127 A 
HETATM    6  C   UNL     1      42.578 -17.486   2.706  1.00  0.00     0.003 A 
HETATM    7  C   UNL     1      41.580 -17.424   3.807  1.00  0.00     0.053 C 
HETATM    8  C   UNL     1      43.622 -18.463   2.556  1.00  0.00     0.095 A 
HETATM    9  N   UNL     1      44.264 -18.301   1.391  1.00  0.00    -0.173 NA
HETATM   10  N   UNL     1      43.674 -17.246   0.827  1.00  0.00    -0.272 N 
HETATM   11  H   UNL     1      43.989 -16.939  -0.089  1.00  0.00     0.189 HD
BRANCH   8  12
HETATM   12  C   UNL     1      44.004 -19.545   3.465  1.00  0.00    -0.005 A 
HETATM   13  C   UNL     1      44.071 -19.337   4.849  1.00  0.00     0.014 A 
HETATM   14  C   UNL     1      44.436 -20.379   5.706  1.00  0.00     0.001 A 
HETATM   15  C   UNL     1      44.746 -21.635   5.185  1.00  0.00     0.000 A 
HETATM   16  C   UNL     1      44.698 -21.850   3.810  1.00  0.00     0.001 A 
HETATM   17  C   UNL     1      44.332 -20.808   2.953  1.00  0.00     0.014 A 
ENDBRANCH   8  12
ENDBRANCH   1   5
BRANCH   2  18
HETATM   18  N   UNL     1      40.730 -14.674  -0.860  1.00  0.00    -0.183 NA
HETATM   19  C   UNL     1      41.063 -14.511  -2.100  1.00  0.00     0.153 C 
BRANCH  19  20
HETATM   20  C   UNL     1      40.369 -13.519  -2.908  1.00  0.00     0.018 A 
HETATM   21  C   UNL     1      40.977 -12.383  -3.543  1.00  0.00     0.004 A 
HETATM   22  C   UNL     1      39.973 -11.694  -4.222  1.00  0.00     0.043 A 
HETATM   23  C   UNL     1      42.293 -11.875  -3.605  1.00  0.00     0.014 A 
HETATM   24  C   UNL     1      40.213 -10.527  -4.957  1.00  0.00     0.030 A 
HETATM   25  N   UNL     1      38.801 -12.379  -4.012  1.00  0.00    -0.358 N 
HETATM   26  C   UNL     1      41.525 -10.046  -5.001  1.00  0.00     0.002 A 
HETATM   27  C   UNL     1      42.552 -10.708  -4.335  1.00  0.00     0.001 A 
HETATM   28  H   UNL     1      37.906 -12.103  -4.393  1.00  0.00     0.166 HD
HETATM   29  C   UNL     1      39.016 -13.482  -3.224  1.00  0.00     0.018 A 
HETATM   30  C   UNL     1      37.898 -14.392  -2.860  1.00  0.00     0.069 C 
ENDBRANCH  19  20
ENDBRANCH   2  18
TORSDOF 4
ENDMDL
MODEL 9
REMARK VINA RESULT:      -8.5      3.544      4.356
REMARK  4 active torsions:
REMARK  status: ('A' for Active; 'I' for Inactive)
REMARK    1  A    between atoms: C_3  and  C_4 
REMARK       I    between atoms: C_4  and  N_5 
REMARK    2  A    between atoms: N_5  and  N_6 
REMARK    3  A    between atoms: C_7  and  C_8 
REMARK    4  A    between atoms: C_23  and  C_24 
ROOT
HETATM    1  C   UNL     1      39.467 -11.898   6.812  1.00  0.00     0.290 C 
HETATM    2  N   UNL     1      39.744 -13.242   6.608  1.00  0.00    -0.242 N 
HETATM    3  O   UNL     1      38.904 -11.172   5.997  1.00  0.00    -0.264 OA
HETATM    4  H   UNL     1      40.250 -13.747   7.322  1.00  0.00     0.192 HD
ENDROOT
BRANCH   1   5
HETATM    5  C   UNL     1      39.856 -11.377   8.105  1.00  0.00     0.127 A 
HETATM    6  C   UNL     1      41.046 -10.956   8.692  1.00  0.00     0.003 A 
HETATM    7  C   UNL     1      42.396 -10.835   8.079  1.00  0.00     0.053 C 
HETATM    8  C   UNL     1      40.687 -10.606  10.039  1.00  0.00     0.095 A 
HETATM    9  N   UNL     1      39.366 -10.723  10.227  1.00  0.00    -0.173 NA
HETATM   10  N   UNL     1      38.897 -11.157   9.056  1.00  0.00    -0.272 N 
HETATM   11  H   UNL     1      37.897 -11.306   8.953  1.00  0.00     0.189 HD
BRANCH   8  12
HETATM   12  C   UNL     1      41.550 -10.145  11.129  1.00  0.00    -0.005 A 
HETATM   13  C   UNL     1      41.737  -8.779  11.374  1.00  0.00     0.014 A 
HETATM   14  C   UNL     1      42.562  -8.352  12.419  1.00  0.00     0.001 A 
HETATM   15  C   UNL     1      43.215  -9.289  13.219  1.00  0.00     0.000 A 
HETATM   16  C   UNL     1      43.048 -10.650  12.975  1.00  0.00     0.001 A 
HETATM   17  C   UNL     1      42.222 -11.077  11.932  1.00  0.00     0.014 A 
ENDBRANCH   8  12
ENDBRANCH   1   5
BRANCH   2  18
HETATM   18  N   UNL     1      39.603 -13.962   5.447  1.00  0.00    -0.183 NA
HETATM   19  C   UNL     1      40.561 -13.985   4.577  1.00  0.00     0.153 C 
BRANCH  19  20
HETATM   20  C   UNL     1      40.427 -14.795   3.376  1.00  0.00     0.018 A 
HETATM   21  C   UNL     1      41.146 -16.007   3.099  1.00  0.00     0.004 A 
HETATM   22  C   UNL     1      40.722 -16.473   1.855  1.00  0.00     0.043 A 
HETATM   23  C   UNL     1      42.121 -16.756   3.794  1.00  0.00     0.014 A 
HETATM   24  C   UNL     1      41.220 -17.643   1.269  1.00  0.00     0.030 A 
HETATM   25  N   UNL     1      39.784 -15.583   1.390  1.00  0.00    -0.358 N 
HETATM   26  C   UNL     1      42.184 -18.364   1.978  1.00  0.00     0.002 A 
HETATM   27  C   UNL     1      42.631 -17.929   3.223  1.00  0.00     0.001 A 
HETATM   28  H   UNL     1      39.303 -15.676   0.506  1.00  0.00     0.166 HD
HETATM   29  C   UNL     1      39.590 -14.566   2.291  1.00  0.00     0.018 A 
HETATM   30  C   UNL     1      38.612 -13.479   2.017  1.00  0.00     0.069 C 
ENDBRANCH  19  20
ENDBRANCH   2  18
TORSDOF 4
ENDMDL
MODEL 10
REMARK VINA RESULT:      -8.2      2.087      3.095
REMARK  4 active torsions:
REMARK  status: ('A' for Active; 'I' for Inactive)
REMARK    1  A    between atoms: C_3  and  C_4 
REMARK       I    between atoms: C_4  and  N_5 
REMARK    2  A    between atoms: N_5  and  N_6 
REMARK    3  A    between atoms: C_7  and  C_8 
REMARK    4  A    between atoms: C_23  and  C_24 
ROOT
HETATM    1  C   UNL     1      41.979 -11.501   6.789  1.00  0.00     0.290 C 
HETATM    2  N   UNL     1      42.588 -12.745   6.720  1.00  0.00    -0.242 N 
HETATM    3  O   UNL     1      41.530 -10.890   5.822  1.00  0.00    -0.264 OA
HETATM    4  H   UNL     1      42.964 -13.149   7.566  1.00  0.00     0.192 HD
ENDROOT
BRANCH   1   5
HETATM    5  C   UNL     1      41.859 -10.946   8.120  1.00  0.00     0.127 A 
HETATM    6  C   UNL     1      42.691 -10.829   9.230  1.00  0.00     0.003 A 
HETATM    7  C   UNL     1      44.123 -11.212   9.366  1.00  0.00     0.053 C 
HETATM    8  C   UNL     1      41.879 -10.199  10.235  1.00  0.00     0.095 A 
HETATM    9  N   UNL     1      40.674  -9.881   9.744  1.00  0.00    -0.173 NA
HETATM   10  N   UNL     1      40.701 -10.312   8.481  1.00  0.00    -0.272 N 
HETATM   11  H   UNL     1      39.885 -10.163   7.894  1.00  0.00     0.189 HD
BRANCH   8  12
HETATM   12  C   UNL     1      42.220  -9.875  11.621  1.00  0.00    -0.005 A 
HETATM   13  C   UNL     1      42.610  -8.579  11.985  1.00  0.00     0.014 A 
HETATM   14  C   UNL     1      42.932  -8.282  13.312  1.00  0.00     0.001 A 
HETATM   15  C   UNL     1      42.877  -9.280  14.284  1.00  0.00     0.000 A 
HETATM   16  C   UNL     1      42.505 -10.575  13.931  1.00  0.00     0.001 A 
HETATM   17  C   UNL     1      42.182 -10.872  12.605  1.00  0.00     0.014 A 
ENDBRANCH   8  12
ENDBRANCH   1   5
BRANCH   2  18
HETATM   18  N   UNL     1      42.944 -13.444   5.592  1.00  0.00    -0.183 NA
HETATM   19  C   UNL     1      42.313 -14.528   5.275  1.00  0.00     0.153 C 
BRANCH  19  20
HETATM   20  C   UNL     1      42.659 -15.231   4.049  1.00  0.00     0.018 A 
HETATM   21  C   UNL     1      43.134 -16.584   3.964  1.00  0.00     0.004 A 
HETATM   22  C   UNL     1      43.340 -16.875   2.617  1.00  0.00     0.043 A 
HETATM   23  C   UNL     1      43.406 -17.595   4.913  1.00  0.00     0.014 A 
HETATM   24  C   UNL     1      43.803 -18.117   2.167  1.00  0.00     0.030 A 
HETATM   25  N   UNL     1      43.006 -15.748   1.906  1.00  0.00    -0.358 N 
HETATM   26  C   UNL     1      44.066 -19.098   3.127  1.00  0.00     0.002 A 
HETATM   27  C   UNL     1      43.872 -18.843   4.482  1.00  0.00     0.001 A 
HETATM   28  H   UNL     1      43.057 -15.676   0.899  1.00  0.00     0.166 HD
HETATM   29  C   UNL     1      42.593 -14.746   2.748  1.00  0.00     0.018 A 
HETATM   30  C   UNL     1      42.170 -13.423   2.214  1.00  0.00     0.069 C 
ENDBRANCH  19  20
ENDBRANCH   2  18
TORSDOF 4
ENDMDL
