MODEL 1
REMARK VINA RESULT:      -9.3      0.000      0.000
REMARK  7 active torsions:
REMARK  status: ('A' for Active; 'I' for Inactive)
REMARK    1  A    between atoms: O_2  and  C_3 
REMARK    2  A    between atoms: C_6  and  C_7 
REMARK    3  A    between atoms: C_11  and  C_12 
REMARK       I    between atoms: C_12  and  N_13 
REMARK    4  A    between atoms: N_13  and  N_14 
REMARK       I    between atoms: N_14  and  C_15 
REMARK    5  A    between atoms: C_15  and  C_16 
REMARK    6  A    between atoms: C_16  and  C_17 
REMARK    7  A    between atoms: C_17  and  C_18 
ROOT
HETATM    1  C   UNL     1      42.764 -13.299   6.161  1.00  0.00     0.288 C 
HETATM    2  N   UNL     1      43.582 -13.303   7.269  1.00  0.00    -0.262 N 
HETATM    3  O   UNL     1      42.000 -12.365   5.920  1.00  0.00    -0.264 OA
HETATM    4  H   UNL     1      44.210 -14.065   7.512  1.00  0.00     0.190 HD
ENDROOT
BRANCH   1   5
HETATM    5  C   UNL     1      42.875 -14.448   5.307  1.00  0.00     0.121 A 
HETATM    6  N   UNL     1      42.531 -14.401   3.985  1.00  0.00    -0.272 N 
HETATM    7  N   UNL     1      42.748 -15.544   3.319  1.00  0.00    -0.174 NA
HETATM    8  H   UNL     1      42.156 -13.603   3.482  1.00  0.00     0.189 HD
HETATM    9  C   UNL     1      43.240 -16.387   4.240  1.00  0.00     0.089 A 
HETATM   10  C   UNL     1      43.321 -15.740   5.506  1.00  0.00     0.071 A 
BRANCH   9  11
HETATM   11  C   UNL     1      43.649 -17.753   3.899  1.00  0.00    -0.005 A 
HETATM   12  C   UNL     1      44.369 -18.528   4.819  1.00  0.00     0.016 A 
HETATM   13  C   UNL     1      44.722 -19.851   4.529  1.00  0.00     0.037 A 
HETATM   14  C   UNL     1      44.363 -20.419   3.308  1.00  0.00     0.068 A 
HETATM   15  C   UNL     1      43.670 -19.645   2.375  1.00  0.00     0.037 A 
HETATM   16  C   UNL     1      43.312 -18.324   2.666  1.00  0.00     0.016 A 
BRANCH  14  17
HETATM   17  O   UNL     1      44.632 -21.699   2.906  1.00  0.00    -0.356 OA
HETATM   18  C   UNL     1      44.238 -22.047   1.585  1.00  0.00     0.210 C 
ENDBRANCH  14  17
ENDBRANCH   9  11
ENDBRANCH   1   5
BRANCH   2  19
HETATM   19  N   UNL     1      43.569 -12.205   8.133  1.00  0.00    -0.267 N 
HETATM   20  C   UNL     1      44.665 -12.009   8.943  1.00  0.00     0.236 C 
HETATM   21  O   UNL     1      45.614 -12.790   8.969  1.00  0.00    -0.272 OA
HETATM   22  H   UNL     1      42.809 -11.536   8.019  1.00  0.00     0.190 HD
BRANCH  20  23
HETATM   23  C   UNL     1      44.619 -10.751   9.779  1.00  0.00     0.109 C 
BRANCH  23  24
HETATM   24  C   UNL     1      44.802 -11.056  11.264  1.00  0.00     0.048 C 
BRANCH  24  25
HETATM   25  C   UNL     1      43.641 -10.679  12.161  1.00  0.00    -0.056 A 
HETATM   26  C   UNL     1      42.457 -11.434  12.084  1.00  0.00     0.031 A 
HETATM   27  C   UNL     1      41.376 -11.149  12.919  1.00  0.00     0.034 A 
HETATM   28 CL   UNL     1      39.937 -12.087  12.803  1.00  0.00    -0.084 Cl
HETATM   29  C   UNL     1      41.454 -10.117  13.849  1.00  0.00     0.024 A 
HETATM   30  C   UNL     1      42.626  -9.370  13.946  1.00  0.00     0.002 A 
HETATM   31  C   UNL     1      43.713  -9.653  13.113  1.00  0.00     0.007 A 
ENDBRANCH  24  25
ENDBRANCH  23  24
ENDBRANCH  20  23
ENDBRANCH   2  19
TORSDOF 7
ENDMDL
MODEL 2
REMARK VINA RESULT:      -8.5      2.594      3.103
REMARK  7 active torsions:
REMARK  status: ('A' for Active; 'I' for Inactive)
REMARK    1  A    between atoms: O_2  and  C_3 
REMARK    2  A    between atoms: C_6  and  C_7 
REMARK    3  A    between atoms: C_11  and  C_12 
REMARK       I    between atoms: C_12  and  N_13 
REMARK    4  A    between atoms: N_13  and  N_14 
REMARK       I    between atoms: N_14  and  C_15 
REMARK    5  A    between atoms: C_15  and  C_16 
REMARK    6  A    between atoms: C_16  and  C_17 
REMARK    7  A    between atoms: C_17  and  C_18 
ROOT
HETATM    1  C   UNL     1      39.718 -13.737   5.280  1.00  0.00     0.288 C 
HETATM    2  N   UNL     1      39.958 -13.748   6.636  1.00  0.00    -0.262 N 
HETATM    3  O   UNL     1      39.085 -12.832   4.738  1.00  0.00    -0.264 OA
HETATM    4  H   UNL     1      40.458 -14.488   7.121  1.00  0.00     0.190 HD
ENDROOT
BRANCH   1   5
HETATM    5  C   UNL     1      40.268 -14.843   4.547  1.00  0.00     0.121 A 
HETATM    6  N   UNL     1      39.851 -15.151   3.282  1.00  0.00    -0.272 N 
HETATM    7  N   UNL     1      40.505 -16.177   2.720  1.00  0.00    -0.174 NA
HETATM    8  H   UNL     1      39.130 -14.677   2.747  1.00  0.00     0.189 HD
HETATM    9  C   UNL     1      41.379 -16.577   3.658  1.00  0.00     0.089 A 
HETATM   10  C   UNL     1      41.250 -15.773   4.826  1.00  0.00     0.071 A 
BRANCH   9  11
HETATM   11  C   UNL     1      42.324 -17.671   3.416  1.00  0.00    -0.005 A 
HETATM   12  C   UNL     1      43.111 -18.172   4.464  1.00  0.00     0.016 A 
HETATM   13  C   UNL     1      43.981 -19.250   4.262  1.00  0.00     0.037 A 
HETATM   14  C   UNL     1      44.081 -19.842   3.005  1.00  0.00     0.068 A 
HETATM   15  C   UNL     1      43.323 -19.331   1.949  1.00  0.00     0.037 A 
HETATM   16  C   UNL     1      42.449 -18.257   2.151  1.00  0.00     0.016 A 
BRANCH  14  17
HETATM   17  O   UNL     1      44.878 -20.904   2.677  1.00  0.00    -0.356 OA
HETATM   18  C   UNL     1      44.306 -21.891   1.827  1.00  0.00     0.210 C 
ENDBRANCH  14  17
ENDBRANCH   9  11
ENDBRANCH   1   5
BRANCH   2  19
HETATM   19  N   UNL     1      39.494 -12.689   7.420  1.00  0.00    -0.267 N 
HETATM   20  C   UNL     1      40.279 -11.561   7.509  1.00  0.00     0.236 C 
HETATM   21  O   UNL     1      41.383 -11.481   6.975  1.00  0.00    -0.272 OA
HETATM   22  H   UNL     1      38.541 -12.757   7.772  1.00  0.00     0.190 HD
BRANCH  20  23
HETATM   23  C   UNL     1      39.668 -10.424   8.295  1.00  0.00     0.109 C 
BRANCH  23  24
HETATM   24  C   UNL     1      40.738  -9.576   8.981  1.00  0.00     0.048 C 
BRANCH  24  25
HETATM   25  C   UNL     1      41.502 -10.258  10.096  1.00  0.00    -0.056 A 
HETATM   26  C   UNL     1      42.896 -10.394   9.973  1.00  0.00     0.031 A 
HETATM   27  C   UNL     1      43.648 -10.978  10.994  1.00  0.00     0.034 A 
HETATM   28 CL   UNL     1      45.353 -11.134  10.818  1.00  0.00    -0.084 Cl
HETATM   29  C   UNL     1      43.030 -11.429  12.156  1.00  0.00     0.024 A 
HETATM   30  C   UNL     1      41.651 -11.289  12.298  1.00  0.00     0.002 A 
HETATM   31  C   UNL     1      40.894 -10.701  11.279  1.00  0.00     0.007 A 
ENDBRANCH  24  25
ENDBRANCH  23  24
ENDBRANCH  20  23
ENDBRANCH   2  19
TORSDOF 7
ENDMDL
MODEL 3
REMARK VINA RESULT:      -8.3      2.043      2.823
REMARK  7 active torsions:
REMARK  status: ('A' for Active; 'I' for Inactive)
REMARK    1  A    between atoms: O_2  and  C_3 
REMARK    2  A    between atoms: C_6  and  C_7 
REMARK    3  A    between atoms: C_11  and  C_12 
REMARK       I    between atoms: C_12  and  N_13 
REMARK    4  A    between atoms: N_13  and  N_14 
REMARK       I    between atoms: N_14  and  C_15 
REMARK    5  A    between atoms: C_15  and  C_16 
REMARK    6  A    between atoms: C_16  and  C_17 
REMARK    7  A    between atoms: C_17  and  C_18 
ROOT
HETATM    1  C   UNL     1      42.925 -13.508   6.199  1.00  0.00     0.288 C 
HETATM    2  N   UNL     1      41.762 -12.771   6.193  1.00  0.00    -0.262 N 
HETATM    3  O   UNL     1      43.848 -13.260   6.974  1.00  0.00    -0.264 OA
HETATM    4  H   UNL     1      40.987 -12.932   5.555  1.00  0.00     0.190 HD
ENDROOT
BRANCH   1   5
HETATM    5  C   UNL     1      42.978 -14.585   5.252  1.00  0.00     0.121 A 
HETATM    6  N   UNL     1      42.736 -14.389   3.921  1.00  0.00    -0.272 N 
HETATM    7  N   UNL     1      42.881 -15.488   3.167  1.00  0.00    -0.174 NA
HETATM    8  H   UNL     1      42.485 -13.514   3.470  1.00  0.00     0.189 HD
HETATM    9  C   UNL     1      43.214 -16.455   4.036  1.00  0.00     0.089 A 
HETATM   10  C   UNL     1      43.270 -15.931   5.358  1.00  0.00     0.071 A 
BRANCH   9  11
HETATM   11  C   UNL     1      43.501 -17.824   3.596  1.00  0.00    -0.005 A 
HETATM   12  C   UNL     1      43.188 -18.229   2.291  1.00  0.00     0.016 A 
HETATM   13  C   UNL     1      43.502 -19.517   1.840  1.00  0.00     0.037 A 
HETATM   14  C   UNL     1      44.132 -20.422   2.691  1.00  0.00     0.068 A 
HETATM   15  C   UNL     1      44.422 -20.036   4.001  1.00  0.00     0.037 A 
HETATM   16  C   UNL     1      44.113 -18.747   4.452  1.00  0.00     0.016 A 
BRANCH  14  17
HETATM   17  O   UNL     1      44.505 -21.699   2.374  1.00  0.00    -0.356 OA
HETATM   18  C   UNL     1      44.644 -22.610   3.457  1.00  0.00     0.210 C 
ENDBRANCH  14  17
ENDBRANCH   9  11
ENDBRANCH   1   5
BRANCH   2  19
HETATM   19  N   UNL     1      41.608 -11.728   7.110  1.00  0.00    -0.267 N 
HETATM   20  C   UNL     1      40.328 -11.378   7.480  1.00  0.00     0.236 C 
HETATM   21  O   UNL     1      39.332 -11.909   6.992  1.00  0.00    -0.272 OA
HETATM   22  H   UNL     1      42.453 -11.376   7.556  1.00  0.00     0.190 HD
BRANCH  20  23
HETATM   23  C   UNL     1      40.245 -10.310   8.545  1.00  0.00     0.109 C 
BRANCH  23  24
HETATM   24  C   UNL     1      40.225 -10.914   9.947  1.00  0.00     0.048 C 
BRANCH  24  25
HETATM   25  C   UNL     1      41.409 -10.573  10.828  1.00  0.00    -0.056 A 
HETATM   26  C   UNL     1      42.690 -10.990  10.426  1.00  0.00     0.031 A 
HETATM   27  C   UNL     1      43.815 -10.664  11.185  1.00  0.00     0.034 A 
HETATM   28 CL   UNL     1      45.372 -11.188  10.671  1.00  0.00    -0.084 Cl
HETATM   29  C   UNL     1      43.688  -9.912  12.349  1.00  0.00     0.024 A 
HETATM   30  C   UNL     1      42.427  -9.481  12.752  1.00  0.00     0.002 A 
HETATM   31  C   UNL     1      41.296  -9.803  11.994  1.00  0.00     0.007 A 
ENDBRANCH  24  25
ENDBRANCH  23  24
ENDBRANCH  20  23
ENDBRANCH   2  19
TORSDOF 7
ENDMDL
MODEL 4
REMARK VINA RESULT:      -8.2      1.923      2.783
REMARK  7 active torsions:
REMARK  status: ('A' for Active; 'I' for Inactive)
REMARK    1  A    between atoms: O_2  and  C_3 
REMARK    2  A    between atoms: C_6  and  C_7 
REMARK    3  A    between atoms: C_11  and  C_12 
REMARK       I    between atoms: C_12  and  N_13 
REMARK    4  A    between atoms: N_13  and  N_14 
REMARK       I    between atoms: N_14  and  C_15 
REMARK    5  A    between atoms: C_15  and  C_16 
REMARK    6  A    between atoms: C_16  and  C_17 
REMARK    7  A    between atoms: C_17  and  C_18 
ROOT
HETATM    1  C   UNL     1      41.866 -12.613   5.094  1.00  0.00     0.288 C 
HETATM    2  N   UNL     1      41.685 -12.815   6.445  1.00  0.00    -0.262 N 
HETATM    3  O   UNL     1      41.799 -11.493   4.590  1.00  0.00    -0.264 OA
HETATM    4  H   UNL     1      41.712 -13.727   6.895  1.00  0.00     0.190 HD
ENDROOT
BRANCH   1   5
HETATM    5  C   UNL     1      42.148 -13.793   4.327  1.00  0.00     0.121 A 
HETATM    6  N   UNL     1      42.147 -13.783   2.960  1.00  0.00    -0.272 N 
HETATM    7  N   UNL     1      42.486 -14.952   2.399  1.00  0.00    -0.174 NA
HETATM    8  H   UNL     1      41.938 -12.992   2.357  1.00  0.00     0.189 HD
HETATM    9  C   UNL     1      42.702 -15.777   3.437  1.00  0.00     0.089 A 
HETATM   10  C   UNL     1      42.485 -15.089   4.665  1.00  0.00     0.071 A 
BRANCH   9  11
HETATM   11  C   UNL     1      43.136 -17.163   3.245  1.00  0.00    -0.005 A 
HETATM   12  C   UNL     1      42.973 -17.791   2.002  1.00  0.00     0.016 A 
HETATM   13  C   UNL     1      43.428 -19.098   1.788  1.00  0.00     0.037 A 
HETATM   14  C   UNL     1      44.051 -19.800   2.818  1.00  0.00     0.068 A 
HETATM   15  C   UNL     1      44.192 -19.192   4.067  1.00  0.00     0.037 A 
HETATM   16  C   UNL     1      43.742 -17.884   4.281  1.00  0.00     0.016 A 
BRANCH  14  17
HETATM   17  O   UNL     1      44.552 -21.070   2.738  1.00  0.00    -0.356 OA
HETATM   18  C   UNL     1      44.118 -21.858   1.636  1.00  0.00     0.210 C 
ENDBRANCH  14  17
ENDBRANCH   9  11
ENDBRANCH   1   5
BRANCH   2  19
HETATM   19  N   UNL     1      41.446 -11.716   7.274  1.00  0.00    -0.267 N 
HETATM   20  C   UNL     1      40.151 -11.487   7.682  1.00  0.00     0.236 C 
HETATM   21  O   UNL     1      39.206 -12.175   7.298  1.00  0.00    -0.272 OA
HETATM   22  H   UNL     1      42.261 -11.227   7.640  1.00  0.00     0.190 HD
BRANCH  20  23
HETATM   23  C   UNL     1      39.985 -10.341   8.653  1.00  0.00     0.109 C 
BRANCH  23  24
HETATM   24  C   UNL     1      40.022 -10.823  10.102  1.00  0.00     0.048 C 
BRANCH  24  25
HETATM   25  C   UNL     1      41.292 -10.513  10.866  1.00  0.00    -0.056 A 
HETATM   26  C   UNL     1      41.246 -10.491  12.271  1.00  0.00     0.031 A 
HETATM   27  C   UNL     1      42.400 -10.251  13.018  1.00  0.00     0.034 A 
HETATM   28 CL   UNL     1      42.315 -10.228  14.737  1.00  0.00    -0.084 Cl
HETATM   29  C   UNL     1      43.620 -10.038  12.384  1.00  0.00     0.024 A 
HETATM   30  C   UNL     1      43.684 -10.070  10.993  1.00  0.00     0.002 A 
HETATM   31  C   UNL     1      42.531 -10.313  10.240  1.00  0.00     0.007 A 
ENDBRANCH  24  25
ENDBRANCH  23  24
ENDBRANCH  20  23
ENDBRANCH   2  19
TORSDOF 7
ENDMDL
MODEL 5
REMARK VINA RESULT:      -8.1      8.057     11.588
REMARK  7 active torsions:
REMARK  status: ('A' for Active; 'I' for Inactive)
REMARK    1  A    between atoms: O_2  and  C_3 
REMARK    2  A    between atoms: C_6  and  C_7 
REMARK    3  A    between atoms: C_11  and  C_12 
REMARK       I    between atoms: C_12  and  N_13 
REMARK    4  A    between atoms: N_13  and  N_14 
REMARK       I    between atoms: N_14  and  C_15 
REMARK    5  A    between atoms: C_15  and  C_16 
REMARK    6  A    between atoms: C_16  and  C_17 
REMARK    7  A    between atoms: C_17  and  C_18 
ROOT
HETATM    1  C   UNL     1      41.018 -15.120  -0.466  1.00  0.00     0.288 C 
HETATM    2  N   UNL     1      40.779 -16.255   0.277  1.00  0.00    -0.262 N 
HETATM    3  O   UNL     1      41.945 -14.355  -0.203  1.00  0.00    -0.264 OA
HETATM    4  H   UNL     1      40.011 -16.899   0.103  1.00  0.00     0.190 HD
ENDROOT
BRANCH   1   5
HETATM    5  C   UNL     1      40.124 -14.903  -1.568  1.00  0.00     0.121 A 
HETATM    6  N   UNL     1      40.195 -15.648  -2.712  1.00  0.00    -0.272 N 
HETATM    7  N   UNL     1      39.252 -15.356  -3.619  1.00  0.00    -0.174 NA
HETATM    8  H   UNL     1      40.862 -16.385  -2.918  1.00  0.00     0.189 HD
HETATM    9  C   UNL     1      38.538 -14.365  -3.061  1.00  0.00     0.089 A 
HETATM   10  C   UNL     1      39.065 -14.042  -1.777  1.00  0.00     0.071 A 
BRANCH   9  11
HETATM   11  C   UNL     1      37.372 -13.780  -3.729  1.00  0.00    -0.005 A 
HETATM   12  C   UNL     1      36.471 -14.598  -4.426  1.00  0.00     0.016 A 
HETATM   13  C   UNL     1      35.326 -14.062  -5.027  1.00  0.00     0.037 A 
HETATM   14  C   UNL     1      35.065 -12.696  -4.942  1.00  0.00     0.068 A 
HETATM   15  C   UNL     1      35.972 -11.871  -4.274  1.00  0.00     0.037 A 
HETATM   16  C   UNL     1      37.115 -12.405  -3.668  1.00  0.00     0.016 A 
BRANCH  14  17
HETATM   17  O   UNL     1      33.981 -12.049  -5.469  1.00  0.00    -0.356 OA
HETATM   18  C   UNL     1      33.812 -12.133  -6.879  1.00  0.00     0.210 C 
ENDBRANCH  14  17
ENDBRANCH   9  11
ENDBRANCH   1   5
BRANCH   2  19
HETATM   19  N   UNL     1      41.625 -16.565   1.344  1.00  0.00    -0.267 N 
HETATM   20  C   UNL     1      41.192 -16.270   2.617  1.00  0.00     0.236 C 
HETATM   21  O   UNL     1      40.125 -15.698   2.835  1.00  0.00    -0.272 OA
HETATM   22  H   UNL     1      42.455 -17.115   1.131  1.00  0.00     0.190 HD
BRANCH  20  23
HETATM   23  C   UNL     1      42.117 -16.721   3.723  1.00  0.00     0.109 C 
BRANCH  23  24
HETATM   24  C   UNL     1      43.484 -17.133   3.179  1.00  0.00     0.048 C 
BRANCH  24  25
HETATM   25  C   UNL     1      43.907 -18.557   3.473  1.00  0.00    -0.056 A 
HETATM   26  C   UNL     1      43.831 -19.509   2.440  1.00  0.00     0.031 A 
HETATM   27  C   UNL     1      44.248 -20.824   2.653  1.00  0.00     0.034 A 
HETATM   28 CL   UNL     1      44.144 -21.970   1.373  1.00  0.00    -0.084 Cl
HETATM   29  C   UNL     1      44.755 -21.213   3.889  1.00  0.00     0.024 A 
HETATM   30  C   UNL     1      44.849 -20.278   4.916  1.00  0.00     0.002 A 
HETATM   31  C   UNL     1      44.435 -18.958   4.708  1.00  0.00     0.007 A 
ENDBRANCH  24  25
ENDBRANCH  23  24
ENDBRANCH  20  23
ENDBRANCH   2  19
TORSDOF 7
ENDMDL
MODEL 6
REMARK VINA RESULT:      -8.0      8.234     11.981
REMARK  7 active torsions:
REMARK  status: ('A' for Active; 'I' for Inactive)
REMARK    1  A    between atoms: O_2  and  C_3 
REMARK    2  A    between atoms: C_6  and  C_7 
REMARK    3  A    between atoms: C_11  and  C_12 
REMARK       I    between atoms: C_12  and  N_13 
REMARK    4  A    between atoms: N_13  and  N_14 
REMARK       I    between atoms: N_14  and  C_15 
REMARK    5  A    between atoms: C_15  and  C_16 
REMARK    6  A    between atoms: C_16  and  C_17 
REMARK    7  A    between atoms: C_17  and  C_18 
ROOT
HETATM    1  C   UNL     1      40.912 -14.142  -0.350  1.00  0.00     0.288 C 
HETATM    2  N   UNL     1      41.315 -15.448  -0.520  1.00  0.00    -0.262 N 
HETATM    3  O   UNL     1      41.548 -13.350   0.345  1.00  0.00    -0.264 OA
HETATM    4  H   UNL     1      40.806 -16.136  -1.069  1.00  0.00     0.190 HD
ENDROOT
BRANCH   1   5
HETATM    5  C   UNL     1      39.714 -13.770  -1.049  1.00  0.00     0.121 A 
HETATM    6  N   UNL     1      38.837 -12.854  -0.540  1.00  0.00    -0.272 N 
HETATM    7  N   UNL     1      37.800 -12.579  -1.343  1.00  0.00    -0.174 NA
HETATM    8  H   UNL     1      38.910 -12.370   0.350  1.00  0.00     0.189 HD
HETATM    9  C   UNL     1      37.987 -13.359  -2.420  1.00  0.00     0.089 A 
HETATM   10  C   UNL     1      39.172 -14.133  -2.266  1.00  0.00     0.071 A 
BRANCH   9  11
HETATM   11  C   UNL     1      37.075 -13.327  -3.566  1.00  0.00    -0.005 A 
HETATM   12  C   UNL     1      36.733 -12.106  -4.166  1.00  0.00     0.016 A 
HETATM   13  C   UNL     1      35.903 -12.063  -5.293  1.00  0.00     0.037 A 
HETATM   14  C   UNL     1      35.398 -13.242  -5.836  1.00  0.00     0.068 A 
HETATM   15  C   UNL     1      35.711 -14.460  -5.228  1.00  0.00     0.037 A 
HETATM   16  C   UNL     1      36.544 -14.505  -4.105  1.00  0.00     0.016 A 
BRANCH  14  17
HETATM   17  O   UNL     1      34.592 -13.341  -6.937  1.00  0.00    -0.356 OA
HETATM   18  C   UNL     1      35.224 -13.703  -8.159  1.00  0.00     0.210 C 
ENDBRANCH  14  17
ENDBRANCH   9  11
ENDBRANCH   1   5
BRANCH   2  19
HETATM   19  N   UNL     1      42.493 -15.885   0.091  1.00  0.00    -0.267 N 
HETATM   20  C   UNL     1      42.410 -16.947   0.963  1.00  0.00     0.236 C 
HETATM   21  O   UNL     1      41.341 -17.477   1.259  1.00  0.00    -0.272 OA
HETATM   22  H   UNL     1      43.366 -15.482  -0.245  1.00  0.00     0.190 HD
BRANCH  20  23
HETATM   23  C   UNL     1      43.736 -17.424   1.510  1.00  0.00     0.109 C 
BRANCH  23  24
HETATM   24  C   UNL     1      43.563 -18.174   2.829  1.00  0.00     0.048 C 
BRANCH  24  25
HETATM   25  C   UNL     1      43.891 -19.652   2.794  1.00  0.00    -0.056 A 
HETATM   26  C   UNL     1      44.403 -20.257   3.955  1.00  0.00     0.031 A 
HETATM   27  C   UNL     1      44.682 -21.625   3.982  1.00  0.00     0.034 A 
HETATM   28 CL   UNL     1      45.310 -22.340   5.415  1.00  0.00    -0.084 Cl
HETATM   29  C   UNL     1      44.447 -22.415   2.861  1.00  0.00     0.024 A 
HETATM   30  C   UNL     1      43.927 -21.832   1.708  1.00  0.00     0.002 A 
HETATM   31  C   UNL     1      43.643 -20.463   1.677  1.00  0.00     0.007 A 
ENDBRANCH  24  25
ENDBRANCH  23  24
ENDBRANCH  20  23
ENDBRANCH   2  19
TORSDOF 7
ENDMDL
MODEL 7
REMARK VINA RESULT:      -7.8      7.413     10.075
REMARK  7 active torsions:
REMARK  status: ('A' for Active; 'I' for Inactive)
REMARK    1  A    between atoms: O_2  and  C_3 
REMARK    2  A    between atoms: C_6  and  C_7 
REMARK    3  A    between atoms: C_11  and  C_12 
REMARK       I    between atoms: C_12  and  N_13 
REMARK    4  A    between atoms: N_13  and  N_14 
REMARK       I    between atoms: N_14  and  C_15 
REMARK    5  A    between atoms: C_15  and  C_16 
REMARK    6  A    between atoms: C_16  and  C_17 
REMARK    7  A    between atoms: C_17  and  C_18 
ROOT
HETATM    1  C   UNL     1      41.485 -14.900  -0.315  1.00  0.00     0.288 C 
HETATM    2  N   UNL     1      40.266 -15.409  -0.704  1.00  0.00    -0.262 N 
HETATM    3  O   UNL     1      41.982 -13.915  -0.860  1.00  0.00    -0.264 OA
HETATM    4  H   UNL     1      39.833 -16.232  -0.293  1.00  0.00     0.190 HD
ENDROOT
BRANCH   1   5
HETATM    5  C   UNL     1      42.123 -15.588   0.772  1.00  0.00     0.121 A 
HETATM    6  N   UNL     1      42.286 -15.006   1.998  1.00  0.00    -0.272 N 
HETATM    7  N   UNL     1      42.849 -15.804   2.916  1.00  0.00    -0.174 NA
HETATM    8  H   UNL     1      42.013 -14.065   2.267  1.00  0.00     0.189 HD
HETATM    9  C   UNL     1      43.084 -16.956   2.267  1.00  0.00     0.089 A 
HETATM   10  C   UNL     1      42.655 -16.854   0.913  1.00  0.00     0.071 A 
BRANCH   9  11
HETATM   11  C   UNL     1      43.668 -18.118   2.943  1.00  0.00    -0.005 A 
HETATM   12  C   UNL     1      44.000 -18.054   4.304  1.00  0.00     0.016 A 
HETATM   13  C   UNL     1      44.511 -19.171   4.976  1.00  0.00     0.037 A 
HETATM   14  C   UNL     1      44.701 -20.371   4.294  1.00  0.00     0.068 A 
HETATM   15  C   UNL     1      44.400 -20.435   2.932  1.00  0.00     0.037 A 
HETATM   16  C   UNL     1      43.885 -19.321   2.260  1.00  0.00     0.016 A 
BRANCH  14  17
HETATM   17  O   UNL     1      45.177 -21.535   4.832  1.00  0.00    -0.356 OA
HETATM   18  C   UNL     1      44.705 -22.745   4.252  1.00  0.00     0.210 C 
ENDBRANCH  14  17
ENDBRANCH   9  11
ENDBRANCH   1   5
BRANCH   2  19
HETATM   19  N   UNL     1      39.556 -14.777  -1.728  1.00  0.00    -0.267 N 
HETATM   20  C   UNL     1      38.592 -13.859  -1.373  1.00  0.00     0.236 C 
HETATM   21  O   UNL     1      38.303 -13.626  -0.200  1.00  0.00    -0.272 OA
HETATM   22  H   UNL     1      39.883 -14.929  -2.680  1.00  0.00     0.190 HD
BRANCH  20  23
HETATM   23  C   UNL     1      37.935 -13.148  -2.533  1.00  0.00     0.109 C 
BRANCH  23  24
HETATM   24  C   UNL     1      38.353 -11.680  -2.600  1.00  0.00     0.048 C 
BRANCH  24  25
HETATM   25  C   UNL     1      39.836 -11.425  -2.764  1.00  0.00    -0.056 A 
HETATM   26  C   UNL     1      40.522 -10.755  -1.735  1.00  0.00     0.031 A 
HETATM   27  C   UNL     1      41.897 -10.533  -1.823  1.00  0.00     0.034 A 
HETATM   28 CL   UNL     1      42.713  -9.708  -0.551  1.00  0.00    -0.084 Cl
HETATM   29  C   UNL     1      42.615 -10.981  -2.928  1.00  0.00     0.024 A 
HETATM   30  C   UNL     1      41.952 -11.658  -3.948  1.00  0.00     0.002 A 
HETATM   31  C   UNL     1      40.574 -11.885  -3.863  1.00  0.00     0.007 A 
ENDBRANCH  24  25
ENDBRANCH  23  24
ENDBRANCH  20  23
ENDBRANCH   2  19
TORSDOF 7
ENDMDL
MODEL 8
REMARK VINA RESULT:      -7.7      6.998     10.698
REMARK  7 active torsions:
REMARK  status: ('A' for Active; 'I' for Inactive)
REMARK    1  A    between atoms: O_2  and  C_3 
REMARK    2  A    between atoms: C_6  and  C_7 
REMARK    3  A    between atoms: C_11  and  C_12 
REMARK       I    between atoms: C_12  and  N_13 
REMARK    4  A    between atoms: N_13  and  N_14 
REMARK       I    between atoms: N_14  and  C_15 
REMARK    5  A    between atoms: C_15  and  C_16 
REMARK    6  A    between atoms: C_16  and  C_17 
REMARK    7  A    between atoms: C_17  and  C_18 
ROOT
HETATM    1  C   UNL     1      41.943 -16.636   1.423  1.00  0.00     0.288 C 
HETATM    2  N   UNL     1      42.453 -16.028   2.549  1.00  0.00    -0.262 N 
HETATM    3  O   UNL     1      42.052 -17.846   1.232  1.00  0.00    -0.264 OA
HETATM    4  H   UNL     1      42.401 -15.029   2.731  1.00  0.00     0.190 HD
ENDROOT
BRANCH   1   5
HETATM    5  C   UNL     1      41.269 -15.764   0.503  1.00  0.00     0.121 A 
HETATM    6  N   UNL     1      41.600 -15.719  -0.823  1.00  0.00    -0.272 N 
HETATM    7  N   UNL     1      40.836 -14.894  -1.553  1.00  0.00    -0.174 NA
HETATM    8  H   UNL     1      42.333 -16.248  -1.286  1.00  0.00     0.189 HD
HETATM    9  C   UNL     1      39.976 -14.358  -0.673  1.00  0.00     0.089 A 
HETATM   10  C   UNL     1      40.226 -14.868   0.633  1.00  0.00     0.071 A 
BRANCH   9  11
HETATM   11  C   UNL     1      38.932 -13.416  -1.087  1.00  0.00    -0.005 A 
HETATM   12  C   UNL     1      38.645 -13.230  -2.447  1.00  0.00     0.016 A 
HETATM   13  C   UNL     1      37.617 -12.373  -2.858  1.00  0.00     0.037 A 
HETATM   14  C   UNL     1      36.860 -11.685  -1.912  1.00  0.00     0.068 A 
HETATM   15  C   UNL     1      37.158 -11.843  -0.557  1.00  0.00     0.037 A 
HETATM   16  C   UNL     1      38.182 -12.703  -0.144  1.00  0.00     0.016 A 
BRANCH  14  17
HETATM   17  O   UNL     1      35.824 -10.832  -2.176  1.00  0.00    -0.356 OA
HETATM   18  C   UNL     1      34.871 -10.647  -1.137  1.00  0.00     0.210 C 
ENDBRANCH  14  17
ENDBRANCH   9  11
ENDBRANCH   1   5
BRANCH   2  19
HETATM   19  N   UNL     1      43.090 -16.807   3.518  1.00  0.00    -0.267 N 
HETATM   20  C   UNL     1      42.370 -17.157   4.639  1.00  0.00     0.236 C 
HETATM   21  O   UNL     1      41.222 -16.763   4.835  1.00  0.00    -0.272 OA
HETATM   22  H   UNL     1      44.004 -17.185   3.280  1.00  0.00     0.190 HD
BRANCH  20  23
HETATM   23  C   UNL     1      43.092 -18.078   5.594  1.00  0.00     0.109 C 
BRANCH  23  24
HETATM   24  C   UNL     1      44.420 -18.559   5.015  1.00  0.00     0.048 C 
BRANCH  24  25
HETATM   25  C   UNL     1      44.464 -20.012   4.590  1.00  0.00    -0.056 A 
HETATM   26  C   UNL     1      44.291 -20.322   3.229  1.00  0.00     0.031 A 
HETATM   27  C   UNL     1      44.364 -21.643   2.785  1.00  0.00     0.034 A 
HETATM   28 CL   UNL     1      44.146 -21.995   1.114  1.00  0.00    -0.084 Cl
HETATM   29  C   UNL     1      44.619 -22.676   3.681  1.00  0.00     0.024 A 
HETATM   30  C   UNL     1      44.807 -22.383   5.029  1.00  0.00     0.002 A 
HETATM   31  C   UNL     1      44.738 -21.061   5.479  1.00  0.00     0.007 A 
ENDBRANCH  24  25
ENDBRANCH  23  24
ENDBRANCH  20  23
ENDBRANCH   2  19
TORSDOF 7
ENDMDL
MODEL 9
REMARK VINA RESULT:      -7.7      7.620     11.555
REMARK  7 active torsions:
REMARK  status: ('A' for Active; 'I' for Inactive)
REMARK    1  A    between atoms: O_2  and  C_3 
REMARK    2  A    between atoms: C_6  and  C_7 
REMARK    3  A    between atoms: C_11  and  C_12 
REMARK       I    between atoms: C_12  and  N_13 
REMARK    4  A    between atoms: N_13  and  N_14 
REMARK       I    between atoms: N_14  and  C_15 
REMARK    5  A    between atoms: C_15  and  C_16 
REMARK    6  A    between atoms: C_16  and  C_17 
REMARK    7  A    between atoms: C_17  and  C_18 
ROOT
HETATM    1  C   UNL     1      41.873 -14.281   0.586  1.00  0.00     0.288 C 
HETATM    2  N   UNL     1      41.903 -15.657   0.549  1.00  0.00    -0.262 N 
HETATM    3  O   UNL     1      42.247 -13.649   1.573  1.00  0.00    -0.264 OA
HETATM    4  H   UNL     1      41.583 -16.214  -0.240  1.00  0.00     0.190 HD
ENDROOT
BRANCH   1   5
HETATM    5  C   UNL     1      41.391 -13.642  -0.606  1.00  0.00     0.121 A 
HETATM    6  N   UNL     1      40.065 -13.639  -0.938  1.00  0.00    -0.272 N 
HETATM    7  N   UNL     1      39.778 -12.951  -2.052  1.00  0.00    -0.174 NA
HETATM    8  H   UNL     1      39.308 -14.081  -0.426  1.00  0.00     0.189 HD
HETATM    9  C   UNL     1      40.964 -12.494  -2.485  1.00  0.00     0.089 A 
HETATM   10  C   UNL     1      42.004 -12.920  -1.611  1.00  0.00     0.071 A 
BRANCH   9  11
HETATM   11  C   UNL     1      41.078 -11.650  -3.678  1.00  0.00    -0.005 A 
HETATM   12  C   UNL     1      39.927 -11.211  -4.349  1.00  0.00     0.016 A 
HETATM   13  C   UNL     1      40.017 -10.363  -5.458  1.00  0.00     0.037 A 
HETATM   14  C   UNL     1      41.264  -9.941  -5.918  1.00  0.00     0.068 A 
HETATM   15  C   UNL     1      42.416 -10.396  -5.273  1.00  0.00     0.037 A 
HETATM   16  C   UNL     1      42.327 -11.240  -4.160  1.00  0.00     0.016 A 
BRANCH  14  17
HETATM   17  O   UNL     1      41.491  -9.106  -6.977  1.00  0.00    -0.356 OA
HETATM   18  C   UNL     1      40.480  -9.054  -7.975  1.00  0.00     0.210 C 
ENDBRANCH  14  17
ENDBRANCH   9  11
ENDBRANCH   1   5
BRANCH   2  19
HETATM   19  N   UNL     1      42.395 -16.361   1.651  1.00  0.00    -0.267 N 
HETATM   20  C   UNL     1      41.484 -16.866   2.552  1.00  0.00     0.236 C 
HETATM   21  O   UNL     1      40.275 -16.672   2.447  1.00  0.00    -0.272 OA
HETATM   22  H   UNL     1      43.390 -16.577   1.655  1.00  0.00     0.190 HD
BRANCH  20  23
HETATM   23  C   UNL     1      42.085 -17.696   3.663  1.00  0.00     0.109 C 
BRANCH  23  24
HETATM   24  C   UNL     1      43.556 -18.010   3.397  1.00  0.00     0.048 C 
BRANCH  24  25
HETATM   25  C   UNL     1      43.879 -19.464   3.124  1.00  0.00    -0.056 A 
HETATM   26  C   UNL     1      44.421 -20.241   4.164  1.00  0.00     0.031 A 
HETATM   27  C   UNL     1      44.697 -21.595   3.971  1.00  0.00     0.034 A 
HETATM   28 CL   UNL     1      45.361 -22.523   5.259  1.00  0.00    -0.084 Cl
HETATM   29  C   UNL     1      44.431 -22.203   2.748  1.00  0.00     0.024 A 
HETATM   30  C   UNL     1      43.882 -21.449   1.713  1.00  0.00     0.002 A 
HETATM   31  C   UNL     1      43.601 -20.092   1.902  1.00  0.00     0.007 A 
ENDBRANCH  24  25
ENDBRANCH  23  24
ENDBRANCH  20  23
ENDBRANCH   2  19
TORSDOF 7
ENDMDL
MODEL 10
REMARK VINA RESULT:      -7.7      8.156     11.149
REMARK  7 active torsions:
REMARK  status: ('A' for Active; 'I' for Inactive)
REMARK    1  A    between atoms: O_2  and  C_3 
REMARK    2  A    between atoms: C_6  and  C_7 
REMARK    3  A    between atoms: C_11  and  C_12 
REMARK       I    between atoms: C_12  and  N_13 
REMARK    4  A    between atoms: N_13  and  N_14 
REMARK       I    between atoms: N_14  and  C_15 
REMARK    5  A    between atoms: C_15  and  C_16 
REMARK    6  A    between atoms: C_16  and  C_17 
REMARK    7  A    between atoms: C_17  and  C_18 
ROOT
HETATM    1  C   UNL     1      41.196 -15.089  -0.590  1.00  0.00     0.288 C 
HETATM    2  N   UNL     1      40.169 -15.529  -1.395  1.00  0.00    -0.262 N 
HETATM    3  O   UNL     1      41.782 -14.028  -0.804  1.00  0.00    -0.264 OA
HETATM    4  H   UNL     1      39.676 -16.408  -1.262  1.00  0.00     0.190 HD
ENDROOT
BRANCH   1   5
HETATM    5  C   UNL     1      41.522 -15.944   0.517  1.00  0.00     0.121 A 
HETATM    6  N   UNL     1      40.698 -16.068   1.600  1.00  0.00    -0.272 N 
HETATM    7  N   UNL     1      41.123 -16.948   2.518  1.00  0.00    -0.174 NA
HETATM    8  H   UNL     1      39.819 -15.583   1.756  1.00  0.00     0.189 HD
HETATM    9  C   UNL     1      42.285 -17.413   2.031  1.00  0.00     0.089 A 
HETATM   10  C   UNL     1      42.577 -16.795   0.782  1.00  0.00     0.071 A 
BRANCH   9  11
HETATM   11  C   UNL     1      43.060 -18.441   2.731  1.00  0.00    -0.005 A 
HETATM   12  C   UNL     1      43.541 -19.561   2.037  1.00  0.00     0.016 A 
HETATM   13  C   UNL     1      44.327 -20.525   2.679  1.00  0.00     0.037 A 
HETATM   14  C   UNL     1      44.640 -20.387   4.030  1.00  0.00     0.068 A 
HETATM   15  C   UNL     1      44.142 -19.289   4.735  1.00  0.00     0.037 A 
HETATM   16  C   UNL     1      43.361 -18.321   4.093  1.00  0.00     0.016 A 
BRANCH  14  17
HETATM   17  O   UNL     1      45.406 -21.245   4.770  1.00  0.00    -0.356 OA
HETATM   18  C   UNL     1      44.906 -22.566   4.933  1.00  0.00     0.210 C 
ENDBRANCH  14  17
ENDBRANCH   9  11
ENDBRANCH   1   5
BRANCH   2  19
HETATM   19  N   UNL     1      39.758 -14.739  -2.472  1.00  0.00    -0.267 N 
HETATM   20  C   UNL     1      38.622 -13.977  -2.316  1.00  0.00     0.236 C 
HETATM   21  O   UNL     1      37.938 -14.014  -1.295  1.00  0.00    -0.272 OA
HETATM   22  H   UNL     1      40.396 -14.668  -3.263  1.00  0.00     0.190 HD
BRANCH  20  23
HETATM   23  C   UNL     1      38.295 -13.079  -3.486  1.00  0.00     0.109 C 
BRANCH  23  24
HETATM   24  C   UNL     1      38.713 -11.634  -3.219  1.00  0.00     0.048 C 
BRANCH  24  25
HETATM   25  C   UNL     1      40.073 -11.234  -3.751  1.00  0.00    -0.056 A 
HETATM   26  C   UNL     1      40.157 -10.693  -5.047  1.00  0.00     0.031 A 
HETATM   27  C   UNL     1      41.383 -10.272  -5.564  1.00  0.00     0.034 A 
HETATM   28 CL   UNL     1      41.459  -9.615  -7.154  1.00  0.00    -0.084 Cl
HETATM   29  C   UNL     1      42.543 -10.372  -4.803  1.00  0.00     0.024 A 
HETATM   30  C   UNL     1      42.473 -10.893  -3.513  1.00  0.00     0.002 A 
HETATM   31  C   UNL     1      41.246 -11.314  -2.988  1.00  0.00     0.007 A 
ENDBRANCH  24  25
ENDBRANCH  23  24
ENDBRANCH  20  23
ENDBRANCH   2  19
TORSDOF 7
ENDMDL
