MODEL 1
REMARK VINA RESULT:      -9.1      0.000      0.000
REMARK  8 active torsions:
REMARK  status: ('A' for Active; 'I' for Inactive)
REMARK    1  A    between atoms: N_2  and  C_3 
REMARK    2  A    between atoms: C_4  and  C_5 
REMARK       I    between atoms: C_5  and  N_6 
REMARK    3  A    between atoms: N_6  and  C_7 
REMARK    4  A    between atoms: C_7  and  C_8 
REMARK    5  A    between atoms: N_13  and  C_15 
REMARK    6  A    between atoms: C_15  and  C_16 
REMARK    7  A    between atoms: C_16  and  C_17 
REMARK    8  A    between atoms: C_17  and  C_18 
ROOT
HETATM    1  C   UNL     1      39.305 -12.200   6.270  1.00  0.00     0.140 C 
HETATM    2  O   UNL     1      40.170 -13.352   6.242  1.00  0.00    -0.373 OA
HETATM    3  C   UNL     1      40.711 -13.519   4.918  1.00  0.00     0.064 C 
HETATM    4  C   UNL     1      40.354 -14.945   4.484  1.00  0.00     0.066 C 
HETATM    5  C   UNL     1      41.036 -15.982   5.373  1.00  0.00     0.237 C 
HETATM    6  N   UNL     1      42.539 -15.778   5.405  1.00  0.00    -0.071 N 
HETATM    7  H   UNL     1      42.873 -16.394   6.156  1.00  0.00     0.279 HD
HETATM    8  C   UNL     1      42.864 -14.374   5.891  1.00  0.00     0.237 C 
HETATM    9  C   UNL     1      42.232 -13.347   4.968  1.00  0.00     0.066 C 
HETATM   10  C   UNL     1      40.056 -12.452   4.036  1.00  0.00     0.041 C 
HETATM   11  C   UNL     1      38.842 -12.034   4.834  1.00  0.00     0.036 C 
ENDROOT
BRANCH   1  12
HETATM   12  C   UNL     1      40.057 -10.969   6.810  1.00  0.00     0.155 C 
BRANCH  12  13
HETATM   13  N   UNL     1      41.037 -11.328   7.821  1.00  0.00    -0.354 N 
HETATM   14  C   UNL     1      42.044 -10.470   8.228  1.00  0.00     0.253 C 
HETATM   15  O   UNL     1      42.181  -9.330   7.801  1.00  0.00    -0.268 OA
HETATM   16  H   UNL     1      41.054 -12.285   8.152  1.00  0.00     0.162 HD
BRANCH  14  17
HETATM   17  C   UNL     1      42.946 -11.042   9.270  1.00  0.00     0.053 A 
HETATM   18  C   UNL     1      42.638 -10.977  10.649  1.00  0.00     0.025 A 
HETATM   19  C   UNL     1      43.571 -11.541  11.543  1.00  0.00     0.025 A 
HETATM   20  C   UNL     1      44.745 -12.155  11.094  1.00  0.00     0.002 A 
HETATM   21  C   UNL     1      45.019 -12.226   9.734  1.00  0.00     0.001 A 
HETATM   22  C   UNL     1      44.122 -11.676   8.824  1.00  0.00     0.019 A 
BRANCH  18  23
HETATM   23  N   UNL     1      41.477 -10.315  11.125  1.00  0.00    -0.291 NA
HETATM   24  C   UNL     1      41.833  -9.280  12.097  1.00  0.00     0.116 C 
HETATM   25  C   UNL     1      40.399 -11.211  11.553  1.00  0.00     0.116 C 
ENDBRANCH  18  23
ENDBRANCH  14  17
ENDBRANCH  12  13
ENDBRANCH   1  12
BRANCH   6  26
HETATM   26  C   UNL     1      43.217 -16.236   4.132  1.00  0.00     0.235 C 
BRANCH  26  27
HETATM   27  C   UNL     1      42.763 -17.607   3.645  1.00  0.00     0.032 C 
BRANCH  27  28
HETATM   28  C   UNL     1      43.618 -18.185   2.517  1.00  0.00     0.040 C 
BRANCH  28  29
HETATM   29  C   UNL     1      43.923 -19.638   2.774  1.00  0.00    -0.058 A 
HETATM   30  C   UNL     1      44.489 -20.036   3.993  1.00  0.00     0.007 A 
HETATM   31  C   UNL     1      44.812 -21.375   4.216  1.00  0.00     0.001 A 
HETATM   32  C   UNL     1      44.578 -22.325   3.224  1.00  0.00     0.000 A 
HETATM   33  C   UNL     1      44.019 -21.937   2.008  1.00  0.00     0.001 A 
HETATM   34  C   UNL     1      43.693 -20.600   1.781  1.00  0.00     0.007 A 
ENDBRANCH  28  29
ENDBRANCH  27  28
ENDBRANCH  26  27
ENDBRANCH   6  26
TORSDOF 8
ENDMDL
MODEL 2
REMARK VINA RESULT:      -9.0      1.302      2.236
REMARK  8 active torsions:
REMARK  status: ('A' for Active; 'I' for Inactive)
REMARK    1  A    between atoms: N_2  and  C_3 
REMARK    2  A    between atoms: C_4  and  C_5 
REMARK       I    between atoms: C_5  and  N_6 
REMARK    3  A    between atoms: N_6  and  C_7 
REMARK    4  A    between atoms: C_7  and  C_8 
REMARK    5  A    between atoms: N_13  and  C_15 
REMARK    6  A    between atoms: C_15  and  C_16 
REMARK    7  A    between atoms: C_16  and  C_17 
REMARK    8  A    between atoms: C_17  and  C_18 
ROOT
HETATM    1  C   UNL     1      40.341 -12.764   6.185  1.00  0.00     0.140 C 
HETATM    2  O   UNL     1      41.257 -13.733   5.641  1.00  0.00    -0.373 OA
HETATM    3  C   UNL     1      41.122 -13.775   4.207  1.00  0.00     0.064 C 
HETATM    4  C   UNL     1      40.830 -15.236   3.846  1.00  0.00     0.066 C 
HETATM    5  C   UNL     1      42.006 -16.142   4.205  1.00  0.00     0.237 C 
HETATM    6  N   UNL     1      43.290 -15.661   3.555  1.00  0.00    -0.071 N 
HETATM    7  H   UNL     1      44.033 -16.215   3.997  1.00  0.00     0.279 HD
HETATM    8  C   UNL     1      43.582 -14.228   3.975  1.00  0.00     0.237 C 
HETATM    9  C   UNL     1      42.436 -13.323   3.563  1.00  0.00     0.066 C 
HETATM   10  C   UNL     1      39.968 -12.836   3.845  1.00  0.00     0.041 C 
HETATM   11  C   UNL     1      39.231 -12.664   5.154  1.00  0.00     0.036 C 
ENDROOT
BRANCH   1  12
HETATM   12  C   UNL     1      41.056 -11.422   6.436  1.00  0.00     0.155 C 
BRANCH  12  13
HETATM   13  N   UNL     1      41.582 -11.328   7.787  1.00  0.00    -0.354 N 
HETATM   14  C   UNL     1      42.088 -10.153   8.315  1.00  0.00     0.253 C 
HETATM   15  O   UNL     1      42.106  -9.087   7.711  1.00  0.00    -0.268 OA
HETATM   16  H   UNL     1      41.694 -12.184   8.318  1.00  0.00     0.162 HD
BRANCH  14  17
HETATM   17  C   UNL     1      42.585 -10.281   9.716  1.00  0.00     0.053 A 
HETATM   18  C   UNL     1      43.847 -10.843  10.019  1.00  0.00     0.025 A 
HETATM   19  C   UNL     1      44.206 -10.922  11.381  1.00  0.00     0.025 A 
HETATM   20  C   UNL     1      43.363 -10.452  12.394  1.00  0.00     0.002 A 
HETATM   21  C   UNL     1      42.137  -9.885  12.074  1.00  0.00     0.001 A 
HETATM   22  C   UNL     1      41.749  -9.795  10.740  1.00  0.00     0.019 A 
BRANCH  18  23
HETATM   23  N   UNL     1      44.692 -11.369   9.007  1.00  0.00    -0.291 NA
HETATM   24  C   UNL     1      44.466 -12.806   8.841  1.00  0.00     0.116 C 
HETATM   25  C   UNL     1      46.100 -10.982   9.130  1.00  0.00     0.116 C 
ENDBRANCH  18  23
ENDBRANCH  14  17
ENDBRANCH  12  13
ENDBRANCH   1  12
BRANCH   6  26
HETATM   26  C   UNL     1      43.343 -15.963   2.074  1.00  0.00     0.235 C 
BRANCH  26  27
HETATM   27  C   UNL     1      44.048 -17.271   1.733  1.00  0.00     0.032 C 
BRANCH  27  28
HETATM   28  C   UNL     1      43.115 -18.479   1.637  1.00  0.00     0.040 C 
BRANCH  28  29
HETATM   29  C   UNL     1      43.666 -19.639   2.424  1.00  0.00    -0.058 A 
HETATM   30  C   UNL     1      44.157 -19.442   3.723  1.00  0.00     0.007 A 
HETATM   31  C   UNL     1      44.709 -20.506   4.437  1.00  0.00     0.001 A 
HETATM   32  C   UNL     1      44.780 -21.772   3.861  1.00  0.00     0.000 A 
HETATM   33  C   UNL     1      44.297 -21.976   2.570  1.00  0.00     0.001 A 
HETATM   34  C   UNL     1      43.744 -20.915   1.852  1.00  0.00     0.007 A 
ENDBRANCH  28  29
ENDBRANCH  27  28
ENDBRANCH  26  27
ENDBRANCH   6  26
TORSDOF 8
ENDMDL
MODEL 3
REMARK VINA RESULT:      -8.5      4.271      7.658
REMARK  8 active torsions:
REMARK  status: ('A' for Active; 'I' for Inactive)
REMARK    1  A    between atoms: N_2  and  C_3 
REMARK    2  A    between atoms: C_4  and  C_5 
REMARK       I    between atoms: C_5  and  N_6 
REMARK    3  A    between atoms: N_6  and  C_7 
REMARK    4  A    between atoms: C_7  and  C_8 
REMARK    5  A    between atoms: N_13  and  C_15 
REMARK    6  A    between atoms: C_15  and  C_16 
REMARK    7  A    between atoms: C_16  and  C_17 
REMARK    8  A    between atoms: C_17  and  C_18 
ROOT
HETATM    1  C   UNL     1      39.756 -14.754   2.665  1.00  0.00     0.140 C 
HETATM    2  O   UNL     1      40.248 -15.257   3.922  1.00  0.00    -0.373 OA
HETATM    3  C   UNL     1      41.508 -15.926   3.716  1.00  0.00     0.064 C 
HETATM    4  C   UNL     1      41.342 -17.340   4.284  1.00  0.00     0.066 C 
HETATM    5  C   UNL     1      41.101 -17.307   5.792  1.00  0.00     0.237 C 
HETATM    6  N   UNL     1      42.204 -16.553   6.510  1.00  0.00    -0.071 N 
HETATM    7  H   UNL     1      41.860 -16.432   7.470  1.00  0.00     0.279 HD
HETATM    8  C   UNL     1      42.308 -15.137   5.963  1.00  0.00     0.237 C 
HETATM    9  C   UNL     1      42.607 -15.177   4.475  1.00  0.00     0.066 C 
HETATM   10  C   UNL     1      41.767 -15.924   2.207  1.00  0.00     0.041 C 
HETATM   11  C   UNL     1      40.404 -15.640   1.616  1.00  0.00     0.036 C 
ENDROOT
BRANCH   1  12
HETATM   12  C   UNL     1      40.113 -13.264   2.501  1.00  0.00     0.155 C 
BRANCH  12  13
HETATM   13  N   UNL     1      40.445 -12.930   1.126  1.00  0.00    -0.354 N 
HETATM   14  C   UNL     1      41.734 -12.640   0.714  1.00  0.00     0.253 C 
HETATM   15  O   UNL     1      42.709 -12.670   1.455  1.00  0.00    -0.268 OA
HETATM   16  H   UNL     1      39.685 -12.787   0.471  1.00  0.00     0.162 HD
BRANCH  14  17
HETATM   17  C   UNL     1      41.850 -12.315  -0.738  1.00  0.00     0.053 A 
HETATM   18  C   UNL     1      41.173 -13.059  -1.732  1.00  0.00     0.025 A 
HETATM   19  C   UNL     1      41.368 -12.667  -3.073  1.00  0.00     0.025 A 
HETATM   20  C   UNL     1      42.182 -11.581  -3.412  1.00  0.00     0.002 A 
HETATM   21  C   UNL     1      42.822 -10.851  -2.419  1.00  0.00     0.001 A 
HETATM   22  C   UNL     1      42.655 -11.213  -1.086  1.00  0.00     0.019 A 
BRANCH  18  23
HETATM   23  N   UNL     1      40.384 -14.194  -1.408  1.00  0.00    -0.291 NA
HETATM   24  C   UNL     1      40.975 -15.410  -1.969  1.00  0.00     0.116 C 
HETATM   25  C   UNL     1      38.952 -14.032  -1.671  1.00  0.00     0.116 C 
ENDBRANCH  18  23
ENDBRANCH  14  17
ENDBRANCH  12  13
ENDBRANCH   1  12
BRANCH   6  26
HETATM   26  C   UNL     1      43.488 -17.346   6.603  1.00  0.00     0.235 C 
BRANCH  26  27
HETATM   27  C   UNL     1      43.442 -18.689   5.885  1.00  0.00     0.032 C 
BRANCH  27  28
HETATM   28  C   UNL     1      44.737 -19.056   5.159  1.00  0.00     0.040 C 
BRANCH  28  29
HETATM   29  C   UNL     1      44.453 -19.975   3.999  1.00  0.00    -0.058 A 
HETATM   30  C   UNL     1      43.830 -19.482   2.843  1.00  0.00     0.007 A 
HETATM   31  C   UNL     1      43.526 -20.340   1.786  1.00  0.00     0.001 A 
HETATM   32  C   UNL     1      43.836 -21.696   1.875  1.00  0.00     0.000 A 
HETATM   33  C   UNL     1      44.452 -22.195   3.021  1.00  0.00     0.001 A 
HETATM   34  C   UNL     1      44.758 -21.340   4.080  1.00  0.00     0.007 A 
ENDBRANCH  28  29
ENDBRANCH  27  28
ENDBRANCH  26  27
ENDBRANCH   6  26
TORSDOF 8
ENDMDL
MODEL 4
REMARK VINA RESULT:      -8.5      4.894      8.906
REMARK  8 active torsions:
REMARK  status: ('A' for Active; 'I' for Inactive)
REMARK    1  A    between atoms: N_2  and  C_3 
REMARK    2  A    between atoms: C_4  and  C_5 
REMARK       I    between atoms: C_5  and  N_6 
REMARK    3  A    between atoms: N_6  and  C_7 
REMARK    4  A    between atoms: C_7  and  C_8 
REMARK    5  A    between atoms: N_13  and  C_15 
REMARK    6  A    between atoms: C_15  and  C_16 
REMARK    7  A    between atoms: C_16  and  C_17 
REMARK    8  A    between atoms: C_17  and  C_18 
ROOT
HETATM    1  C   UNL     1      40.339 -16.168   1.513  1.00  0.00     0.140 C 
HETATM    2  O   UNL     1      40.804 -16.042   2.871  1.00  0.00    -0.373 OA
HETATM    3  C   UNL     1      41.971 -16.864   3.061  1.00  0.00     0.064 C 
HETATM    4  C   UNL     1      41.658 -17.787   4.245  1.00  0.00     0.066 C 
HETATM    5  C   UNL     1      41.464 -16.990   5.533  1.00  0.00     0.237 C 
HETATM    6  N   UNL     1      42.666 -16.112   5.824  1.00  0.00    -0.071 N 
HETATM    7  H   UNL     1      42.365 -15.497   6.590  1.00  0.00     0.279 HD
HETATM    8  C   UNL     1      42.919 -15.170   4.657  1.00  0.00     0.237 C 
HETATM    9  C   UNL     1      43.170 -15.970   3.391  1.00  0.00     0.066 C 
HETATM   10  C   UNL     1      42.187 -17.633   1.755  1.00  0.00     0.041 C 
HETATM   11  C   UNL     1      40.851 -17.523   1.057  1.00  0.00     0.036 C 
ENDROOT
BRANCH   1  12
HETATM   12  C   UNL     1      40.861 -15.003   0.650  1.00  0.00     0.155 C 
BRANCH  12  13
HETATM   13  N   UNL     1      39.873 -14.553  -0.316  1.00  0.00    -0.354 N 
HETATM   14  C   UNL     1      40.014 -14.749  -1.678  1.00  0.00     0.253 C 
HETATM   15  O   UNL     1      40.956 -15.343  -2.188  1.00  0.00    -0.268 OA
HETATM   16  H   UNL     1      39.114 -13.969   0.013  1.00  0.00     0.162 HD
BRANCH  14  17
HETATM   17  C   UNL     1      38.888 -14.201  -2.491  1.00  0.00     0.053 A 
HETATM   18  C   UNL     1      38.561 -12.825  -2.491  1.00  0.00     0.025 A 
HETATM   19  C   UNL     1      37.469 -12.424  -3.288  1.00  0.00     0.025 A 
HETATM   20  C   UNL     1      36.746 -13.339  -4.062  1.00  0.00     0.002 A 
HETATM   21  C   UNL     1      37.097 -14.682  -4.064  1.00  0.00     0.001 A 
HETATM   22  C   UNL     1      38.167 -15.113  -3.285  1.00  0.00     0.019 A 
BRANCH  18  23
HETATM   23  N   UNL     1      39.251 -11.893  -1.674  1.00  0.00    -0.291 NA
HETATM   24  C   UNL     1      38.320 -11.191  -0.789  1.00  0.00     0.116 C 
HETATM   25  C   UNL     1      40.180 -11.022  -2.399  1.00  0.00     0.116 C 
ENDBRANCH  18  23
ENDBRANCH  14  17
ENDBRANCH  12  13
ENDBRANCH   1  12
BRANCH   6  26
HETATM   26  C   UNL     1      43.852 -16.898   6.338  1.00  0.00     0.235 C 
BRANCH  26  27
HETATM   27  C   UNL     1      43.779 -18.393   6.049  1.00  0.00     0.032 C 
BRANCH  27  28
HETATM   28  C   UNL     1      45.103 -19.009   5.596  1.00  0.00     0.040 C 
BRANCH  28  29
HETATM   29  C   UNL     1      44.861 -20.112   4.599  1.00  0.00    -0.058 A 
HETATM   30  C   UNL     1      44.548 -19.805   3.267  1.00  0.00     0.007 A 
HETATM   31  C   UNL     1      44.279 -20.825   2.353  1.00  0.00     0.001 A 
HETATM   32  C   UNL     1      44.317 -22.156   2.760  1.00  0.00     0.000 A 
HETATM   33  C   UNL     1      44.624 -22.470   4.083  1.00  0.00     0.001 A 
HETATM   34  C   UNL     1      44.894 -21.454   5.000  1.00  0.00     0.007 A 
ENDBRANCH  28  29
ENDBRANCH  27  28
ENDBRANCH  26  27
ENDBRANCH   6  26
TORSDOF 8
ENDMDL
MODEL 5
REMARK VINA RESULT:      -8.4      4.210      7.371
REMARK  8 active torsions:
REMARK  status: ('A' for Active; 'I' for Inactive)
REMARK    1  A    between atoms: N_2  and  C_3 
REMARK    2  A    between atoms: C_4  and  C_5 
REMARK       I    between atoms: C_5  and  N_6 
REMARK    3  A    between atoms: N_6  and  C_7 
REMARK    4  A    between atoms: C_7  and  C_8 
REMARK    5  A    between atoms: N_13  and  C_15 
REMARK    6  A    between atoms: C_15  and  C_16 
REMARK    7  A    between atoms: C_16  and  C_17 
REMARK    8  A    between atoms: C_17  and  C_18 
ROOT
HETATM    1  C   UNL     1      39.805 -14.743   3.273  1.00  0.00     0.140 C 
HETATM    2  O   UNL     1      40.561 -15.165   4.425  1.00  0.00    -0.373 OA
HETATM    3  C   UNL     1      41.674 -15.977   4.002  1.00  0.00     0.064 C 
HETATM    4  C   UNL     1      41.553 -17.302   4.764  1.00  0.00     0.066 C 
HETATM    5  C   UNL     1      41.706 -17.092   6.269  1.00  0.00     0.237 C 
HETATM    6  N   UNL     1      43.008 -16.387   6.597  1.00  0.00    -0.071 N 
HETATM    7  H   UNL     1      42.929 -16.135   7.590  1.00  0.00     0.279 HD
HETATM    8  C   UNL     1      43.075 -15.052   5.871  1.00  0.00     0.237 C 
HETATM    9  C   UNL     1      42.982 -15.272   4.372  1.00  0.00     0.066 C 
HETATM   10  C   UNL     1      41.540 -16.154   2.487  1.00  0.00     0.041 C 
HETATM   11  C   UNL     1      40.097 -15.793   2.216  1.00  0.00     0.036 C 
ENDROOT
BRANCH   1  12
HETATM   12  C   UNL     1      40.218 -13.322   2.844  1.00  0.00     0.155 C 
BRANCH  12  13
HETATM   13  N   UNL     1      40.484 -13.238   1.418  1.00  0.00    -0.354 N 
HETATM   14  C   UNL     1      41.717 -12.874   0.905  1.00  0.00     0.253 C 
HETATM   15  O   UNL     1      42.696 -12.623   1.598  1.00  0.00    -0.268 OA
HETATM   16  H   UNL     1      39.704 -13.333   0.779  1.00  0.00     0.162 HD
BRANCH  14  17
HETATM   17  C   UNL     1      41.770 -12.842  -0.586  1.00  0.00     0.053 A 
HETATM   18  C   UNL     1      42.164 -11.687  -1.301  1.00  0.00     0.025 A 
HETATM   19  C   UNL     1      42.164 -11.772  -2.709  1.00  0.00     0.025 A 
HETATM   20  C   UNL     1      41.808 -12.948  -3.377  1.00  0.00     0.002 A 
HETATM   21  C   UNL     1      41.444 -14.077  -2.656  1.00  0.00     0.001 A 
HETATM   22  C   UNL     1      41.428 -14.028  -1.265  1.00  0.00     0.019 A 
BRANCH  18  23
HETATM   23  N   UNL     1      42.480 -10.472  -0.640  1.00  0.00    -0.291 NA
HETATM   24  C   UNL     1      41.370  -9.523  -0.745  1.00  0.00     0.116 C 
HETATM   25  C   UNL     1      43.792  -9.917  -0.984  1.00  0.00     0.116 C 
ENDBRANCH  18  23
ENDBRANCH  14  17
ENDBRANCH  12  13
ENDBRANCH   1  12
BRANCH   6  26
HETATM   26  C   UNL     1      44.212 -17.294   6.472  1.00  0.00     0.235 C 
BRANCH  26  27
HETATM   27  C   UNL     1      43.871 -18.725   6.070  1.00  0.00     0.032 C 
BRANCH  27  28
HETATM   28  C   UNL     1      45.011 -19.467   5.371  1.00  0.00     0.040 C 
BRANCH  28  29
HETATM   29  C   UNL     1      44.523 -20.117   4.104  1.00  0.00    -0.058 A 
HETATM   30  C   UNL     1      44.759 -21.480   3.872  1.00  0.00     0.007 A 
HETATM   31  C   UNL     1      44.347 -22.074   2.679  1.00  0.00     0.001 A 
HETATM   32  C   UNL     1      43.698 -21.314   1.707  1.00  0.00     0.000 A 
HETATM   33  C   UNL     1      43.461 -19.960   1.928  1.00  0.00     0.001 A 
HETATM   34  C   UNL     1      43.872 -19.361   3.120  1.00  0.00     0.007 A 
ENDBRANCH  28  29
ENDBRANCH  27  28
ENDBRANCH  26  27
ENDBRANCH   6  26
TORSDOF 8
ENDMDL
MODEL 6
REMARK VINA RESULT:      -8.4      4.786      8.770
REMARK  8 active torsions:
REMARK  status: ('A' for Active; 'I' for Inactive)
REMARK    1  A    between atoms: N_2  and  C_3 
REMARK    2  A    between atoms: C_4  and  C_5 
REMARK       I    between atoms: C_5  and  N_6 
REMARK    3  A    between atoms: N_6  and  C_7 
REMARK    4  A    between atoms: C_7  and  C_8 
REMARK    5  A    between atoms: N_13  and  C_15 
REMARK    6  A    between atoms: C_15  and  C_16 
REMARK    7  A    between atoms: C_16  and  C_17 
REMARK    8  A    between atoms: C_17  and  C_18 
ROOT
HETATM    1  C   UNL     1      40.291 -16.170   1.908  1.00  0.00     0.140 C 
HETATM    2  O   UNL     1      40.728 -16.114   3.280  1.00  0.00    -0.373 OA
HETATM    3  C   UNL     1      41.890 -16.948   3.452  1.00  0.00     0.064 C 
HETATM    4  C   UNL     1      41.551 -17.928   4.582  1.00  0.00     0.066 C 
HETATM    5  C   UNL     1      41.333 -17.196   5.904  1.00  0.00     0.237 C 
HETATM    6  N   UNL     1      42.531 -16.338   6.263  1.00  0.00    -0.071 N 
HETATM    7  H   UNL     1      42.216 -15.761   7.052  1.00  0.00     0.279 HD
HETATM    8  C   UNL     1      42.810 -15.340   5.149  1.00  0.00     0.237 C 
HETATM    9  C   UNL     1      43.084 -16.076   3.850  1.00  0.00     0.066 C 
HETATM   10  C   UNL     1      42.130 -17.652   2.114  1.00  0.00     0.041 C 
HETATM   11  C   UNL     1      40.808 -17.502   1.396  1.00  0.00     0.036 C 
ENDROOT
BRANCH   1  12
HETATM   12  C   UNL     1      40.833 -14.965   1.116  1.00  0.00     0.155 C 
BRANCH  12  13
HETATM   13  N   UNL     1      39.922 -14.550   0.063  1.00  0.00    -0.354 N 
HETATM   14  C   UNL     1      39.852 -13.246  -0.396  1.00  0.00     0.253 C 
HETATM   15  O   UNL     1      40.567 -12.340   0.013  1.00  0.00    -0.268 OA
HETATM   16  H   UNL     1      39.228 -15.214  -0.259  1.00  0.00     0.162 HD
BRANCH  14  17
HETATM   17  C   UNL     1      38.842 -13.035  -1.474  1.00  0.00     0.053 A 
HETATM   18  C   UNL     1      38.873 -13.760  -2.688  1.00  0.00     0.025 A 
HETATM   19  C   UNL     1      37.873 -13.466  -3.639  1.00  0.00     0.025 A 
HETATM   20  C   UNL     1      36.880 -12.512  -3.393  1.00  0.00     0.002 A 
HETATM   21  C   UNL     1      36.855 -11.826  -2.186  1.00  0.00     0.001 A 
HETATM   22  C   UNL     1      37.829 -12.087  -1.227  1.00  0.00     0.019 A 
BRANCH  18  23
HETATM   23  N   UNL     1      39.902 -14.695  -2.973  1.00  0.00    -0.291 NA
HETATM   24  C   UNL     1      41.073 -14.019  -3.535  1.00  0.00     0.116 C 
HETATM   25  C   UNL     1      39.460 -15.875  -3.721  1.00  0.00     0.116 C 
ENDBRANCH  18  23
ENDBRANCH  14  17
ENDBRANCH  12  13
ENDBRANCH   1  12
BRANCH   6  26
HETATM   26  C   UNL     1      43.705 -17.153   6.760  1.00  0.00     0.235 C 
BRANCH  26  27
HETATM   27  C   UNL     1      43.738 -18.581   6.229  1.00  0.00     0.032 C 
BRANCH  27  28
HETATM   28  C   UNL     1      45.000 -18.925   5.436  1.00  0.00     0.040 C 
BRANCH  28  29
HETATM   29  C   UNL     1      44.770 -20.137   4.572  1.00  0.00    -0.058 A 
HETATM   30  C   UNL     1      44.833 -21.423   5.128  1.00  0.00     0.007 A 
HETATM   31  C   UNL     1      44.664 -22.549   4.321  1.00  0.00     0.001 A 
HETATM   32  C   UNL     1      44.434 -22.401   2.955  1.00  0.00     0.000 A 
HETATM   33  C   UNL     1      44.371 -21.127   2.394  1.00  0.00     0.001 A 
HETATM   34  C   UNL     1      44.540 -19.999   3.197  1.00  0.00     0.007 A 
ENDBRANCH  28  29
ENDBRANCH  27  28
ENDBRANCH  26  27
ENDBRANCH   6  26
TORSDOF 8
ENDMDL
MODEL 7
REMARK VINA RESULT:      -8.4      4.261      8.009
REMARK  8 active torsions:
REMARK  status: ('A' for Active; 'I' for Inactive)
REMARK    1  A    between atoms: N_2  and  C_3 
REMARK    2  A    between atoms: C_4  and  C_5 
REMARK       I    between atoms: C_5  and  N_6 
REMARK    3  A    between atoms: N_6  and  C_7 
REMARK    4  A    between atoms: C_7  and  C_8 
REMARK    5  A    between atoms: N_13  and  C_15 
REMARK    6  A    between atoms: C_15  and  C_16 
REMARK    7  A    between atoms: C_16  and  C_17 
REMARK    8  A    between atoms: C_17  and  C_18 
ROOT
HETATM    1  C   UNL     1      40.101 -12.700   3.255  1.00  0.00     0.140 C 
HETATM    2  O   UNL     1      41.249 -13.537   3.494  1.00  0.00    -0.373 OA
HETATM    3  C   UNL     1      41.022 -14.348   4.663  1.00  0.00     0.064 C 
HETATM    4  C   UNL     1      42.196 -14.073   5.610  1.00  0.00     0.066 C 
HETATM    5  C   UNL     1      43.519 -14.535   5.003  1.00  0.00     0.237 C 
HETATM    6  N   UNL     1      43.462 -15.998   4.608  1.00  0.00    -0.071 N 
HETATM    7  H   UNL     1      44.314 -16.156   4.055  1.00  0.00     0.279 HD
HETATM    8  C   UNL     1      42.324 -16.230   3.626  1.00  0.00     0.237 C 
HETATM    9  C   UNL     1      41.004 -15.824   4.258  1.00  0.00     0.066 C 
HETATM   10  C   UNL     1      39.677 -13.910   5.250  1.00  0.00     0.041 C 
HETATM   11  C   UNL     1      39.440 -12.559   4.615  1.00  0.00     0.036 C 
ENDROOT
BRANCH   1  12
HETATM   12  C   UNL     1      39.178 -13.335   2.198  1.00  0.00     0.155 C 
BRANCH  12  13
HETATM   13  N   UNL     1      39.629 -13.062   0.844  1.00  0.00    -0.354 N 
HETATM   14  C   UNL     1      40.350 -13.976   0.095  1.00  0.00     0.253 C 
HETATM   15  O   UNL     1      40.641 -15.100   0.487  1.00  0.00    -0.268 OA
HETATM   16  H   UNL     1      39.517 -12.123   0.482  1.00  0.00     0.162 HD
BRANCH  14  17
HETATM   17  C   UNL     1      40.722 -13.489  -1.266  1.00  0.00     0.053 A 
HETATM   18  C   UNL     1      39.752 -13.221  -2.260  1.00  0.00     0.025 A 
HETATM   19  C   UNL     1      40.223 -12.776  -3.513  1.00  0.00     0.025 A 
HETATM   20  C   UNL     1      41.586 -12.589  -3.765  1.00  0.00     0.002 A 
HETATM   21  C   UNL     1      42.520 -12.838  -2.768  1.00  0.00     0.001 A 
HETATM   22  C   UNL     1      42.091 -13.282  -1.521  1.00  0.00     0.019 A 
BRANCH  18  23
HETATM   23  N   UNL     1      38.370 -13.453  -2.037  1.00  0.00    -0.291 NA
HETATM   24  C   UNL     1      37.890 -14.557  -2.871  1.00  0.00     0.116 C 
HETATM   25  C   UNL     1      37.538 -12.248  -2.081  1.00  0.00     0.116 C 
ENDBRANCH  18  23
ENDBRANCH  14  17
ENDBRANCH  12  13
ENDBRANCH   1  12
BRANCH   6  26
HETATM   26  C   UNL     1      43.538 -16.928   5.798  1.00  0.00     0.235 C 
BRANCH  26  27
HETATM   27  C   UNL     1      43.296 -18.394   5.458  1.00  0.00     0.032 C 
BRANCH  27  28
HETATM   28  C   UNL     1      44.572 -19.194   5.190  1.00  0.00     0.040 C 
BRANCH  28  29
HETATM   29  C   UNL     1      44.388 -20.104   4.004  1.00  0.00    -0.058 A 
HETATM   30  C   UNL     1      43.774 -19.627   2.837  1.00  0.00     0.007 A 
HETATM   31  C   UNL     1      43.562 -20.481   1.753  1.00  0.00     0.001 A 
HETATM   32  C   UNL     1      43.957 -21.815   1.827  1.00  0.00     0.000 A 
HETATM   33  C   UNL     1      44.566 -22.297   2.984  1.00  0.00     0.001 A 
HETATM   34  C   UNL     1      44.780 -21.447   4.070  1.00  0.00     0.007 A 
ENDBRANCH  28  29
ENDBRANCH  27  28
ENDBRANCH  26  27
ENDBRANCH   6  26
TORSDOF 8
ENDMDL
MODEL 8
REMARK VINA RESULT:      -8.4      4.514      8.436
REMARK  8 active torsions:
REMARK  status: ('A' for Active; 'I' for Inactive)
REMARK    1  A    between atoms: N_2  and  C_3 
REMARK    2  A    between atoms: C_4  and  C_5 
REMARK       I    between atoms: C_5  and  N_6 
REMARK    3  A    between atoms: N_6  and  C_7 
REMARK    4  A    between atoms: C_7  and  C_8 
REMARK    5  A    between atoms: N_13  and  C_15 
REMARK    6  A    between atoms: C_15  and  C_16 
REMARK    7  A    between atoms: C_16  and  C_17 
REMARK    8  A    between atoms: C_17  and  C_18 
ROOT
HETATM    1  C   UNL     1      39.229 -11.837   1.911  1.00  0.00     0.140 C 
HETATM    2  O   UNL     1      40.311 -12.711   2.288  1.00  0.00    -0.373 OA
HETATM    3  C   UNL     1      40.266 -12.952   3.708  1.00  0.00     0.064 C 
HETATM    4  C   UNL     1      41.642 -12.553   4.255  1.00  0.00     0.066 C 
HETATM    5  C   UNL     1      42.744 -13.445   3.690  1.00  0.00     0.237 C 
HETATM    6  N   UNL     1      42.454 -14.911   3.950  1.00  0.00    -0.071 N 
HETATM    7  H   UNL     1      43.142 -15.422   3.384  1.00  0.00     0.279 HD
HETATM    8  C   UNL     1      41.110 -15.291   3.349  1.00  0.00     0.237 C 
HETATM    9  C   UNL     1      40.010 -14.441   3.959  1.00  0.00     0.066 C 
HETATM   10  C   UNL     1      39.135 -12.086   4.267  1.00  0.00     0.041 C 
HETATM   11  C   UNL     1      38.902 -11.065   3.177  1.00  0.00     0.036 C 
ENDROOT
BRANCH   1  12
HETATM   12  C   UNL     1      38.036 -12.651   1.374  1.00  0.00     0.155 C 
BRANCH  12  13
HETATM   13  N   UNL     1      38.409 -13.483   0.243  1.00  0.00    -0.354 N 
HETATM   14  C   UNL     1      38.203 -13.099  -1.071  1.00  0.00     0.253 C 
HETATM   15  O   UNL     1      37.724 -12.019  -1.398  1.00  0.00    -0.268 OA
HETATM   16  H   UNL     1      38.719 -14.430   0.426  1.00  0.00     0.162 HD
BRANCH  14  17
HETATM   17  C   UNL     1      38.650 -14.106  -2.077  1.00  0.00     0.053 A 
HETATM   18  C   UNL     1      39.970 -14.613  -2.099  1.00  0.00     0.025 A 
HETATM   19  C   UNL     1      40.281 -15.553  -3.104  1.00  0.00     0.025 A 
HETATM   20  C   UNL     1      39.327 -15.983  -4.032  1.00  0.00     0.002 A 
HETATM   21  C   UNL     1      38.030 -15.488  -3.980  1.00  0.00     0.001 A 
HETATM   22  C   UNL     1      37.690 -14.556  -3.004  1.00  0.00     0.019 A 
BRANCH  18  23
HETATM   23  N   UNL     1      40.963 -14.151  -1.196  1.00  0.00    -0.291 NA
HETATM   24  C   UNL     1      41.972 -13.357  -1.900  1.00  0.00     0.116 C 
HETATM   25  C   UNL     1      41.506 -15.183  -0.310  1.00  0.00     0.116 C 
ENDBRANCH  18  23
ENDBRANCH  14  17
ENDBRANCH  12  13
ENDBRANCH   1  12
BRANCH   6  26
HETATM   26  C   UNL     1      42.695 -15.307   5.390  1.00  0.00     0.235 C 
BRANCH  26  27
HETATM   27  C   UNL     1      43.614 -16.511   5.558  1.00  0.00     0.032 C 
BRANCH  27  28
HETATM   28  C   UNL     1      42.884 -17.854   5.611  1.00  0.00     0.040 C 
BRANCH  28  29
HETATM   29  C   UNL     1      43.357 -18.760   4.505  1.00  0.00    -0.058 A 
HETATM   30  C   UNL     1      44.351 -19.718   4.753  1.00  0.00     0.007 A 
HETATM   31  C   UNL     1      44.823 -20.528   3.720  1.00  0.00     0.001 A 
HETATM   32  C   UNL     1      44.311 -20.386   2.432  1.00  0.00     0.000 A 
HETATM   33  C   UNL     1      43.326 -19.435   2.176  1.00  0.00     0.001 A 
HETATM   34  C   UNL     1      42.851 -18.623   3.206  1.00  0.00     0.007 A 
ENDBRANCH  28  29
ENDBRANCH  27  28
ENDBRANCH  26  27
ENDBRANCH   6  26
TORSDOF 8
ENDMDL
MODEL 9
REMARK VINA RESULT:      -8.3      4.474      8.231
REMARK  8 active torsions:
REMARK  status: ('A' for Active; 'I' for Inactive)
REMARK    1  A    between atoms: N_2  and  C_3 
REMARK    2  A    between atoms: C_4  and  C_5 
REMARK       I    between atoms: C_5  and  N_6 
REMARK    3  A    between atoms: N_6  and  C_7 
REMARK    4  A    between atoms: C_7  and  C_8 
REMARK    5  A    between atoms: N_13  and  C_15 
REMARK    6  A    between atoms: C_15  and  C_16 
REMARK    7  A    between atoms: C_16  and  C_17 
REMARK    8  A    between atoms: C_17  and  C_18 
ROOT
HETATM    1  C   UNL     1      39.846 -13.724   4.482  1.00  0.00     0.140 C 
HETATM    2  O   UNL     1      39.644 -14.165   3.125  1.00  0.00    -0.373 OA
HETATM    3  C   UNL     1      39.768 -13.044   2.228  1.00  0.00     0.064 C 
HETATM    4  C   UNL     1      38.469 -12.998   1.416  1.00  0.00     0.066 C 
HETATM    5  C   UNL     1      38.313 -14.244   0.547  1.00  0.00     0.237 C 
HETATM    6  N   UNL     1      39.518 -14.441  -0.354  1.00  0.00    -0.071 N 
HETATM    7  H   UNL     1      39.400 -15.381  -0.751  1.00  0.00     0.279 HD
HETATM    8  C   UNL     1      40.784 -14.539   0.483  1.00  0.00     0.237 C 
HETATM    9  C   UNL     1      40.965 -13.272   1.300  1.00  0.00     0.066 C 
HETATM   10  C   UNL     1      39.963 -11.801   3.100  1.00  0.00     0.041 C 
HETATM   11  C   UNL     1      39.487 -12.249   4.463  1.00  0.00     0.036 C 
ENDROOT
BRANCH   1  12
HETATM   12  C   UNL     1      41.298 -13.987   4.927  1.00  0.00     0.155 C 
BRANCH  12  13
HETATM   13  N   UNL     1      41.828 -15.216   4.361  1.00  0.00    -0.354 N 
HETATM   14  C   UNL     1      43.037 -15.272   3.690  1.00  0.00     0.253 C 
HETATM   15  O   UNL     1      43.780 -14.309   3.542  1.00  0.00    -0.268 OA
HETATM   16  H   UNL     1      41.232 -16.035   4.353  1.00  0.00     0.162 HD
BRANCH  14  17
HETATM   17  C   UNL     1      43.387 -16.631   3.182  1.00  0.00     0.053 A 
HETATM   18  C   UNL     1      43.660 -17.712   4.051  1.00  0.00     0.025 A 
HETATM   19  C   UNL     1      43.992 -18.947   3.457  1.00  0.00     0.025 A 
HETATM   20  C   UNL     1      44.036 -19.109   2.068  1.00  0.00     0.002 A 
HETATM   21  C   UNL     1      43.744 -18.039   1.231  1.00  0.00     0.001 A 
HETATM   22  C   UNL     1      43.417 -16.805   1.785  1.00  0.00     0.019 A 
BRANCH  18  23
HETATM   23  N   UNL     1      43.670 -17.553   5.461  1.00  0.00    -0.291 NA
HETATM   24  C   UNL     1      44.925 -18.047   6.030  1.00  0.00     0.116 C 
HETATM   25  C   UNL     1      42.462 -18.037   6.135  1.00  0.00     0.116 C 
ENDBRANCH  18  23
ENDBRANCH  14  17
ENDBRANCH  12  13
ENDBRANCH   1  12
BRANCH   6  26
HETATM   26  C   UNL     1      39.540 -13.476  -1.518  1.00  0.00     0.235 C 
BRANCH  26  27
HETATM   27  C   UNL     1      40.076 -14.077  -2.813  1.00  0.00     0.032 C 
BRANCH  27  28
HETATM   28  C   UNL     1      41.599 -14.025  -2.944  1.00  0.00     0.040 C 
BRANCH  28  29
HETATM   29  C   UNL     1      42.085 -12.600  -2.910  1.00  0.00    -0.058 A 
HETATM   30  C   UNL     1      42.762 -12.111  -1.783  1.00  0.00     0.007 A 
HETATM   31  C   UNL     1      43.174 -10.779  -1.731  1.00  0.00     0.001 A 
HETATM   32  C   UNL     1      42.912  -9.924  -2.800  1.00  0.00     0.000 A 
HETATM   33  C   UNL     1      42.238 -10.401  -3.922  1.00  0.00     0.001 A 
HETATM   34  C   UNL     1      41.824 -11.732  -3.978  1.00  0.00     0.007 A 
ENDBRANCH  28  29
ENDBRANCH  27  28
ENDBRANCH  26  27
ENDBRANCH   6  26
TORSDOF 8
ENDMDL
MODEL 10
REMARK VINA RESULT:      -8.0      2.160      9.523
REMARK  8 active torsions:
REMARK  status: ('A' for Active; 'I' for Inactive)
REMARK    1  A    between atoms: N_2  and  C_3 
REMARK    2  A    between atoms: C_4  and  C_5 
REMARK       I    between atoms: C_5  and  N_6 
REMARK    3  A    between atoms: N_6  and  C_7 
REMARK    4  A    between atoms: C_7  and  C_8 
REMARK    5  A    between atoms: N_13  and  C_15 
REMARK    6  A    between atoms: C_15  and  C_16 
REMARK    7  A    between atoms: C_16  and  C_17 
REMARK    8  A    between atoms: C_17  and  C_18 
ROOT
HETATM    1  C   UNL     1      40.818 -16.338   3.838  1.00  0.00     0.140 C 
HETATM    2  O   UNL     1      40.819 -14.930   4.147  1.00  0.00    -0.373 OA
HETATM    3  C   UNL     1      41.358 -14.724   5.467  1.00  0.00     0.064 C 
HETATM    4  C   UNL     1      40.297 -13.939   6.246  1.00  0.00     0.066 C 
HETATM    5  C   UNL     1      40.074 -12.555   5.639  1.00  0.00     0.237 C 
HETATM    6  N   UNL     1      41.374 -11.779   5.546  1.00  0.00    -0.071 N 
HETATM    7  H   UNL     1      41.151 -10.958   4.970  1.00  0.00     0.279 HD
HETATM    8  C   UNL     1      42.388 -12.557   4.721  1.00  0.00     0.237 C 
HETATM    9  C   UNL     1      42.650 -13.908   5.363  1.00  0.00     0.066 C 
HETATM   10  C   UNL     1      41.618 -16.112   6.059  1.00  0.00     0.041 C 
HETATM   11  C   UNL     1      40.783 -17.027   5.191  1.00  0.00     0.036 C 
ENDROOT
BRANCH   1  12
HETATM   12  C   UNL     1      42.058 -16.710   3.002  1.00  0.00     0.155 C 
BRANCH  12  13
HETATM   13  N   UNL     1      42.599 -18.006   3.376  1.00  0.00    -0.354 N 
HETATM   14  C   UNL     1      43.729 -18.545   2.786  1.00  0.00     0.253 C 
HETATM   15  O   UNL     1      44.389 -17.973   1.927  1.00  0.00    -0.268 OA
HETATM   16  H   UNL     1      42.059 -18.586   4.006  1.00  0.00     0.162 HD
BRANCH  14  17
HETATM   17  C   UNL     1      44.107 -19.890   3.312  1.00  0.00     0.053 A 
HETATM   18  C   UNL     1      44.316 -20.127   4.690  1.00  0.00     0.025 A 
HETATM   19  C   UNL     1      44.682 -21.435   5.069  1.00  0.00     0.025 A 
HETATM   20  C   UNL     1      44.817 -22.464   4.130  1.00  0.00     0.002 A 
HETATM   21  C   UNL     1      44.588 -22.215   2.784  1.00  0.00     0.001 A 
HETATM   22  C   UNL     1      44.229 -20.934   2.374  1.00  0.00     0.019 A 
BRANCH  18  23
HETATM   23  N   UNL     1      44.231 -19.084   5.649  1.00  0.00    -0.291 NA
HETATM   24  C   UNL     1      45.549 -18.493   5.888  1.00  0.00     0.116 C 
HETATM   25  C   UNL     1      43.490 -19.434   6.863  1.00  0.00     0.116 C 
ENDBRANCH  18  23
ENDBRANCH  14  17
ENDBRANCH  12  13
ENDBRANCH   1  12
BRANCH   6  26
HETATM   26  C   UNL     1      41.840 -11.256   6.887  1.00  0.00     0.235 C 
BRANCH  26  27
HETATM   27  C   UNL     1      40.711 -10.781   7.794  1.00  0.00     0.032 C 
BRANCH  27  28
HETATM   28  C   UNL     1      41.108  -9.656   8.751  1.00  0.00     0.040 C 
BRANCH  28  29
HETATM   29  C   UNL     1      41.655 -10.223  10.036  1.00  0.00    -0.058 A 
HETATM   30  C   UNL     1      43.038 -10.249  10.265  1.00  0.00     0.007 A 
HETATM   31  C   UNL     1      43.548 -10.814  11.435  1.00  0.00     0.001 A 
HETATM   32  C   UNL     1      42.684 -11.359  12.382  1.00  0.00     0.000 A 
HETATM   33  C   UNL     1      41.309 -11.340  12.161  1.00  0.00     0.001 A 
HETATM   34  C   UNL     1      40.794 -10.776  10.993  1.00  0.00     0.007 A 
ENDBRANCH  28  29
ENDBRANCH  27  28
ENDBRANCH  26  27
ENDBRANCH   6  26
TORSDOF 8
ENDMDL
