MODEL 1
REMARK VINA RESULT:      -9.1      0.000      0.000
REMARK  6 active torsions:
REMARK  status: ('A' for Active; 'I' for Inactive)
REMARK    1  A    between atoms: C_2  and  O_3 
REMARK    2  A    between atoms: O_3  and  C_4 
REMARK    3  A    between atoms: C_5  and  O_6 
REMARK    4  A    between atoms: O_6  and  C_7 
REMARK    5  A    between atoms: C_7  and  C_8 
REMARK    6  A    between atoms: C_16  and  C_17 
ROOT
HETATM    1  C   UNL     1      42.010 -16.014   3.046  1.00  0.00     0.102 A 
HETATM    2  C   UNL     1      42.310 -17.345   2.732  1.00  0.00     0.102 A 
HETATM    3  C   UNL     1      42.249 -17.766   1.401  1.00  0.00     0.040 A 
HETATM    4  C   UNL     1      41.933 -16.855   0.386  1.00  0.00     0.014 A 
HETATM    5  C   UNL     1      41.666 -15.511   0.687  1.00  0.00    -0.007 A 
HETATM    6  C   UNL     1      41.724 -15.099   2.028  1.00  0.00     0.051 A 
ENDROOT
BRANCH   5   7
HETATM    7  C   UNL     1      41.379 -14.513  -0.415  1.00  0.00     0.264 C 
HETATM    8  O   UNL     1      42.350 -13.457  -0.363  1.00  0.00    -0.321 OA
HETATM    9  C   UNL     1      42.315 -12.634  -1.456  1.00  0.00     0.087 A 
HETATM   10  C   UNL     1      41.819 -13.042  -2.694  1.00  0.00     0.065 A 
HETATM   11  C   UNL     1      42.849 -11.355  -1.310  1.00  0.00     0.038 A 
HETATM   12  C   UNL     1      41.348 -14.430  -2.835  1.00  0.00     0.256 C 
HETATM   13  C   UNL     1      41.827 -12.170  -3.785  1.00  0.00     0.020 A 
HETATM   14  O   UNL     1      40.965 -14.893  -3.899  1.00  0.00    -0.267 OA
HETATM   15  N   UNL     1      41.392 -15.172  -1.689  1.00  0.00    -0.326 N 
HETATM   16  H   UNL     1      40.980 -16.093  -1.767  1.00  0.00     0.165 HD
HETATM   17  C   UNL     1      42.344 -10.883  -3.632  1.00  0.00     0.001 A 
HETATM   18  C   UNL     1      42.857 -10.478  -2.398  1.00  0.00     0.003 A 
ENDBRANCH   5   7
BRANCH   1  19
HETATM   19  O   UNL     1      42.112 -15.608   4.352  1.00  0.00    -0.349 OA
BRANCH  19  20
HETATM   20  C   UNL     1      40.849 -15.400   4.991  1.00  0.00     0.171 C 
HETATM   21  C   UNL     1      40.761 -16.296   6.214  1.00  0.00     0.034 C 
ENDBRANCH  19  20
ENDBRANCH   1  19
BRANCH   2  22
HETATM   22  O   UNL     1      42.598 -18.179   3.782  1.00  0.00    -0.344 OA
BRANCH  22  23
HETATM   23  C   UNL     1      43.987 -18.412   4.019  1.00  0.00     0.214 C 
BRANCH  23  24
HETATM   24  C   UNL     1      44.272 -19.889   3.882  1.00  0.00    -0.034 A 
HETATM   25  C   UNL     1      44.631 -20.657   4.999  1.00  0.00     0.009 A 
HETATM   26  C   UNL     1      44.859 -22.030   4.871  1.00  0.00     0.001 A 
HETATM   27  C   UNL     1      44.722 -22.648   3.630  1.00  0.00     0.000 A 
HETATM   28  C   UNL     1      44.359 -21.897   2.514  1.00  0.00     0.001 A 
HETATM   29  C   UNL     1      44.133 -20.526   2.640  1.00  0.00     0.009 A 
ENDBRANCH  23  24
ENDBRANCH  22  23
ENDBRANCH   2  22
TORSDOF 6
ENDMDL
MODEL 2
REMARK VINA RESULT:      -8.4      1.508      3.164
REMARK  6 active torsions:
REMARK  status: ('A' for Active; 'I' for Inactive)
REMARK    1  A    between atoms: C_2  and  O_3 
REMARK    2  A    between atoms: O_3  and  C_4 
REMARK    3  A    between atoms: C_5  and  O_6 
REMARK    4  A    between atoms: O_6  and  C_7 
REMARK    5  A    between atoms: C_7  and  C_8 
REMARK    6  A    between atoms: C_16  and  C_17 
ROOT
HETATM    1  C   UNL     1      41.624 -17.109   1.813  1.00  0.00     0.102 A 
HETATM    2  C   UNL     1      41.082 -16.690   3.034  1.00  0.00     0.102 A 
HETATM    3  C   UNL     1      40.592 -15.387   3.154  1.00  0.00     0.040 A 
HETATM    4  C   UNL     1      40.604 -14.523   2.052  1.00  0.00     0.014 A 
HETATM    5  C   UNL     1      41.112 -14.947   0.815  1.00  0.00    -0.007 A 
HETATM    6  C   UNL     1      41.607 -16.256   0.706  1.00  0.00     0.051 A 
ENDROOT
BRANCH   5   7
HETATM    7  C   UNL     1      41.073 -14.033  -0.392  1.00  0.00     0.264 C 
HETATM    8  O   UNL     1      42.036 -12.983  -0.223  1.00  0.00    -0.321 OA
HETATM    9  C   UNL     1      42.238 -12.244  -1.358  1.00  0.00     0.087 A 
HETATM   10  C   UNL     1      41.990 -12.741  -2.637  1.00  0.00     0.065 A 
HETATM   11  C   UNL     1      42.759 -10.962  -1.201  1.00  0.00     0.038 A 
HETATM   12  C   UNL     1      41.527 -14.132  -2.769  1.00  0.00     0.256 C 
HETATM   13  C   UNL     1      42.234 -11.954  -3.765  1.00  0.00     0.020 A 
HETATM   14  O   UNL     1      41.353 -14.672  -3.851  1.00  0.00    -0.267 OA
HETATM   15  N   UNL     1      41.325 -14.787  -1.586  1.00  0.00    -0.326 N 
HETATM   16  H   UNL     1      40.917 -15.708  -1.678  1.00  0.00     0.165 HD
HETATM   17  C   UNL     1      42.738 -10.663  -3.605  1.00  0.00     0.001 A 
HETATM   18  C   UNL     1      43.004 -10.169  -2.326  1.00  0.00     0.003 A 
ENDBRANCH   5   7
BRANCH   1  19
HETATM   19  O   UNL     1      42.065 -18.403   1.701  1.00  0.00    -0.349 OA
BRANCH  19  20
HETATM   20  C   UNL     1      43.488 -18.520   1.599  1.00  0.00     0.171 C 
HETATM   21  C   UNL     1      43.914 -19.865   2.161  1.00  0.00     0.034 C 
ENDBRANCH  19  20
ENDBRANCH   1  19
BRANCH   2  22
HETATM   22  O   UNL     1      41.118 -17.588   4.069  1.00  0.00    -0.344 OA
BRANCH  22  23
HETATM   23  C   UNL     1      41.201 -17.017   5.375  1.00  0.00     0.214 C 
BRANCH  23  24
HETATM   24  C   UNL     1      42.470 -17.492   6.043  1.00  0.00    -0.034 A 
HETATM   25  C   UNL     1      43.546 -17.971   5.282  1.00  0.00     0.009 A 
HETATM   26  C   UNL     1      44.730 -18.375   5.904  1.00  0.00     0.001 A 
HETATM   27  C   UNL     1      44.853 -18.296   7.290  1.00  0.00     0.000 A 
HETATM   28  C   UNL     1      43.794 -17.816   8.056  1.00  0.00     0.001 A 
HETATM   29  C   UNL     1      42.610 -17.413   7.437  1.00  0.00     0.009 A 
ENDBRANCH  23  24
ENDBRANCH  22  23
ENDBRANCH   2  22
TORSDOF 6
ENDMDL
MODEL 3
REMARK VINA RESULT:      -8.4      2.432      8.598
REMARK  6 active torsions:
REMARK  status: ('A' for Active; 'I' for Inactive)
REMARK    1  A    between atoms: C_2  and  O_3 
REMARK    2  A    between atoms: O_3  and  C_4 
REMARK    3  A    between atoms: C_5  and  O_6 
REMARK    4  A    between atoms: O_6  and  C_7 
REMARK    5  A    between atoms: C_7  and  C_8 
REMARK    6  A    between atoms: C_16  and  C_17 
ROOT
HETATM    1  C   UNL     1      42.527 -14.696   1.953  1.00  0.00     0.102 A 
HETATM    2  C   UNL     1      41.636 -14.862   0.885  1.00  0.00     0.102 A 
HETATM    3  C   UNL     1      41.180 -16.143   0.566  1.00  0.00     0.040 A 
HETATM    4  C   UNL     1      41.576 -17.245   1.334  1.00  0.00     0.014 A 
HETATM    5  C   UNL     1      42.439 -17.084   2.428  1.00  0.00    -0.007 A 
HETATM    6  C   UNL     1      42.896 -15.793   2.737  1.00  0.00     0.051 A 
ENDROOT
BRANCH   5   7
HETATM    7  C   UNL     1      42.822 -18.266   3.293  1.00  0.00     0.264 C 
HETATM    8  O   UNL     1      43.325 -19.321   2.460  1.00  0.00    -0.321 OA
HETATM    9  C   UNL     1      43.911 -20.337   3.165  1.00  0.00     0.087 A 
HETATM   10  C   UNL     1      44.450 -20.161   4.439  1.00  0.00     0.065 A 
HETATM   11  C   UNL     1      44.000 -21.579   2.539  1.00  0.00     0.038 A 
HETATM   12  C   UNL     1      44.419 -18.813   5.030  1.00  0.00     0.256 C 
HETATM   13  C   UNL     1      45.057 -21.226   5.107  1.00  0.00     0.020 A 
HETATM   14  O   UNL     1      44.930 -18.552   6.108  1.00  0.00    -0.267 OA
HETATM   15  N   UNL     1      43.792 -17.865   4.271  1.00  0.00    -0.326 N 
HETATM   16  H   UNL     1      43.688 -16.965   4.720  1.00  0.00     0.165 HD
HETATM   17  C   UNL     1      45.129 -22.474   4.488  1.00  0.00     0.001 A 
HETATM   18  C   UNL     1      44.605 -22.649   3.205  1.00  0.00     0.003 A 
ENDBRANCH   5   7
BRANCH   1  19
HETATM   19  O   UNL     1      42.934 -13.428   2.276  1.00  0.00    -0.349 OA
BRANCH  19  20
HETATM   20  C   UNL     1      42.630 -13.049   3.622  1.00  0.00     0.171 C 
HETATM   21  C   UNL     1      41.366 -12.206   3.625  1.00  0.00     0.034 C 
ENDBRANCH  19  20
ENDBRANCH   1  19
BRANCH   2  22
HETATM   22  O   UNL     1      41.306 -13.738   0.174  1.00  0.00    -0.344 OA
BRANCH  22  23
HETATM   23  C   UNL     1      41.706 -13.737  -1.196  1.00  0.00     0.214 C 
BRANCH  23  24
HETATM   24  C   UNL     1      40.556 -14.220  -2.049  1.00  0.00    -0.034 A 
HETATM   25  C   UNL     1      40.739 -15.251  -2.983  1.00  0.00     0.009 A 
HETATM   26  C   UNL     1      39.664 -15.717  -3.743  1.00  0.00     0.001 A 
HETATM   27  C   UNL     1      38.395 -15.164  -3.572  1.00  0.00     0.000 A 
HETATM   28  C   UNL     1      38.200 -14.145  -2.643  1.00  0.00     0.001 A 
HETATM   29  C   UNL     1      39.273 -13.677  -1.884  1.00  0.00     0.009 A 
ENDBRANCH  23  24
ENDBRANCH  22  23
ENDBRANCH   2  22
TORSDOF 6
ENDMDL
MODEL 4
REMARK VINA RESULT:      -8.4      1.999      9.042
REMARK  6 active torsions:
REMARK  status: ('A' for Active; 'I' for Inactive)
REMARK    1  A    between atoms: C_2  and  O_3 
REMARK    2  A    between atoms: O_3  and  C_4 
REMARK    3  A    between atoms: C_5  and  O_6 
REMARK    4  A    between atoms: O_6  and  C_7 
REMARK    5  A    between atoms: C_7  and  C_8 
REMARK    6  A    between atoms: C_16  and  C_17 
ROOT
HETATM    1  C   UNL     1      41.191 -14.960   0.429  1.00  0.00     0.102 A 
HETATM    2  C   UNL     1      41.675 -13.746   0.931  1.00  0.00     0.102 A 
HETATM    3  C   UNL     1      42.398 -13.739   2.127  1.00  0.00     0.040 A 
HETATM    4  C   UNL     1      42.672 -14.939   2.794  1.00  0.00     0.014 A 
HETATM    5  C   UNL     1      42.221 -16.164   2.279  1.00  0.00    -0.007 A 
HETATM    6  C   UNL     1      41.492 -16.160   1.080  1.00  0.00     0.051 A 
ENDROOT
BRANCH   5   7
HETATM    7  C   UNL     1      42.566 -17.467   2.969  1.00  0.00     0.264 C 
HETATM    8  O   UNL     1      42.988 -18.426   1.989  1.00  0.00    -0.321 OA
HETATM    9  C   UNL     1      43.538 -19.554   2.535  1.00  0.00     0.087 A 
HETATM   10  C   UNL     1      44.122 -19.573   3.801  1.00  0.00     0.065 A 
HETATM   11  C   UNL     1      43.543 -20.706   1.751  1.00  0.00     0.038 A 
HETATM   12  C   UNL     1      44.180 -18.315   4.563  1.00  0.00     0.256 C 
HETATM   13  C   UNL     1      44.691 -20.746   4.304  1.00  0.00     0.020 A 
HETATM   14  O   UNL     1      44.736 -18.223   5.647  1.00  0.00    -0.267 OA
HETATM   15  N   UNL     1      43.583 -17.246   3.956  1.00  0.00    -0.326 N 
HETATM   16  H   UNL     1      43.541 -16.409   4.522  1.00  0.00     0.165 HD
HETATM   17  C   UNL     1      44.679 -21.903   3.526  1.00  0.00     0.001 A 
HETATM   18  C   UNL     1      44.109 -21.883   2.250  1.00  0.00     0.003 A 
ENDBRANCH   5   7
BRANCH   1  19
HETATM   19  O   UNL     1      40.517 -14.954  -0.765  1.00  0.00    -0.349 OA
BRANCH  19  20
HETATM   20  C   UNL     1      41.075 -15.832  -1.747  1.00  0.00     0.171 C 
HETATM   21  C   UNL     1      40.438 -15.536  -3.094  1.00  0.00     0.034 C 
ENDBRANCH  19  20
ENDBRANCH   1  19
BRANCH   2  22
HETATM   22  O   UNL     1      41.355 -12.613   0.229  1.00  0.00    -0.344 OA
BRANCH  22  23
HETATM   23  C   UNL     1      42.446 -11.736  -0.054  1.00  0.00     0.214 C 
BRANCH  23  24
HETATM   24  C   UNL     1      42.418 -11.366  -1.518  1.00  0.00    -0.034 A 
HETATM   25  C   UNL     1      42.593 -10.036  -1.925  1.00  0.00     0.009 A 
HETATM   26  C   UNL     1      42.601  -9.706  -3.283  1.00  0.00     0.001 A 
HETATM   27  C   UNL     1      42.444 -10.702  -4.245  1.00  0.00     0.000 A 
HETATM   28  C   UNL     1      42.277 -12.028  -3.853  1.00  0.00     0.001 A 
HETATM   29  C   UNL     1      42.267 -12.359  -2.498  1.00  0.00     0.009 A 
ENDBRANCH  23  24
ENDBRANCH  22  23
ENDBRANCH   2  22
TORSDOF 6
ENDMDL
MODEL 5
REMARK VINA RESULT:      -8.3      5.291      8.586
REMARK  6 active torsions:
REMARK  status: ('A' for Active; 'I' for Inactive)
REMARK    1  A    between atoms: C_2  and  O_3 
REMARK    2  A    between atoms: O_3  and  C_4 
REMARK    3  A    between atoms: C_5  and  O_6 
REMARK    4  A    between atoms: O_6  and  C_7 
REMARK    5  A    between atoms: C_7  and  C_8 
REMARK    6  A    between atoms: C_16  and  C_17 
ROOT
HETATM    1  C   UNL     1      42.702 -14.035   4.886  1.00  0.00     0.102 A 
HETATM    2  C   UNL     1      43.218 -15.334   4.974  1.00  0.00     0.102 A 
HETATM    3  C   UNL     1      44.066 -15.663   6.035  1.00  0.00     0.040 A 
HETATM    4  C   UNL     1      44.363 -14.716   7.022  1.00  0.00     0.014 A 
HETATM    5  C   UNL     1      43.822 -13.424   6.961  1.00  0.00    -0.007 A 
HETATM    6  C   UNL     1      42.975 -13.101   5.889  1.00  0.00     0.051 A 
ENDROOT
BRANCH   5   7
HETATM    7  C   UNL     1      44.097 -12.417   8.058  1.00  0.00     0.264 C 
HETATM    8  O   UNL     1      42.899 -11.676   8.333  1.00  0.00    -0.321 OA
HETATM    9  C   UNL     1      42.983 -10.907   9.462  1.00  0.00     0.087 A 
HETATM   10  C   UNL     1      43.861 -11.193  10.507  1.00  0.00     0.065 A 
HETATM   11  C   UNL     1      42.110  -9.826   9.566  1.00  0.00     0.038 A 
HETATM   12  C   UNL     1      44.704 -12.396  10.402  1.00  0.00     0.256 C 
HETATM   13  C   UNL     1      43.892 -10.390  11.649  1.00  0.00     0.020 A 
HETATM   14  O   UNL     1      45.448 -12.762  11.300  1.00  0.00    -0.267 OA
HETATM   15  N   UNL     1      44.577 -13.088   9.232  1.00  0.00    -0.326 N 
HETATM   16  H   UNL     1      45.225 -13.857   9.123  1.00  0.00     0.165 HD
HETATM   17  C   UNL     1      43.031  -9.297  11.744  1.00  0.00     0.001 A 
HETATM   18  C   UNL     1      42.138  -9.018  10.706  1.00  0.00     0.003 A 
ENDBRANCH   5   7
BRANCH   1  19
HETATM   19  O   UNL     1      41.841 -13.740   3.861  1.00  0.00    -0.349 OA
BRANCH  19  20
HETATM   20  C   UNL     1      40.557 -13.284   4.298  1.00  0.00     0.171 C 
HETATM   21  C   UNL     1      39.845 -14.422   5.009  1.00  0.00     0.034 C 
ENDBRANCH  19  20
ENDBRANCH   1  19
BRANCH   2  22
HETATM   22  O   UNL     1      42.892 -16.200   3.963  1.00  0.00    -0.344 OA
BRANCH  22  23
HETATM   23  C   UNL     1      42.266 -17.416   4.373  1.00  0.00     0.214 C 
BRANCH  23  24
HETATM   24  C   UNL     1      43.083 -18.586   3.877  1.00  0.00    -0.034 A 
HETATM   25  C   UNL     1      42.956 -19.042   2.557  1.00  0.00     0.009 A 
HETATM   26  C   UNL     1      43.740 -20.102   2.095  1.00  0.00     0.001 A 
HETATM   27  C   UNL     1      44.663 -20.711   2.944  1.00  0.00     0.000 A 
HETATM   28  C   UNL     1      44.803 -20.262   4.255  1.00  0.00     0.001 A 
HETATM   29  C   UNL     1      44.020 -19.204   4.719  1.00  0.00     0.009 A 
ENDBRANCH  23  24
ENDBRANCH  22  23
ENDBRANCH   2  22
TORSDOF 6
ENDMDL
MODEL 6
REMARK VINA RESULT:      -8.2      5.566      9.181
REMARK  6 active torsions:
REMARK  status: ('A' for Active; 'I' for Inactive)
REMARK    1  A    between atoms: C_2  and  O_3 
REMARK    2  A    between atoms: O_3  and  C_4 
REMARK    3  A    between atoms: C_5  and  O_6 
REMARK    4  A    between atoms: O_6  and  C_7 
REMARK    5  A    between atoms: C_7  and  C_8 
REMARK    6  A    between atoms: C_16  and  C_17 
ROOT
HETATM    1  C   UNL     1      42.623 -14.745   5.960  1.00  0.00     0.102 A 
HETATM    2  C   UNL     1      43.728 -14.375   6.736  1.00  0.00     0.102 A 
HETATM    3  C   UNL     1      44.686 -15.338   7.067  1.00  0.00     0.040 A 
HETATM    4  C   UNL     1      44.564 -16.649   6.591  1.00  0.00     0.014 A 
HETATM    5  C   UNL     1      43.479 -17.019   5.783  1.00  0.00    -0.007 A 
HETATM    6  C   UNL     1      42.519 -16.047   5.461  1.00  0.00     0.051 A 
ENDROOT
BRANCH   5   7
HETATM    7  C   UNL     1      43.376 -18.422   5.221  1.00  0.00     0.264 C 
HETATM    8  O   UNL     1      43.839 -18.424   3.863  1.00  0.00    -0.321 OA
HETATM    9  C   UNL     1      44.002 -19.681   3.347  1.00  0.00     0.087 A 
HETATM   10  C   UNL     1      44.229 -20.802   4.145  1.00  0.00     0.065 A 
HETATM   11  C   UNL     1      43.983 -19.810   1.960  1.00  0.00     0.038 A 
HETATM   12  C   UNL     1      44.335 -20.613   5.601  1.00  0.00     0.256 C 
HETATM   13  C   UNL     1      44.412 -22.060   3.568  1.00  0.00     0.020 A 
HETATM   14  O   UNL     1      44.603 -21.525   6.369  1.00  0.00    -0.267 OA
HETATM   15  N   UNL     1      44.132 -19.332   6.032  1.00  0.00    -0.326 N 
HETATM   16  H   UNL     1      44.110 -19.224   7.038  1.00  0.00     0.165 HD
HETATM   17  C   UNL     1      44.373 -22.191   2.179  1.00  0.00     0.001 A 
HETATM   18  C   UNL     1      44.163 -21.067   1.376  1.00  0.00     0.003 A 
ENDBRANCH   5   7
BRANCH   1  19
HETATM   19  O   UNL     1      41.713 -13.780   5.613  1.00  0.00    -0.349 OA
BRANCH  19  20
HETATM   20  C   UNL     1      40.352 -14.215   5.694  1.00  0.00     0.171 C 
HETATM   21  C   UNL     1      39.449 -12.997   5.779  1.00  0.00     0.034 C 
ENDBRANCH  19  20
ENDBRANCH   1  19
BRANCH   2  22
HETATM   22  O   UNL     1      43.771 -13.077   7.175  1.00  0.00    -0.344 OA
BRANCH  22  23
HETATM   23  C   UNL     1      44.759 -12.795   8.166  1.00  0.00     0.214 C 
BRANCH  23  24
HETATM   24  C   UNL     1      44.113 -12.055   9.314  1.00  0.00    -0.034 A 
HETATM   25  C   UNL     1      43.245 -10.980   9.077  1.00  0.00     0.009 A 
HETATM   26  C   UNL     1      42.624 -10.323  10.142  1.00  0.00     0.001 A 
HETATM   27  C   UNL     1      42.858 -10.739  11.451  1.00  0.00     0.000 A 
HETATM   28  C   UNL     1      43.712 -11.810  11.699  1.00  0.00     0.001 A 
HETATM   29  C   UNL     1      44.335 -12.467  10.637  1.00  0.00     0.009 A 
ENDBRANCH  23  24
ENDBRANCH  22  23
ENDBRANCH   2  22
TORSDOF 6
ENDMDL
MODEL 7
REMARK VINA RESULT:      -8.1      4.437      6.164
REMARK  6 active torsions:
REMARK  status: ('A' for Active; 'I' for Inactive)
REMARK    1  A    between atoms: C_2  and  O_3 
REMARK    2  A    between atoms: O_3  and  C_4 
REMARK    3  A    between atoms: C_5  and  O_6 
REMARK    4  A    between atoms: O_6  and  C_7 
REMARK    5  A    between atoms: C_7  and  C_8 
REMARK    6  A    between atoms: C_16  and  C_17 
ROOT
HETATM    1  C   UNL     1      42.013 -16.561   4.546  1.00  0.00     0.102 A 
HETATM    2  C   UNL     1      42.913 -17.058   5.496  1.00  0.00     0.102 A 
HETATM    3  C   UNL     1      43.541 -16.172   6.375  1.00  0.00     0.040 A 
HETATM    4  C   UNL     1      43.241 -14.805   6.334  1.00  0.00     0.014 A 
HETATM    5  C   UNL     1      42.313 -14.303   5.409  1.00  0.00    -0.007 A 
HETATM    6  C   UNL     1      41.692 -15.201   4.527  1.00  0.00     0.051 A 
ENDROOT
BRANCH   5   7
HETATM    7  C   UNL     1      41.945 -12.834   5.402  1.00  0.00     0.264 C 
HETATM    8  O   UNL     1      40.574 -12.690   5.005  1.00  0.00    -0.321 OA
HETATM    9  C   UNL     1      40.085 -11.425   5.191  1.00  0.00     0.087 A 
HETATM   10  C   UNL     1      40.620 -10.538   6.125  1.00  0.00     0.065 A 
HETATM   11  C   UNL     1      38.975 -11.052   4.436  1.00  0.00     0.038 A 
HETATM   12  C   UNL     1      41.734 -11.000   6.969  1.00  0.00     0.256 C 
HETATM   13  C   UNL     1      40.069  -9.266   6.292  1.00  0.00     0.020 A 
HETATM   14  O   UNL     1      42.215 -10.316   7.860  1.00  0.00    -0.267 OA
HETATM   15  N   UNL     1      42.177 -12.263   6.697  1.00  0.00    -0.326 N 
HETATM   16  H   UNL     1      43.002 -12.541   7.213  1.00  0.00     0.165 HD
HETATM   17  C   UNL     1      38.970  -8.886   5.522  1.00  0.00     0.001 A 
HETATM   18  C   UNL     1      38.421  -9.779   4.598  1.00  0.00     0.003 A 
ENDBRANCH   5   7
BRANCH   1  19
HETATM   19  O   UNL     1      41.377 -17.449   3.718  1.00  0.00    -0.349 OA
BRANCH  19  20
HETATM   20  C   UNL     1      40.653 -16.827   2.652  1.00  0.00     0.171 C 
HETATM   21  C   UNL     1      41.084 -17.447   1.334  1.00  0.00     0.034 C 
ENDBRANCH  19  20
ENDBRANCH   1  19
BRANCH   2  22
HETATM   22  O   UNL     1      43.165 -18.405   5.466  1.00  0.00    -0.344 OA
BRANCH  22  23
HETATM   23  C   UNL     1      44.459 -18.779   4.993  1.00  0.00     0.214 C 
BRANCH  23  24
HETATM   24  C   UNL     1      44.315 -19.892   3.981  1.00  0.00    -0.034 A 
HETATM   25  C   UNL     1      43.813 -19.635   2.698  1.00  0.00     0.009 A 
HETATM   26  C   UNL     1      43.716 -20.662   1.756  1.00  0.00     0.001 A 
HETATM   27  C   UNL     1      44.126 -21.953   2.085  1.00  0.00     0.000 A 
HETATM   28  C   UNL     1      44.633 -22.219   3.355  1.00  0.00     0.001 A 
HETATM   29  C   UNL     1      44.730 -21.195   4.297  1.00  0.00     0.009 A 
ENDBRANCH  23  24
ENDBRANCH  22  23
ENDBRANCH   2  22
TORSDOF 6
ENDMDL
MODEL 8
REMARK VINA RESULT:      -8.1      3.888      6.672
REMARK  6 active torsions:
REMARK  status: ('A' for Active; 'I' for Inactive)
REMARK    1  A    between atoms: C_2  and  O_3 
REMARK    2  A    between atoms: O_3  and  C_4 
REMARK    3  A    between atoms: C_5  and  O_6 
REMARK    4  A    between atoms: O_6  and  C_7 
REMARK    5  A    between atoms: C_7  and  C_8 
REMARK    6  A    between atoms: C_16  and  C_17 
ROOT
HETATM    1  C   UNL     1      40.529 -15.808   3.263  1.00  0.00     0.102 A 
HETATM    2  C   UNL     1      41.324 -16.570   4.128  1.00  0.00     0.102 A 
HETATM    3  C   UNL     1      41.611 -16.079   5.405  1.00  0.00     0.040 A 
HETATM    4  C   UNL     1      41.073 -14.858   5.830  1.00  0.00     0.014 A 
HETATM    5  C   UNL     1      40.247 -14.105   4.983  1.00  0.00    -0.007 A 
HETATM    6  C   UNL     1      39.969 -14.604   3.700  1.00  0.00     0.051 A 
ENDROOT
BRANCH   5   7
HETATM    7  C   UNL     1      39.620 -12.813   5.461  1.00  0.00     0.264 C 
HETATM    8  O   UNL     1      39.830 -12.678   6.875  1.00  0.00    -0.321 OA
HETATM    9  C   UNL     1      39.505 -11.439   7.356  1.00  0.00     0.087 A 
HETATM   10  C   UNL     1      39.497 -10.296   6.557  1.00  0.00     0.065 A 
HETATM   11  C   UNL     1      39.219 -11.338   8.716  1.00  0.00     0.038 A 
HETATM   12  C   UNL     1      39.894 -10.428   5.146  1.00  0.00     0.256 C 
HETATM   13  C   UNL     1      39.180  -9.050   7.103  1.00  0.00     0.020 A 
HETATM   14  O   UNL     1      39.986  -9.470   4.393  1.00  0.00    -0.267 OA
HETATM   15  N   UNL     1      40.175 -11.702   4.742  1.00  0.00    -0.326 N 
HETATM   16  H   UNL     1      40.354 -11.802   3.752  1.00  0.00     0.165 HD
HETATM   17  C   UNL     1      38.875  -8.953   8.461  1.00  0.00     0.001 A 
HETATM   18  C   UNL     1      38.899 -10.094   9.267  1.00  0.00     0.003 A 
ENDBRANCH   5   7
BRANCH   1  19
HETATM   19  O   UNL     1      40.225 -16.322   2.029  1.00  0.00    -0.349 OA
BRANCH  19  20
HETATM   20  C   UNL     1      40.852 -15.627   0.945  1.00  0.00     0.171 C 
HETATM   21  C   UNL     1      41.740 -16.597   0.186  1.00  0.00     0.034 C 
ENDBRANCH  19  20
ENDBRANCH   1  19
BRANCH   2  22
HETATM   22  O   UNL     1      41.822 -17.748   3.636  1.00  0.00    -0.344 OA
BRANCH  22  23
HETATM   23  C   UNL     1      43.232 -17.771   3.407  1.00  0.00     0.214 C 
BRANCH  23  24
HETATM   24  C   UNL     1      43.671 -19.196   3.161  1.00  0.00    -0.034 A 
HETATM   25  C   UNL     1      44.422 -19.890   4.120  1.00  0.00     0.009 A 
HETATM   26  C   UNL     1      44.794 -21.219   3.902  1.00  0.00     0.001 A 
HETATM   27  C   UNL     1      44.413 -21.868   2.728  1.00  0.00     0.000 A 
HETATM   28  C   UNL     1      43.661 -21.191   1.772  1.00  0.00     0.001 A 
HETATM   29  C   UNL     1      43.289 -19.863   1.988  1.00  0.00     0.009 A 
ENDBRANCH  23  24
ENDBRANCH  22  23
ENDBRANCH   2  22
TORSDOF 6
ENDMDL
MODEL 9
REMARK VINA RESULT:      -8.0      1.554      2.293
REMARK  6 active torsions:
REMARK  status: ('A' for Active; 'I' for Inactive)
REMARK    1  A    between atoms: C_2  and  O_3 
REMARK    2  A    between atoms: O_3  and  C_4 
REMARK    3  A    between atoms: C_5  and  O_6 
REMARK    4  A    between atoms: O_6  and  C_7 
REMARK    5  A    between atoms: C_7  and  C_8 
REMARK    6  A    between atoms: C_16  and  C_17 
ROOT
HETATM    1  C   UNL     1      41.478 -15.891   3.039  1.00  0.00     0.102 A 
HETATM    2  C   UNL     1      41.685 -17.245   2.754  1.00  0.00     0.102 A 
HETATM    3  C   UNL     1      41.672 -17.675   1.424  1.00  0.00     0.040 A 
HETATM    4  C   UNL     1      41.496 -16.753   0.386  1.00  0.00     0.014 A 
HETATM    5  C   UNL     1      41.323 -15.388   0.661  1.00  0.00    -0.007 A 
HETATM    6  C   UNL     1      41.333 -14.967   2.000  1.00  0.00     0.051 A 
ENDROOT
BRANCH   5   7
HETATM    7  C   UNL     1      41.190 -14.383  -0.464  1.00  0.00     0.264 C 
HETATM    8  O   UNL     1      42.170 -13.348  -0.294  1.00  0.00    -0.321 OA
HETATM    9  C   UNL     1      42.281 -12.523  -1.381  1.00  0.00     0.087 A 
HETATM   10  C   UNL     1      41.925 -12.918  -2.670  1.00  0.00     0.065 A 
HETATM   11  C   UNL     1      42.821 -11.256  -1.167  1.00  0.00     0.038 A 
HETATM   12  C   UNL     1      41.444 -14.296  -2.870  1.00  0.00     0.256 C 
HETATM   13  C   UNL     1      42.080 -12.046  -3.749  1.00  0.00     0.020 A 
HETATM   14  O   UNL     1      41.179 -14.749  -3.974  1.00  0.00    -0.267 OA
HETATM   15  N   UNL     1      41.338 -15.041  -1.730  1.00  0.00    -0.326 N 
HETATM   16  H   UNL     1      40.918 -15.952  -1.859  1.00  0.00     0.165 HD
HETATM   17  C   UNL     1      42.602 -10.771  -3.531  1.00  0.00     0.001 A 
HETATM   18  C   UNL     1      42.976 -10.378  -2.243  1.00  0.00     0.003 A 
ENDBRANCH   5   7
BRANCH   1  19
HETATM   19  O   UNL     1      41.533 -15.480   4.346  1.00  0.00    -0.349 OA
BRANCH  19  20
HETATM   20  C   UNL     1      41.596 -14.059   4.503  1.00  0.00     0.171 C 
HETATM   21  C   UNL     1      42.733 -13.717   5.449  1.00  0.00     0.034 C 
ENDBRANCH  19  20
ENDBRANCH   1  19
BRANCH   2  22
HETATM   22  O   UNL     1      41.838 -18.088   3.824  1.00  0.00    -0.344 OA
BRANCH  22  23
HETATM   23  C   UNL     1      43.161 -18.580   4.036  1.00  0.00     0.214 C 
BRANCH  23  24
HETATM   24  C   UNL     1      43.464 -18.567   5.516  1.00  0.00    -0.034 A 
HETATM   25  C   UNL     1      43.601 -19.765   6.231  1.00  0.00     0.009 A 
HETATM   26  C   UNL     1      43.916 -19.746   7.593  1.00  0.00     0.001 A 
HETATM   27  C   UNL     1      44.104 -18.531   8.249  1.00  0.00     0.000 A 
HETATM   28  C   UNL     1      43.977 -17.334   7.548  1.00  0.00     0.001 A 
HETATM   29  C   UNL     1      43.662 -17.352   6.189  1.00  0.00     0.009 A 
ENDBRANCH  23  24
ENDBRANCH  22  23
ENDBRANCH   2  22
TORSDOF 6
ENDMDL
MODEL 10
REMARK VINA RESULT:      -7.9      2.094      8.980
REMARK  6 active torsions:
REMARK  status: ('A' for Active; 'I' for Inactive)
REMARK    1  A    between atoms: C_2  and  O_3 
REMARK    2  A    between atoms: O_3  and  C_4 
REMARK    3  A    between atoms: C_5  and  O_6 
REMARK    4  A    between atoms: O_6  and  C_7 
REMARK    5  A    between atoms: C_7  and  C_8 
REMARK    6  A    between atoms: C_16  and  C_17 
ROOT
HETATM    1  C   UNL     1      42.640 -14.530   2.077  1.00  0.00     0.102 A 
HETATM    2  C   UNL     1      42.008 -14.616   0.831  1.00  0.00     0.102 A 
HETATM    3  C   UNL     1      41.720 -15.873   0.294  1.00  0.00     0.040 A 
HETATM    4  C   UNL     1      42.022 -17.035   1.014  1.00  0.00     0.014 A 
HETATM    5  C   UNL     1      42.624 -16.957   2.279  1.00  0.00    -0.007 A 
HETATM    6  C   UNL     1      42.914 -15.689   2.808  1.00  0.00     0.051 A 
ENDROOT
BRANCH   5   7
HETATM    7  C   UNL     1      42.899 -18.210   3.083  1.00  0.00     0.264 C 
HETATM    8  O   UNL     1      43.518 -19.191   2.238  1.00  0.00    -0.321 OA
HETATM    9  C   UNL     1      44.013 -20.266   2.925  1.00  0.00     0.087 A 
HETATM   10  C   UNL     1      44.377 -20.200   4.269  1.00  0.00     0.065 A 
HETATM   11  C   UNL     1      44.195 -21.450   2.213  1.00  0.00     0.038 A 
HETATM   12  C   UNL     1      44.257 -18.908   4.964  1.00  0.00     0.256 C 
HETATM   13  C   UNL     1      44.900 -21.321   4.919  1.00  0.00     0.020 A 
HETATM   14  O   UNL     1      44.619 -18.742   6.119  1.00  0.00    -0.267 OA
HETATM   15  N   UNL     1      43.728 -17.897   4.212  1.00  0.00    -0.326 N 
HETATM   16  H   UNL     1      43.558 -17.039   4.719  1.00  0.00     0.165 HD
HETATM   17  C   UNL     1      45.064 -22.511   4.211  1.00  0.00     0.001 A 
HETATM   18  C   UNL     1      44.716 -22.575   2.859  1.00  0.00     0.003 A 
ENDBRANCH   5   7
BRANCH   1  19
HETATM   19  O   UNL     1      42.881 -13.288   2.606  1.00  0.00    -0.349 OA
BRANCH  19  20
HETATM   20  C   UNL     1      42.364 -13.115   3.929  1.00  0.00     0.171 C 
HETATM   21  C   UNL     1      40.900 -12.722   3.840  1.00  0.00     0.034 C 
ENDBRANCH  19  20
ENDBRANCH   1  19
BRANCH   2  22
HETATM   22  O   UNL     1      41.755 -13.435   0.181  1.00  0.00    -0.344 OA
BRANCH  22  23
HETATM   23  C   UNL     1      40.907 -13.532  -0.963  1.00  0.00     0.214 C 
BRANCH  23  24
HETATM   24  C   UNL     1      41.393 -12.571  -2.023  1.00  0.00    -0.034 A 
HETATM   25  C   UNL     1      40.796 -12.542  -3.292  1.00  0.00     0.009 A 
HETATM   26  C   UNL     1      41.227 -11.626  -4.256  1.00  0.00     0.001 A 
HETATM   27  C   UNL     1      42.251 -10.728  -3.958  1.00  0.00     0.000 A 
HETATM   28  C   UNL     1      42.845 -10.743  -2.699  1.00  0.00     0.001 A 
HETATM   29  C   UNL     1      42.418 -11.657  -1.736  1.00  0.00     0.009 A 
ENDBRANCH  23  24
ENDBRANCH  22  23
ENDBRANCH   2  22
TORSDOF 6
ENDMDL
