MODEL 1
REMARK VINA RESULT:      -9.0      0.000      0.000
REMARK  4 active torsions:
REMARK  status: ('A' for Active; 'I' for Inactive)
REMARK    1  A    between atoms: C_3  and  C_4 
REMARK       I    between atoms: C_4  and  N_5 
REMARK    2  A    between atoms: N_5  and  C_6 
REMARK    3  A    between atoms: C_13  and  C_14 
REMARK       I    between atoms: C_14  and  N_15 
REMARK    4  A    between atoms: C_23  and  O_24 
ROOT
HETATM    1  C   UNL     1      42.662 -16.452   2.977  1.00  0.00     0.280 C 
HETATM    2  N   UNL     1      41.436 -16.629   2.360  1.00  0.00    -0.321 N 
HETATM    3  O   UNL     1      43.354 -15.444   2.895  1.00  0.00    -0.265 OA
HETATM    4  H   UNL     1      40.988 -17.516   2.568  1.00  0.00     0.169 HD
ENDROOT
BRANCH   2   5
HETATM    5  C   UNL     1      40.743 -15.739   1.515  1.00  0.00     0.036 A 
HETATM    6  C   UNL     1      41.153 -15.422   0.213  1.00  0.00     0.046 A 
HETATM    7  C   UNL     1      40.388 -14.522  -0.561  1.00  0.00     0.030 A 
HETATM    8  C   UNL     1      39.245 -13.963  -0.004  1.00  0.00     0.063 A 
HETATM    9  C   UNL     1      40.462 -13.975  -1.878  1.00  0.00     0.156 A 
HETATM   10  N   UNL     1      38.733 -13.145  -0.971  1.00  0.00    -0.277 N 
HETATM   11  C   UNL     1      38.806 -14.255   1.288  1.00  0.00     0.034 A 
HETATM   12  H   UNL     1      37.899 -12.571  -0.912  1.00  0.00     0.189 HD
HETATM   13  N   UNL     1      39.436 -13.127  -2.116  1.00  0.00    -0.168 NA
HETATM   14  C   UNL     1      39.577 -15.159   2.032  1.00  0.00     0.032 A 
BRANCH   9  15
HETATM   15  C   UNL     1      41.478 -14.248  -2.905  1.00  0.00     0.270 C 
HETATM   16  N   UNL     1      42.626 -13.516  -2.762  1.00  0.00    -0.365 N 
HETATM   17  H   UNL     1      42.689 -12.859  -1.994  1.00  0.00     0.159 HD
HETATM   18  H   UNL     1      43.373 -13.627  -3.428  1.00  0.00     0.159 HD
HETATM   19  O   UNL     1      41.347 -15.046  -3.826  1.00  0.00    -0.266 OA
ENDBRANCH   9  15
ENDBRANCH   2   5
BRANCH   1  20
HETATM   20  C   UNL     1      43.059 -17.608   3.769  1.00  0.00     0.150 A 
HETATM   21  C   UNL     1      42.935 -17.902   5.121  1.00  0.00    -0.009 A 
HETATM   22  C   UNL     1      42.316 -17.069   6.185  1.00  0.00     0.052 C 
HETATM   23  C   UNL     1      43.539 -19.185   5.305  1.00  0.00     0.009 A 
HETATM   24  C   UNL     1      43.983 -19.596   4.055  1.00  0.00     0.120 A 
HETATM   25  C   UNL     1      43.755 -20.036   6.404  1.00  0.00     0.015 A 
HETATM   26  O   UNL     1      43.685 -18.646   3.124  1.00  0.00    -0.301 OA
HETATM   27  C   UNL     1      44.644 -20.805   3.801  1.00  0.00     0.102 A 
HETATM   28  C   UNL     1      44.843 -21.632   4.916  1.00  0.00     0.040 A 
HETATM   29  C   UNL     1      44.409 -21.256   6.193  1.00  0.00     0.004 A 
BRANCH  27  30
HETATM   30  O   UNL     1      45.028 -21.077   2.518  1.00  0.00    -0.353 OA
HETATM   31  C   UNL     1      44.155 -21.892   1.747  1.00  0.00     0.210 C 
ENDBRANCH  27  30
ENDBRANCH   1  20
TORSDOF 4
ENDMDL
MODEL 2
REMARK VINA RESULT:      -8.9      2.890      8.757
REMARK  4 active torsions:
REMARK  status: ('A' for Active; 'I' for Inactive)
REMARK    1  A    between atoms: C_3  and  C_4 
REMARK       I    between atoms: C_4  and  N_5 
REMARK    2  A    between atoms: N_5  and  C_6 
REMARK    3  A    between atoms: C_13  and  C_14 
REMARK       I    between atoms: C_14  and  N_15 
REMARK    4  A    between atoms: C_23  and  O_24 
ROOT
HETATM    1  C   UNL     1      41.507 -16.497   1.242  1.00  0.00     0.280 C 
HETATM    2  N   UNL     1      42.795 -16.746   1.684  1.00  0.00    -0.321 N 
HETATM    3  O   UNL     1      40.502 -17.079   1.635  1.00  0.00    -0.265 OA
HETATM    4  H   UNL     1      43.501 -16.143   1.272  1.00  0.00     0.169 HD
ENDROOT
BRANCH   2   5
HETATM    5  C   UNL     1      43.230 -17.698   2.627  1.00  0.00     0.036 A 
HETATM    6  C   UNL     1      43.061 -17.557   4.011  1.00  0.00     0.046 A 
HETATM    7  C   UNL     1      43.526 -18.570   4.878  1.00  0.00     0.030 A 
HETATM    8  C   UNL     1      44.152 -19.684   4.333  1.00  0.00     0.063 A 
HETATM    9  C   UNL     1      43.533 -18.796   6.288  1.00  0.00     0.156 A 
HETATM   10  N   UNL     1      44.491 -20.468   5.400  1.00  0.00    -0.277 N 
HETATM   11  C   UNL     1      44.338 -19.859   2.961  1.00  0.00     0.034 A 
HETATM   12  H   UNL     1      44.968 -21.362   5.378  1.00  0.00     0.189 HD
HETATM   13  N   UNL     1      44.133 -19.969   6.595  1.00  0.00    -0.168 NA
HETATM   14  C   UNL     1      43.859 -18.844   2.121  1.00  0.00     0.032 A 
BRANCH   9  15
HETATM   15  C   UNL     1      42.980 -17.927   7.337  1.00  0.00     0.270 C 
HETATM   16  N   UNL     1      43.631 -18.019   8.538  1.00  0.00    -0.365 N 
HETATM   17  H   UNL     1      44.411 -18.660   8.619  1.00  0.00     0.159 HD
HETATM   18  H   UNL     1      43.312 -17.470   9.320  1.00  0.00     0.159 HD
HETATM   19  O   UNL     1      42.021 -17.178   7.192  1.00  0.00    -0.266 OA
ENDBRANCH   9  15
ENDBRANCH   2   5
BRANCH   1  20
HETATM   20  C   UNL     1      41.455 -15.437   0.246  1.00  0.00     0.150 A 
HETATM   21  C   UNL     1      41.691 -14.070   0.322  1.00  0.00    -0.009 A 
HETATM   22  C   UNL     1      42.097 -13.277   1.512  1.00  0.00     0.052 C 
HETATM   23  C   UNL     1      41.456 -13.552  -0.990  1.00  0.00     0.009 A 
HETATM   24  C   UNL     1      41.101 -14.635  -1.784  1.00  0.00     0.120 A 
HETATM   25  C   UNL     1      41.505 -12.278  -1.581  1.00  0.00     0.015 A 
HETATM   26  O   UNL     1      41.109 -15.776  -1.039  1.00  0.00    -0.301 OA
HETATM   27  C   UNL     1      40.778 -14.555  -3.145  1.00  0.00     0.102 A 
HETATM   28  C   UNL     1      40.838 -13.270  -3.706  1.00  0.00     0.040 A 
HETATM   29  C   UNL     1      41.194 -12.153  -2.941  1.00  0.00     0.004 A 
BRANCH  27  30
HETATM   30  O   UNL     1      40.443 -15.705  -3.801  1.00  0.00    -0.353 OA
HETATM   31  C   UNL     1      39.056 -15.964  -3.974  1.00  0.00     0.210 C 
ENDBRANCH  27  30
ENDBRANCH   1  20
TORSDOF 4
ENDMDL
MODEL 3
REMARK VINA RESULT:      -8.9      3.422      5.292
REMARK  4 active torsions:
REMARK  status: ('A' for Active; 'I' for Inactive)
REMARK    1  A    between atoms: C_3  and  C_4 
REMARK       I    between atoms: C_4  and  N_5 
REMARK    2  A    between atoms: N_5  and  C_6 
REMARK    3  A    between atoms: C_13  and  C_14 
REMARK       I    between atoms: C_14  and  N_15 
REMARK    4  A    between atoms: C_23  and  O_24 
ROOT
HETATM    1  C   UNL     1      42.911 -15.976   3.475  1.00  0.00     0.280 C 
HETATM    2  N   UNL     1      41.538 -15.896   3.635  1.00  0.00    -0.321 N 
HETATM    3  O   UNL     1      43.668 -15.016   3.392  1.00  0.00    -0.265 OA
HETATM    4  H   UNL     1      41.075 -16.795   3.719  1.00  0.00     0.169 HD
ENDROOT
BRANCH   2   5
HETATM    5  C   UNL     1      40.731 -14.744   3.714  1.00  0.00     0.036 A 
HETATM    6  C   UNL     1      40.557 -13.993   4.884  1.00  0.00     0.046 A 
HETATM    7  C   UNL     1      39.731 -12.847   4.863  1.00  0.00     0.030 A 
HETATM    8  C   UNL     1      39.099 -12.498   3.676  1.00  0.00     0.063 A 
HETATM    9  C   UNL     1      39.326 -11.852   5.804  1.00  0.00     0.156 A 
HETATM   10  N   UNL     1      38.378 -11.375   3.965  1.00  0.00    -0.277 N 
HETATM   11  C   UNL     1      39.248 -13.222   2.492  1.00  0.00     0.034 A 
HETATM   12  H   UNL     1      37.788 -10.844   3.335  1.00  0.00     0.189 HD
HETATM   13  N   UNL     1      38.490 -10.952   5.236  1.00  0.00    -0.168 NA
HETATM   14  C   UNL     1      40.081 -14.349   2.537  1.00  0.00     0.032 A 
BRANCH   9  15
HETATM   15  C   UNL     1      39.720 -11.740   7.215  1.00  0.00     0.270 C 
HETATM   16  N   UNL     1      39.076 -12.619   8.045  1.00  0.00    -0.365 N 
HETATM   17  H   UNL     1      38.395 -13.253   7.645  1.00  0.00     0.159 HD
HETATM   18  H   UNL     1      39.273 -12.606   9.032  1.00  0.00     0.159 HD
HETATM   19  O   UNL     1      40.542 -10.944   7.652  1.00  0.00    -0.266 OA
ENDBRANCH   9  15
ENDBRANCH   2   5
BRANCH   1  20
HETATM   20  C   UNL     1      43.386 -17.352   3.425  1.00  0.00     0.150 A 
HETATM   21  C   UNL     1      43.679 -18.202   2.366  1.00  0.00    -0.009 A 
HETATM   22  C   UNL     1      43.592 -17.914   0.911  1.00  0.00     0.052 C 
HETATM   23  C   UNL     1      44.081 -19.443   2.954  1.00  0.00     0.009 A 
HETATM   24  C   UNL     1      44.018 -19.268   4.329  1.00  0.00     0.120 A 
HETATM   25  C   UNL     1      44.489 -20.693   2.457  1.00  0.00     0.015 A 
HETATM   26  O   UNL     1      43.606 -18.000   4.615  1.00  0.00    -0.301 OA
HETATM   27  C   UNL     1      44.327 -20.255   5.275  1.00  0.00     0.102 A 
HETATM   28  C   UNL     1      44.732 -21.490   4.748  1.00  0.00     0.040 A 
HETATM   29  C   UNL     1      44.811 -21.707   3.367  1.00  0.00     0.004 A 
BRANCH  27  30
HETATM   30  O   UNL     1      44.216 -19.942   6.600  1.00  0.00    -0.353 OA
HETATM   31  C   UNL     1      43.583 -20.903   7.435  1.00  0.00     0.210 C 
ENDBRANCH  27  30
ENDBRANCH   1  20
TORSDOF 4
ENDMDL
MODEL 4
REMARK VINA RESULT:      -8.7      1.618      2.167
REMARK  4 active torsions:
REMARK  status: ('A' for Active; 'I' for Inactive)
REMARK    1  A    between atoms: C_3  and  C_4 
REMARK       I    between atoms: C_4  and  N_5 
REMARK    2  A    between atoms: N_5  and  C_6 
REMARK    3  A    between atoms: C_13  and  C_14 
REMARK       I    between atoms: C_14  and  N_15 
REMARK    4  A    between atoms: C_23  and  O_24 
ROOT
HETATM    1  C   UNL     1      41.049 -16.578   2.110  1.00  0.00     0.280 C 
HETATM    2  N   UNL     1      41.861 -15.826   1.277  1.00  0.00    -0.321 N 
HETATM    3  O   UNL     1      39.824 -16.588   2.079  1.00  0.00    -0.265 OA
HETATM    4  H   UNL     1      42.855 -15.970   1.424  1.00  0.00     0.169 HD
ENDROOT
BRANCH   2   5
HETATM    5  C   UNL     1      41.481 -14.925   0.263  1.00  0.00     0.036 A 
HETATM    6  C   UNL     1      40.708 -15.284  -0.849  1.00  0.00     0.046 A 
HETATM    7  C   UNL     1      40.372 -14.306  -1.812  1.00  0.00     0.030 A 
HETATM    8  C   UNL     1      40.829 -13.007  -1.634  1.00  0.00     0.063 A 
HETATM    9  C   UNL     1      39.624 -14.273  -3.028  1.00  0.00     0.156 A 
HETATM   10  N   UNL     1      40.359 -12.307  -2.710  1.00  0.00    -0.277 N 
HETATM   11  C   UNL     1      41.600 -12.613  -0.540  1.00  0.00     0.034 A 
HETATM   12  H   UNL     1      40.501 -11.324  -2.913  1.00  0.00     0.189 HD
HETATM   13  N   UNL     1      39.626 -13.034  -3.571  1.00  0.00    -0.168 NA
HETATM   14  C   UNL     1      41.911 -13.599   0.406  1.00  0.00     0.032 A 
BRANCH   9  15
HETATM   15  C   UNL     1      38.910 -15.384  -3.671  1.00  0.00     0.270 C 
HETATM   16  N   UNL     1      37.639 -15.579  -3.200  1.00  0.00    -0.365 N 
HETATM   17  H   UNL     1      37.297 -14.972  -2.465  1.00  0.00     0.159 HD
HETATM   18  H   UNL     1      37.079 -16.328  -3.574  1.00  0.00     0.159 HD
HETATM   19  O   UNL     1      39.375 -16.100  -4.551  1.00  0.00    -0.266 OA
ENDBRANCH   9  15
ENDBRANCH   2   5
BRANCH   1  20
HETATM   20  C   UNL     1      41.813 -17.390   3.047  1.00  0.00     0.150 A 
HETATM   21  C   UNL     1      41.890 -17.392   4.435  1.00  0.00    -0.009 A 
HETATM   22  C   UNL     1      41.159 -16.522   5.393  1.00  0.00     0.052 C 
HETATM   23  C   UNL     1      42.835 -18.409   4.777  1.00  0.00     0.009 A 
HETATM   24  C   UNL     1      43.267 -18.967   3.581  1.00  0.00     0.120 A 
HETATM   25  C   UNL     1      43.368 -18.909   5.978  1.00  0.00     0.015 A 
HETATM   26  O   UNL     1      42.642 -18.356   2.535  1.00  0.00    -0.301 OA
HETATM   27  C   UNL     1      44.209 -19.999   3.475  1.00  0.00     0.102 A 
HETATM   28  C   UNL     1      44.721 -20.477   4.691  1.00  0.00     0.040 A 
HETATM   29  C   UNL     1      44.310 -19.943   5.918  1.00  0.00     0.004 A 
BRANCH  27  30
HETATM   30  O   UNL     1      44.542 -20.448   2.229  1.00  0.00    -0.353 OA
HETATM   31  C   UNL     1      44.390 -21.841   1.988  1.00  0.00     0.210 C 
ENDBRANCH  27  30
ENDBRANCH   1  20
TORSDOF 4
ENDMDL
MODEL 5
REMARK VINA RESULT:      -8.7      5.462      8.283
REMARK  4 active torsions:
REMARK  status: ('A' for Active; 'I' for Inactive)
REMARK    1  A    between atoms: C_3  and  C_4 
REMARK       I    between atoms: C_4  and  N_5 
REMARK    2  A    between atoms: N_5  and  C_6 
REMARK    3  A    between atoms: C_13  and  C_14 
REMARK       I    between atoms: C_14  and  N_15 
REMARK    4  A    between atoms: C_23  and  O_24 
ROOT
HETATM    1  C   UNL     1      43.937 -15.974   6.692  1.00  0.00     0.280 C 
HETATM    2  N   UNL     1      44.502 -14.747   6.386  1.00  0.00    -0.321 N 
HETATM    3  O   UNL     1      43.624 -16.345   7.817  1.00  0.00    -0.265 OA
HETATM    4  H   UNL     1      44.663 -14.598   5.395  1.00  0.00     0.169 HD
ENDROOT
BRANCH   2   5
HETATM    5  C   UNL     1      44.851 -13.701   7.261  1.00  0.00     0.036 A 
HETATM    6  C   UNL     1      43.945 -13.072   8.125  1.00  0.00     0.046 A 
HETATM    7  C   UNL     1      44.392 -12.033   8.972  1.00  0.00     0.030 A 
HETATM    8  C   UNL     1      45.727 -11.654   8.920  1.00  0.00     0.063 A 
HETATM    9  C   UNL     1      43.806 -11.186   9.961  1.00  0.00     0.156 A 
HETATM   10  N   UNL     1      45.853 -10.642   9.830  1.00  0.00    -0.277 N 
HETATM   11  C   UNL     1      46.658 -12.257   8.073  1.00  0.00     0.034 A 
HETATM   12  H   UNL     1      46.692 -10.121  10.057  1.00  0.00     0.189 HD
HETATM   13  N   UNL     1      44.718 -10.333  10.480  1.00  0.00    -0.168 NA
HETATM   14  C   UNL     1      46.191 -13.291   7.250  1.00  0.00     0.032 A 
BRANCH   9  15
HETATM   15  C   UNL     1      42.410 -11.179  10.421  1.00  0.00     0.270 C 
HETATM   16  N   UNL     1      42.214 -11.807  11.622  1.00  0.00    -0.365 N 
HETATM   17  H   UNL     1      43.012 -12.224  12.086  1.00  0.00     0.159 HD
HETATM   18  H   UNL     1      41.286 -11.864  12.009  1.00  0.00     0.159 HD
HETATM   19  O   UNL     1      41.474 -10.672   9.812  1.00  0.00    -0.266 OA
ENDBRANCH   9  15
ENDBRANCH   2   5
BRANCH   1  20
HETATM   20  C   UNL     1      43.731 -16.802   5.511  1.00  0.00     0.150 A 
HETATM   21  C   UNL     1      42.959 -16.626   4.369  1.00  0.00    -0.009 A 
HETATM   22  C   UNL     1      42.095 -15.469   4.019  1.00  0.00     0.052 C 
HETATM   23  C   UNL     1      43.151 -17.801   3.577  1.00  0.00     0.009 A 
HETATM   24  C   UNL     1      44.032 -18.613   4.280  1.00  0.00     0.120 A 
HETATM   25  C   UNL     1      42.664 -18.257   2.339  1.00  0.00     0.015 A 
HETATM   26  O   UNL     1      44.389 -18.005   5.446  1.00  0.00    -0.301 OA
HETATM   27  C   UNL     1      44.475 -19.870   3.849  1.00  0.00     0.102 A 
HETATM   28  C   UNL     1      43.973 -20.296   2.610  1.00  0.00     0.040 A 
HETATM   29  C   UNL     1      43.085 -19.507   1.869  1.00  0.00     0.004 A 
BRANCH  27  30
HETATM   30  O   UNL     1      45.341 -20.561   4.647  1.00  0.00    -0.353 OA
HETATM   31  C   UNL     1      44.904 -21.827   5.122  1.00  0.00     0.210 C 
ENDBRANCH  27  30
ENDBRANCH   1  20
TORSDOF 4
ENDMDL
MODEL 6
REMARK VINA RESULT:      -8.6      2.604      8.510
REMARK  4 active torsions:
REMARK  status: ('A' for Active; 'I' for Inactive)
REMARK    1  A    between atoms: C_3  and  C_4 
REMARK       I    between atoms: C_4  and  N_5 
REMARK    2  A    between atoms: N_5  and  C_6 
REMARK    3  A    between atoms: C_13  and  C_14 
REMARK       I    between atoms: C_14  and  N_15 
REMARK    4  A    between atoms: C_23  and  O_24 
ROOT
HETATM    1  C   UNL     1      41.534 -16.239   1.412  1.00  0.00     0.280 C 
HETATM    2  N   UNL     1      42.834 -16.508   1.805  1.00  0.00    -0.321 N 
HETATM    3  O   UNL     1      40.530 -16.744   1.902  1.00  0.00    -0.265 OA
HETATM    4  H   UNL     1      43.538 -15.971   1.310  1.00  0.00     0.169 HD
ENDROOT
BRANCH   2   5
HETATM    5  C   UNL     1      43.282 -17.401   2.798  1.00  0.00     0.036 A 
HETATM    6  C   UNL     1      43.561 -18.754   2.561  1.00  0.00     0.046 A 
HETATM    7  C   UNL     1      44.013 -19.570   3.622  1.00  0.00     0.030 A 
HETATM    8  C   UNL     1      44.162 -19.009   4.883  1.00  0.00     0.063 A 
HETATM    9  C   UNL     1      44.400 -20.936   3.777  1.00  0.00     0.156 A 
HETATM   10  N   UNL     1      44.597 -20.026   5.685  1.00  0.00    -0.277 N 
HETATM   11  C   UNL     1      43.893 -17.667   5.157  1.00  0.00     0.034 A 
HETATM   12  H   UNL     1      44.808 -19.981   6.675  1.00  0.00     0.189 HD
HETATM   13  N   UNL     1      44.755 -21.203   5.055  1.00  0.00    -0.168 NA
HETATM   14  C   UNL     1      43.456 -16.875   4.085  1.00  0.00     0.032 A 
BRANCH   9  15
HETATM   15  C   UNL     1      44.442 -21.979   2.742  1.00  0.00     0.270 C 
HETATM   16  N   UNL     1      43.953 -21.579   1.527  1.00  0.00    -0.365 N 
HETATM   17  H   UNL     1      43.603 -20.633   1.434  1.00  0.00     0.159 HD
HETATM   18  H   UNL     1      43.930 -22.231   0.761  1.00  0.00     0.159 HD
HETATM   19  O   UNL     1      44.864 -23.117   2.911  1.00  0.00    -0.266 OA
ENDBRANCH   9  15
ENDBRANCH   2   5
BRANCH   1  20
HETATM   20  C   UNL     1      41.469 -15.259   0.337  1.00  0.00     0.150 A 
HETATM   21  C   UNL     1      41.688 -13.887   0.309  1.00  0.00    -0.009 A 
HETATM   22  C   UNL     1      42.085 -13.001   1.434  1.00  0.00     0.052 C 
HETATM   23  C   UNL     1      41.446 -13.475  -1.040  1.00  0.00     0.009 A 
HETATM   24  C   UNL     1      41.104 -14.619  -1.748  1.00  0.00     0.120 A 
HETATM   25  C   UNL     1      41.480 -12.249  -1.727  1.00  0.00     0.015 A 
HETATM   26  O   UNL     1      41.126 -15.700  -0.917  1.00  0.00    -0.301 OA
HETATM   27  C   UNL     1      40.780 -14.648  -3.111  1.00  0.00     0.102 A 
HETATM   28  C   UNL     1      40.825 -13.409  -3.768  1.00  0.00     0.040 A 
HETATM   29  C   UNL     1      41.167 -12.233  -3.091  1.00  0.00     0.004 A 
BRANCH  27  30
HETATM   30  O   UNL     1      40.459 -15.849  -3.676  1.00  0.00    -0.353 OA
HETATM   31  C   UNL     1      39.112 -16.021  -4.094  1.00  0.00     0.210 C 
ENDBRANCH  27  30
ENDBRANCH   1  20
TORSDOF 4
ENDMDL
MODEL 7
REMARK VINA RESULT:      -8.5      1.653      2.723
REMARK  4 active torsions:
REMARK  status: ('A' for Active; 'I' for Inactive)
REMARK    1  A    between atoms: C_3  and  C_4 
REMARK       I    between atoms: C_4  and  N_5 
REMARK    2  A    between atoms: N_5  and  C_6 
REMARK    3  A    between atoms: C_13  and  C_14 
REMARK       I    between atoms: C_14  and  N_15 
REMARK    4  A    between atoms: C_23  and  O_24 
ROOT
HETATM    1  C   UNL     1      42.070 -15.653   2.613  1.00  0.00     0.280 C 
HETATM    2  N   UNL     1      40.986 -16.031   1.838  1.00  0.00    -0.321 N 
HETATM    3  O   UNL     1      42.474 -14.504   2.747  1.00  0.00    -0.265 OA
HETATM    4  H   UNL     1      40.775 -17.023   1.872  1.00  0.00     0.169 HD
ENDROOT
BRANCH   2   5
HETATM    5  C   UNL     1      40.152 -15.220   1.043  1.00  0.00     0.036 A 
HETATM    6  C   UNL     1      40.467 -14.822  -0.263  1.00  0.00     0.046 A 
HETATM    7  C   UNL     1      39.562 -14.013  -0.984  1.00  0.00     0.030 A 
HETATM    8  C   UNL     1      38.378 -13.622  -0.372  1.00  0.00     0.063 A 
HETATM    9  C   UNL     1      39.513 -13.430  -2.288  1.00  0.00     0.156 A 
HETATM   10  N   UNL     1      37.727 -12.855  -1.297  1.00  0.00    -0.277 N 
HETATM   11  C   UNL     1      38.031 -13.999   0.926  1.00  0.00     0.034 A 
HETATM   12  H   UNL     1      36.829 -12.397  -1.193  1.00  0.00     0.189 HD
HETATM   13  N   UNL     1      38.377 -12.718  -2.465  1.00  0.00    -0.168 NA
HETATM   14  C   UNL     1      38.941 -14.810   1.617  1.00  0.00     0.032 A 
BRANCH   9  15
HETATM   15  C   UNL     1      40.516 -13.543  -3.357  1.00  0.00     0.270 C 
HETATM   16  N   UNL     1      40.989 -12.340  -3.807  1.00  0.00    -0.365 N 
HETATM   17  H   UNL     1      40.624 -11.490  -3.394  1.00  0.00     0.159 HD
HETATM   18  H   UNL     1      41.670 -12.319  -4.549  1.00  0.00     0.159 HD
HETATM   19  O   UNL     1      40.915 -14.599  -3.834  1.00  0.00    -0.266 OA
ENDBRANCH   9  15
ENDBRANCH   2   5
BRANCH   1  20
HETATM   20  C   UNL     1      42.694 -16.784   3.285  1.00  0.00     0.150 A 
HETATM   21  C   UNL     1      43.463 -17.841   2.816  1.00  0.00    -0.009 A 
HETATM   22  C   UNL     1      43.891 -18.112   1.419  1.00  0.00     0.052 C 
HETATM   23  C   UNL     1      43.767 -18.648   3.958  1.00  0.00     0.009 A 
HETATM   24  C   UNL     1      43.173 -18.027   5.049  1.00  0.00     0.120 A 
HETATM   25  C   UNL     1      44.481 -19.839   4.174  1.00  0.00     0.015 A 
HETATM   26  O   UNL     1      42.532 -16.895   4.644  1.00  0.00    -0.301 OA
HETATM   27  C   UNL     1      43.226 -18.505   6.365  1.00  0.00     0.102 A 
HETATM   28  C   UNL     1      43.947 -19.694   6.548  1.00  0.00     0.040 A 
HETATM   29  C   UNL     1      44.562 -20.350   5.475  1.00  0.00     0.004 A 
BRANCH  27  30
HETATM   30  O   UNL     1      42.591 -17.790   7.341  1.00  0.00    -0.353 OA
HETATM   31  C   UNL     1      43.413 -17.189   8.333  1.00  0.00     0.210 C 
ENDBRANCH  27  30
ENDBRANCH   1  20
TORSDOF 4
ENDMDL
MODEL 8
REMARK VINA RESULT:      -8.2      5.525      8.629
REMARK  4 active torsions:
REMARK  status: ('A' for Active; 'I' for Inactive)
REMARK    1  A    between atoms: C_3  and  C_4 
REMARK       I    between atoms: C_4  and  N_5 
REMARK    2  A    between atoms: N_5  and  C_6 
REMARK    3  A    between atoms: C_13  and  C_14 
REMARK       I    between atoms: C_14  and  N_15 
REMARK    4  A    between atoms: C_23  and  O_24 
ROOT
HETATM    1  C   UNL     1      43.877 -15.909   6.748  1.00  0.00     0.280 C 
HETATM    2  N   UNL     1      44.399 -14.663   6.444  1.00  0.00    -0.321 N 
HETATM    3  O   UNL     1      43.629 -16.313   7.878  1.00  0.00    -0.265 OA
HETATM    4  H   UNL     1      44.507 -14.487   5.450  1.00  0.00     0.169 HD
ENDROOT
BRANCH   2   5
HETATM    5  C   UNL     1      44.770 -13.630   7.327  1.00  0.00     0.036 A 
HETATM    6  C   UNL     1      43.879 -12.996   8.203  1.00  0.00     0.046 A 
HETATM    7  C   UNL     1      44.348 -11.973   9.057  1.00  0.00     0.030 A 
HETATM    8  C   UNL     1      45.688 -11.611   8.998  1.00  0.00     0.063 A 
HETATM    9  C   UNL     1      43.781 -11.127  10.059  1.00  0.00     0.156 A 
HETATM   10  N   UNL     1      45.835 -10.610   9.916  1.00  0.00    -0.277 N 
HETATM   11  C   UNL     1      46.603 -12.219   8.138  1.00  0.00     0.034 A 
HETATM   12  H   UNL     1      46.683 -10.103  10.142  1.00  0.00     0.189 HD
HETATM   13  N   UNL     1      44.709 -10.291  10.578  1.00  0.00    -0.168 NA
HETATM   14  C   UNL     1      46.116 -13.239   7.309  1.00  0.00     0.032 A 
BRANCH   9  15
HETATM   15  C   UNL     1      42.389 -11.105  10.529  1.00  0.00     0.270 C 
HETATM   16  N   UNL     1      42.184 -11.788  11.698  1.00  0.00    -0.365 N 
HETATM   17  H   UNL     1      42.973 -12.250  12.134  1.00  0.00     0.159 HD
HETATM   18  H   UNL     1      41.257 -11.839  12.089  1.00  0.00     0.159 HD
HETATM   19  O   UNL     1      41.464 -10.541   9.955  1.00  0.00    -0.266 OA
ENDBRANCH   9  15
ENDBRANCH   2   5
BRANCH   1  20
HETATM   20  C   UNL     1      43.629 -16.713   5.559  1.00  0.00     0.150 A 
HETATM   21  C   UNL     1      44.113 -17.950   5.150  1.00  0.00    -0.009 A 
HETATM   22  C   UNL     1      45.059 -18.844   5.866  1.00  0.00     0.052 C 
HETATM   23  C   UNL     1      43.520 -18.205   3.873  1.00  0.00     0.009 A 
HETATM   24  C   UNL     1      42.708 -17.115   3.590  1.00  0.00     0.120 A 
HETATM   25  C   UNL     1      43.593 -19.247   2.932  1.00  0.00     0.015 A 
HETATM   26  O   UNL     1      42.767 -16.216   4.614  1.00  0.00    -0.301 OA
HETATM   27  C   UNL     1      41.950 -16.967   2.421  1.00  0.00     0.102 A 
HETATM   28  C   UNL     1      42.042 -18.023   1.503  1.00  0.00     0.040 A 
HETATM   29  C   UNL     1      42.848 -19.141   1.752  1.00  0.00     0.004 A 
BRANCH  27  30
HETATM   30  O   UNL     1      41.196 -15.836   2.275  1.00  0.00    -0.353 OA
HETATM   31  C   UNL     1      41.804 -14.745   1.598  1.00  0.00     0.210 C 
ENDBRANCH  27  30
ENDBRANCH   1  20
TORSDOF 4
ENDMDL
MODEL 9
REMARK VINA RESULT:      -8.1      2.147      3.518
REMARK  4 active torsions:
REMARK  status: ('A' for Active; 'I' for Inactive)
REMARK    1  A    between atoms: C_3  and  C_4 
REMARK       I    between atoms: C_4  and  N_5 
REMARK    2  A    between atoms: N_5  and  C_6 
REMARK    3  A    between atoms: C_13  and  C_14 
REMARK       I    between atoms: C_14  and  N_15 
REMARK    4  A    between atoms: C_23  and  O_24 
ROOT
HETATM    1  C   UNL     1      41.369 -16.283   1.973  1.00  0.00     0.280 C 
HETATM    2  N   UNL     1      41.975 -15.244   1.287  1.00  0.00    -0.321 N 
HETATM    3  O   UNL     1      40.218 -16.666   1.799  1.00  0.00    -0.265 OA
HETATM    4  H   UNL     1      42.946 -15.089   1.538  1.00  0.00     0.169 HD
ENDROOT
BRANCH   2   5
HETATM    5  C   UNL     1      41.425 -14.412   0.292  1.00  0.00     0.036 A 
HETATM    6  C   UNL     1      40.827 -14.891  -0.881  1.00  0.00     0.046 A 
HETATM    7  C   UNL     1      40.296 -13.976  -1.818  1.00  0.00     0.030 A 
HETATM    8  C   UNL     1      40.391 -12.616  -1.555  1.00  0.00     0.063 A 
HETATM    9  C   UNL     1      39.625 -14.063  -3.076  1.00  0.00     0.156 A 
HETATM   10  N   UNL     1      39.809 -11.998  -2.625  1.00  0.00    -0.277 N 
HETATM   11  C   UNL     1      40.980 -12.103  -0.398  1.00  0.00     0.034 A 
HETATM   12  H   UNL     1      39.701 -11.001  -2.776  1.00  0.00     0.189 HD
HETATM   13  N   UNL     1      39.333 -12.835  -3.562  1.00  0.00    -0.168 NA
HETATM   14  C   UNL     1      41.489 -13.031   0.520  1.00  0.00     0.032 A 
BRANCH   9  15
HETATM   15  C   UNL     1      39.256 -15.281  -3.812  1.00  0.00     0.270 C 
HETATM   16  N   UNL     1      38.020 -15.226  -4.398  1.00  0.00    -0.365 N 
HETATM   17  H   UNL     1      37.465 -14.386  -4.281  1.00  0.00     0.159 HD
HETATM   18  H   UNL     1      37.677 -16.020  -4.912  1.00  0.00     0.159 HD
HETATM   19  O   UNL     1      39.960 -16.279  -3.912  1.00  0.00    -0.266 OA
ENDBRANCH   9  15
ENDBRANCH   2   5
BRANCH   1  20
HETATM   20  C   UNL     1      42.261 -16.905   2.941  1.00  0.00     0.150 A 
HETATM   21  C   UNL     1      42.927 -18.125   2.950  1.00  0.00    -0.009 A 
HETATM   22  C   UNL     1      42.917 -19.179   1.903  1.00  0.00     0.052 C 
HETATM   23  C   UNL     1      43.636 -18.181   4.191  1.00  0.00     0.009 A 
HETATM   24  C   UNL     1      43.365 -16.992   4.855  1.00  0.00     0.120 A 
HETATM   25  C   UNL     1      44.475 -19.120   4.816  1.00  0.00     0.015 A 
HETATM   26  O   UNL     1      42.541 -16.216   4.095  1.00  0.00    -0.301 OA
HETATM   27  C   UNL     1      43.865 -16.652   6.119  1.00  0.00     0.102 A 
HETATM   28  C   UNL     1      44.699 -17.608   6.716  1.00  0.00     0.040 A 
HETATM   29  C   UNL     1      44.999 -18.818   6.079  1.00  0.00     0.004 A 
BRANCH  27  30
HETATM   30  O   UNL     1      43.511 -15.445   6.653  1.00  0.00    -0.353 OA
HETATM   31  C   UNL     1      44.571 -14.576   7.029  1.00  0.00     0.210 C 
ENDBRANCH  27  30
ENDBRANCH   1  20
TORSDOF 4
ENDMDL
MODEL 10
REMARK VINA RESULT:      -8.1      1.451      1.890
REMARK  4 active torsions:
REMARK  status: ('A' for Active; 'I' for Inactive)
REMARK    1  A    between atoms: C_3  and  C_4 
REMARK       I    between atoms: C_4  and  N_5 
REMARK    2  A    between atoms: N_5  and  C_6 
REMARK    3  A    between atoms: C_13  and  C_14 
REMARK       I    between atoms: C_14  and  N_15 
REMARK    4  A    between atoms: C_23  and  O_24 
ROOT
HETATM    1  C   UNL     1      42.148 -14.774   2.692  1.00  0.00     0.280 C 
HETATM    2  N   UNL     1      41.028 -15.360   2.128  1.00  0.00    -0.321 N 
HETATM    3  O   UNL     1      42.578 -13.661   2.414  1.00  0.00    -0.265 OA
HETATM    4  H   UNL     1      40.801 -16.275   2.505  1.00  0.00     0.169 HD
ENDROOT
BRANCH   2   5
HETATM    5  C   UNL     1      40.175 -14.842   1.133  1.00  0.00     0.036 A 
HETATM    6  C   UNL     1      40.574 -14.608  -0.190  1.00  0.00     0.046 A 
HETATM    7  C   UNL     1      39.643 -14.092  -1.119  1.00  0.00     0.030 A 
HETATM    8  C   UNL     1      38.350 -13.819  -0.691  1.00  0.00     0.063 A 
HETATM    9  C   UNL     1      39.656 -13.741  -2.503  1.00  0.00     0.156 A 
HETATM   10  N   UNL     1      37.699 -13.334  -1.790  1.00  0.00    -0.277 N 
HETATM   11  C   UNL     1      37.918 -14.039   0.617  1.00  0.00     0.034 A 
HETATM   12  H   UNL     1      36.735 -13.027  -1.848  1.00  0.00     0.189 HD
HETATM   13  N   UNL     1      38.451 -13.273  -2.902  1.00  0.00    -0.168 NA
HETATM   14  C   UNL     1      38.857 -14.562   1.517  1.00  0.00     0.032 A 
BRANCH   9  15
HETATM   15  C   UNL     1      40.781 -13.848  -3.444  1.00  0.00     0.270 C 
HETATM   16  N   UNL     1      41.270 -12.642  -3.867  1.00  0.00    -0.365 N 
HETATM   17  H   UNL     1      40.835 -11.794  -3.523  1.00  0.00     0.159 HD
HETATM   18  H   UNL     1      42.033 -12.617  -4.524  1.00  0.00     0.159 HD
HETATM   19  O   UNL     1      41.264 -14.902  -3.842  1.00  0.00    -0.266 OA
ENDBRANCH   9  15
ENDBRANCH   2   5
BRANCH   1  20
HETATM   20  C   UNL     1      42.781 -15.628   3.688  1.00  0.00     0.150 A 
HETATM   21  C   UNL     1      43.190 -15.394   4.995  1.00  0.00    -0.009 A 
HETATM   22  C   UNL     1      43.072 -14.138   5.779  1.00  0.00     0.052 C 
HETATM   23  C   UNL     1      43.768 -16.620   5.455  1.00  0.00     0.009 A 
HETATM   24  C   UNL     1      43.667 -17.522   4.405  1.00  0.00     0.120 A 
HETATM   25  C   UNL     1      44.367 -17.050   6.651  1.00  0.00     0.015 A 
HETATM   26  O   UNL     1      43.062 -16.925   3.339  1.00  0.00    -0.301 OA
HETATM   27  C   UNL     1      44.127 -18.845   4.443  1.00  0.00     0.102 A 
HETATM   28  C   UNL     1      44.718 -19.245   5.650  1.00  0.00     0.040 A 
HETATM   29  C   UNL     1      44.838 -18.366   6.733  1.00  0.00     0.004 A 
BRANCH  27  30
HETATM   30  O   UNL     1      43.963 -19.622   3.330  1.00  0.00    -0.353 OA
HETATM   31  C   UNL     1      44.738 -20.811   3.259  1.00  0.00     0.210 C 
ENDBRANCH  27  30
ENDBRANCH   1  20
TORSDOF 4
ENDMDL
