MODEL 1
REMARK VINA RESULT:      -9.6      0.000      0.000
REMARK  4 active torsions:
REMARK  status: ('A' for Active; 'I' for Inactive)
REMARK    1  A    between atoms: C_10  and  C_11 
REMARK       I    between atoms: C_11  and  N_12 
REMARK    2  A    between atoms: N_12  and  C_13 
REMARK    3  A    between atoms: C_13  and  C_14 
REMARK    4  A    between atoms: C_16  and  C_17 
ROOT
HETATM    1  C   UNL     1      44.653 -13.524   7.336  1.00  0.00     0.268 C 
HETATM    2  N   UNL     1      43.595 -14.300   6.935  1.00  0.00    -0.351 N 
HETATM    3  O   UNL     1      45.761 -13.586   6.811  1.00  0.00    -0.266 OA
HETATM    4  H   UNL     1      42.694 -14.182   7.371  1.00  0.00     0.163 HD
ENDROOT
BRANCH   2   5
HETATM    5  C   UNL     1      43.692 -15.239   5.842  1.00  0.00     0.161 C 
BRANCH   5   6
HETATM    6  C   UNL     1      43.795 -16.653   6.352  1.00  0.00    -0.040 A 
HETATM    7  C   UNL     1      44.016 -17.721   5.469  1.00  0.00     0.024 A 
HETATM    8  C   UNL     1      44.099 -19.043   5.936  1.00  0.00     0.014 A 
HETATM    9  C   UNL     1      43.962 -19.285   7.310  1.00  0.00     0.015 A 
HETATM   10  C   UNL     1      43.742 -18.230   8.198  1.00  0.00     0.002 A 
HETATM   11  C   UNL     1      43.656 -16.923   7.722  1.00  0.00     0.009 A 
BRANCH   8  12
HETATM   12  C   UNL     1      44.315 -20.141   4.997  1.00  0.00     0.181 A 
HETATM   13  N   UNL     1      44.720 -21.372   5.355  1.00  0.00    -0.152 NA
HETATM   14  N   UNL     1      44.759 -22.009   4.177  1.00  0.00    -0.263 N 
HETATM   15  H   UNL     1      45.038 -22.983   4.149  1.00  0.00     0.190 HD
HETATM   16  C   UNL     1      44.392 -21.190   3.151  1.00  0.00     0.118 A 
HETATM   17  C   UNL     1      44.344 -21.624   1.740  1.00  0.00     0.093 C 
HETATM   18  N   UNL     1      44.110 -20.003   3.639  1.00  0.00    -0.212 NA
ENDBRANCH   8  12
ENDBRANCH   5   6
ENDBRANCH   2   5
BRANCH   1  19
HETATM   19  C   UNL     1      44.377 -12.610   8.422  1.00  0.00     0.102 A 
HETATM   20  N   UNL     1      43.254 -11.809   8.403  1.00  0.00    -0.351 N 
HETATM   21  C   UNL     1      43.182 -11.026   9.529  1.00  0.00     0.043 A 
HETATM   22  H   UNL     1      42.579 -11.814   7.649  1.00  0.00     0.166 HD
HETATM   23  C   UNL     1      42.219 -10.087   9.917  1.00  0.00     0.037 A 
HETATM   24  C   UNL     1      44.300 -11.325  10.302  1.00  0.00    -0.007 A 
HETATM   25  C   UNL     1      42.407  -9.418  11.137  1.00  0.00    -0.060 A 
HETATM   26  C   UNL     1      41.396  -8.415  11.614  1.00  0.00     0.048 C 
HETATM   27  C   UNL     1      43.522  -9.708  11.930  1.00  0.00     0.007 A 
HETATM   28  C   UNL     1      44.475 -10.653  11.526  1.00  0.00     0.014 A 
HETATM   29  C   UNL     1      45.042 -12.318   9.600  1.00  0.00     0.049 A 
ENDBRANCH   1  19
TORSDOF 4
ENDMDL
MODEL 2
REMARK VINA RESULT:      -9.4      1.478      2.131
REMARK  4 active torsions:
REMARK  status: ('A' for Active; 'I' for Inactive)
REMARK    1  A    between atoms: C_10  and  C_11 
REMARK       I    between atoms: C_11  and  N_12 
REMARK    2  A    between atoms: N_12  and  C_13 
REMARK    3  A    between atoms: C_13  and  C_14 
REMARK    4  A    between atoms: C_16  and  C_17 
ROOT
HETATM    1  C   UNL     1      45.185 -12.537   8.647  1.00  0.00     0.268 C 
HETATM    2  N   UNL     1      44.436 -13.491   8.005  1.00  0.00    -0.351 N 
HETATM    3  O   UNL     1      46.359 -12.313   8.367  1.00  0.00    -0.266 OA
HETATM    4  H   UNL     1      43.464 -13.608   8.244  1.00  0.00     0.163 HD
ENDROOT
BRANCH   2   5
HETATM    5  C   UNL     1      44.962 -14.293   6.926  1.00  0.00     0.161 C 
BRANCH   5   6
HETATM    6  C   UNL     1      43.965 -15.337   6.495  1.00  0.00    -0.040 A 
HETATM    7  C   UNL     1      44.276 -16.703   6.576  1.00  0.00     0.024 A 
HETATM    8  C   UNL     1      43.358 -17.682   6.162  1.00  0.00     0.014 A 
HETATM    9  C   UNL     1      42.111 -17.273   5.667  1.00  0.00     0.015 A 
HETATM   10  C   UNL     1      41.791 -15.917   5.583  1.00  0.00     0.002 A 
HETATM   11  C   UNL     1      42.713 -14.955   5.991  1.00  0.00     0.009 A 
BRANCH   8  12
HETATM   12  C   UNL     1      43.707 -19.098   6.241  1.00  0.00     0.181 A 
HETATM   13  N   UNL     1      43.571 -19.850   7.347  1.00  0.00    -0.152 NA
HETATM   14  N   UNL     1      44.000 -21.048   6.928  1.00  0.00    -0.263 N 
HETATM   15  H   UNL     1      44.003 -21.828   7.575  1.00  0.00     0.190 HD
HETATM   16  C   UNL     1      44.381 -21.015   5.620  1.00  0.00     0.118 A 
HETATM   17  C   UNL     1      44.897 -22.192   4.892  1.00  0.00     0.093 C 
HETATM   18  N   UNL     1      44.210 -19.796   5.161  1.00  0.00    -0.212 NA
ENDBRANCH   8  12
ENDBRANCH   5   6
ENDBRANCH   2   5
BRANCH   1  19
HETATM   19  C   UNL     1      44.496 -11.798   9.681  1.00  0.00     0.102 A 
HETATM   20  N   UNL     1      43.128 -11.631   9.638  1.00  0.00    -0.351 N 
HETATM   21  C   UNL     1      42.680 -10.906  10.714  1.00  0.00     0.043 A 
HETATM   22  H   UNL     1      42.545 -12.005   8.900  1.00  0.00     0.166 HD
HETATM   23  C   UNL     1      41.382 -10.516  11.065  1.00  0.00     0.037 A 
HETATM   24  C   UNL     1      43.797 -10.586  11.480  1.00  0.00    -0.007 A 
HETATM   25  C   UNL     1      41.216  -9.762  12.237  1.00  0.00    -0.060 A 
HETATM   26  C   UNL     1      39.844  -9.333  12.674  1.00  0.00     0.048 C 
HETATM   27  C   UNL     1      42.326  -9.434  13.023  1.00  0.00     0.007 A 
HETATM   28  C   UNL     1      43.618  -9.835  12.656  1.00  0.00     0.014 A 
HETATM   29  C   UNL     1      44.930 -11.149  10.824  1.00  0.00     0.049 A 
ENDBRANCH   1  19
TORSDOF 4
ENDMDL
MODEL 3
REMARK VINA RESULT:      -9.2      2.928      3.749
REMARK  4 active torsions:
REMARK  status: ('A' for Active; 'I' for Inactive)
REMARK    1  A    between atoms: C_10  and  C_11 
REMARK       I    between atoms: C_11  and  N_12 
REMARK    2  A    between atoms: N_12  and  C_13 
REMARK    3  A    between atoms: C_13  and  C_14 
REMARK    4  A    between atoms: C_16  and  C_17 
ROOT
HETATM    1  C   UNL     1      45.055 -12.480   8.714  1.00  0.00     0.268 C 
HETATM    2  N   UNL     1      44.264 -13.421   8.106  1.00  0.00    -0.351 N 
HETATM    3  O   UNL     1      46.222 -12.280   8.389  1.00  0.00    -0.266 OA
HETATM    4  H   UNL     1      43.299 -13.518   8.381  1.00  0.00     0.163 HD
ENDROOT
BRANCH   2   5
HETATM    5  C   UNL     1      44.733 -14.240   7.013  1.00  0.00     0.161 C 
BRANCH   5   6
HETATM    6  C   UNL     1      43.746 -15.333   6.695  1.00  0.00    -0.040 A 
HETATM    7  C   UNL     1      42.942 -15.262   5.547  1.00  0.00     0.024 A 
HETATM    8  C   UNL     1      42.008 -16.269   5.251  1.00  0.00     0.014 A 
HETATM    9  C   UNL     1      41.893 -17.360   6.124  1.00  0.00     0.015 A 
HETATM   10  C   UNL     1      42.688 -17.441   7.269  1.00  0.00     0.002 A 
HETATM   11  C   UNL     1      43.606 -16.432   7.554  1.00  0.00     0.009 A 
BRANCH   8  12
HETATM   12  C   UNL     1      41.171 -16.168   4.059  1.00  0.00     0.181 A 
HETATM   13  N   UNL     1      40.938 -17.184   3.211  1.00  0.00    -0.152 NA
HETATM   14  N   UNL     1      40.125 -16.618   2.309  1.00  0.00    -0.263 N 
HETATM   15  H   UNL     1      39.780 -17.174   1.534  1.00  0.00     0.190 HD
HETATM   16  C   UNL     1      39.882 -15.310   2.604  1.00  0.00     0.118 A 
HETATM   17  C   UNL     1      39.021 -14.436   1.781  1.00  0.00     0.093 C 
HETATM   18  N   UNL     1      40.532 -14.997   3.702  1.00  0.00    -0.212 NA
ENDBRANCH   8  12
ENDBRANCH   5   6
ENDBRANCH   2   5
BRANCH   1  19
HETATM   19  C   UNL     1      44.419 -11.721   9.768  1.00  0.00     0.102 A 
HETATM   20  N   UNL     1      43.058 -11.498   9.756  1.00  0.00    -0.351 N 
HETATM   21  C   UNL     1      42.664 -10.764  10.847  1.00  0.00     0.043 A 
HETATM   22  H   UNL     1      42.444 -11.842   9.029  1.00  0.00     0.166 HD
HETATM   23  C   UNL     1      41.391 -10.324  11.228  1.00  0.00     0.037 A 
HETATM   24  C   UNL     1      43.810 -10.495  11.590  1.00  0.00    -0.007 A 
HETATM   25  C   UNL     1      41.281  -9.573  12.409  1.00  0.00    -0.060 A 
HETATM   26  C   UNL     1      39.938  -9.092  12.879  1.00  0.00     0.048 C 
HETATM   27  C   UNL     1      42.421  -9.297  13.172  1.00  0.00     0.007 A 
HETATM   28  C   UNL     1      43.687  -9.747  12.775  1.00  0.00     0.014 A 
HETATM   29  C   UNL     1      44.904 -11.099  10.905  1.00  0.00     0.049 A 
ENDBRANCH   1  19
TORSDOF 4
ENDMDL
MODEL 4
REMARK VINA RESULT:      -8.8      6.234     10.199
REMARK  4 active torsions:
REMARK  status: ('A' for Active; 'I' for Inactive)
REMARK    1  A    between atoms: C_10  and  C_11 
REMARK       I    between atoms: C_11  and  N_12 
REMARK    2  A    between atoms: N_12  and  C_13 
REMARK    3  A    between atoms: C_13  and  C_14 
REMARK    4  A    between atoms: C_16  and  C_17 
ROOT
HETATM    1  C   UNL     1      41.813 -15.569   3.802  1.00  0.00     0.268 C 
HETATM    2  N   UNL     1      40.677 -15.523   3.035  1.00  0.00    -0.351 N 
HETATM    3  O   UNL     1      42.213 -14.612   4.458  1.00  0.00    -0.266 OA
HETATM    4  H   UNL     1      40.368 -16.349   2.548  1.00  0.00     0.163 HD
ENDROOT
BRANCH   2   5
HETATM    5  C   UNL     1      39.841 -14.348   2.957  1.00  0.00     0.161 C 
BRANCH   5   6
HETATM    6  C   UNL     1      39.337 -14.137   1.553  1.00  0.00    -0.040 A 
HETATM    7  C   UNL     1      40.233 -13.949   0.489  1.00  0.00     0.024 A 
HETATM    8  C   UNL     1      39.771 -13.738  -0.820  1.00  0.00     0.014 A 
HETATM    9  C   UNL     1      38.388 -13.722  -1.055  1.00  0.00     0.015 A 
HETATM   10  C   UNL     1      37.488 -13.907  -0.004  1.00  0.00     0.002 A 
HETATM   11  C   UNL     1      37.959 -14.111   1.292  1.00  0.00     0.009 A 
BRANCH   8  12
HETATM   12  C   UNL     1      40.720 -13.530  -1.911  1.00  0.00     0.181 A 
HETATM   13  N   UNL     1      41.454 -14.507  -2.470  1.00  0.00    -0.152 NA
HETATM   14  N   UNL     1      42.142 -13.841  -3.408  1.00  0.00    -0.263 N 
HETATM   15  H   UNL     1      42.790 -14.347  -4.000  1.00  0.00     0.190 HD
HETATM   16  C   UNL     1      41.832 -12.514  -3.409  1.00  0.00     0.118 A 
HETATM   17  C   UNL     1      42.439 -11.537  -4.336  1.00  0.00     0.093 C 
HETATM   18  N   UNL     1      40.939 -12.288  -2.472  1.00  0.00    -0.212 NA
ENDBRANCH   8  12
ENDBRANCH   5   6
ENDBRANCH   2   5
BRANCH   1  19
HETATM   19  C   UNL     1      42.515 -16.833   3.797  1.00  0.00     0.102 A 
HETATM   20  N   UNL     1      42.430 -17.685   2.715  1.00  0.00    -0.351 N 
HETATM   21  C   UNL     1      43.174 -18.821   2.916  1.00  0.00     0.043 A 
HETATM   22  H   UNL     1      41.886 -17.480   1.887  1.00  0.00     0.166 HD
HETATM   23  C   UNL     1      43.373 -19.930   2.085  1.00  0.00     0.037 A 
HETATM   24  C   UNL     1      43.758 -18.706   4.175  1.00  0.00    -0.007 A 
HETATM   25  C   UNL     1      44.193 -20.967   2.558  1.00  0.00    -0.060 A 
HETATM   26  C   UNL     1      44.460 -22.172   1.701  1.00  0.00     0.048 C 
HETATM   27  C   UNL     1      44.792 -20.867   3.818  1.00  0.00     0.007 A 
HETATM   28  C   UNL     1      44.582 -19.749   4.635  1.00  0.00     0.014 A 
HETATM   29  C   UNL     1      43.339 -17.458   4.718  1.00  0.00     0.049 A 
ENDBRANCH   1  19
TORSDOF 4
ENDMDL
MODEL 5
REMARK VINA RESULT:      -8.8      5.248      9.495
REMARK  4 active torsions:
REMARK  status: ('A' for Active; 'I' for Inactive)
REMARK    1  A    between atoms: C_10  and  C_11 
REMARK       I    between atoms: C_11  and  N_12 
REMARK    2  A    between atoms: N_12  and  C_13 
REMARK    3  A    between atoms: C_13  and  C_14 
REMARK    4  A    between atoms: C_16  and  C_17 
ROOT
HETATM    1  C   UNL     1      42.026 -15.681   4.856  1.00  0.00     0.268 C 
HETATM    2  N   UNL     1      40.675 -15.660   4.618  1.00  0.00    -0.351 N 
HETATM    3  O   UNL     1      42.639 -14.715   5.300  1.00  0.00    -0.266 OA
HETATM    4  H   UNL     1      40.211 -16.493   4.292  1.00  0.00     0.163 HD
ENDROOT
BRANCH   2   5
HETATM    5  C   UNL     1      39.857 -14.503   4.896  1.00  0.00     0.161 C 
BRANCH   5   6
HETATM    6  C   UNL     1      39.765 -13.606   3.689  1.00  0.00    -0.040 A 
HETATM    7  C   UNL     1      39.704 -14.146   2.395  1.00  0.00     0.024 A 
HETATM    8  C   UNL     1      39.633 -13.316   1.265  1.00  0.00     0.014 A 
HETATM    9  C   UNL     1      39.618 -11.926   1.447  1.00  0.00     0.015 A 
HETATM   10  C   UNL     1      39.678 -11.377   2.729  1.00  0.00     0.002 A 
HETATM   11  C   UNL     1      39.754 -12.212   3.843  1.00  0.00     0.009 A 
BRANCH   8  12
HETATM   12  C   UNL     1      39.586 -13.900  -0.074  1.00  0.00     0.181 A 
HETATM   13  N   UNL     1      38.472 -13.988  -0.820  1.00  0.00    -0.152 NA
HETATM   14  N   UNL     1      38.927 -14.569  -1.938  1.00  0.00    -0.263 N 
HETATM   15  H   UNL     1      38.282 -14.758  -2.697  1.00  0.00     0.190 HD
HETATM   16  C   UNL     1      40.264 -14.821  -1.864  1.00  0.00     0.118 A 
HETATM   17  C   UNL     1      41.035 -15.457  -2.951  1.00  0.00     0.093 C 
HETATM   18  N   UNL     1      40.706 -14.412  -0.696  1.00  0.00    -0.212 NA
ENDBRANCH   8  12
ENDBRANCH   5   6
ENDBRANCH   2   5
BRANCH   1  19
HETATM   19  C   UNL     1      42.690 -16.931   4.557  1.00  0.00     0.102 A 
HETATM   20  N   UNL     1      42.413 -17.616   3.392  1.00  0.00    -0.351 N 
HETATM   21  C   UNL     1      43.155 -18.769   3.305  1.00  0.00     0.043 A 
HETATM   22  H   UNL     1      41.748 -17.294   2.701  1.00  0.00     0.166 HD
HETATM   23  C   UNL     1      43.193 -19.745   2.302  1.00  0.00     0.037 A 
HETATM   24  C   UNL     1      43.935 -18.837   4.455  1.00  0.00    -0.007 A 
HETATM   25  C   UNL     1      44.055 -20.839   2.482  1.00  0.00    -0.060 A 
HETATM   26  C   UNL     1      44.154 -21.906   1.430  1.00  0.00     0.048 C 
HETATM   27  C   UNL     1      44.851 -20.922   3.629  1.00  0.00     0.007 A 
HETATM   28  C   UNL     1      44.799 -19.935   4.622  1.00  0.00     0.014 A 
HETATM   29  C   UNL     1      43.636 -17.681   5.233  1.00  0.00     0.049 A 
ENDBRANCH   1  19
TORSDOF 4
ENDMDL
MODEL 6
REMARK VINA RESULT:      -8.8      3.839      8.884
REMARK  4 active torsions:
REMARK  status: ('A' for Active; 'I' for Inactive)
REMARK    1  A    between atoms: C_10  and  C_11 
REMARK       I    between atoms: C_11  and  N_12 
REMARK    2  A    between atoms: N_12  and  C_13 
REMARK    3  A    between atoms: C_13  and  C_14 
REMARK    4  A    between atoms: C_16  and  C_17 
ROOT
HETATM    1  C   UNL     1      44.018 -16.277   6.597  1.00  0.00     0.268 C 
HETATM    2  N   UNL     1      43.864 -15.220   5.736  1.00  0.00    -0.351 N 
HETATM    3  O   UNL     1      44.029 -16.146   7.817  1.00  0.00    -0.266 OA
HETATM    4  H   UNL     1      43.820 -15.386   4.743  1.00  0.00     0.163 HD
ENDROOT
BRANCH   2   5
HETATM    5  C   UNL     1      43.675 -13.865   6.198  1.00  0.00     0.161 C 
BRANCH   5   6
HETATM    6  C   UNL     1      42.352 -13.316   5.732  1.00  0.00    -0.040 A 
HETATM    7  C   UNL     1      41.655 -13.922   4.674  1.00  0.00     0.024 A 
HETATM    8  C   UNL     1      40.428 -13.408   4.225  1.00  0.00     0.014 A 
HETATM    9  C   UNL     1      39.899 -12.273   4.855  1.00  0.00     0.015 A 
HETATM   10  C   UNL     1      40.583 -11.661   5.908  1.00  0.00     0.002 A 
HETATM   11  C   UNL     1      41.803 -12.178   6.341  1.00  0.00     0.009 A 
BRANCH   8  12
HETATM   12  C   UNL     1      39.727 -14.045   3.113  1.00  0.00     0.181 A 
HETATM   13  N   UNL     1      39.777 -15.361   2.843  1.00  0.00    -0.152 NA
HETATM   14  N   UNL     1      38.983 -15.458   1.768  1.00  0.00    -0.263 N 
HETATM   15  H   UNL     1      38.833 -16.366   1.343  1.00  0.00     0.190 HD
HETATM   16  C   UNL     1      38.479 -14.245   1.405  1.00  0.00     0.118 A 
HETATM   17  C   UNL     1      37.574 -14.050   0.254  1.00  0.00     0.093 C 
HETATM   18  N   UNL     1      38.934 -13.334   2.235  1.00  0.00    -0.212 NA
ENDBRANCH   8  12
ENDBRANCH   5   6
ENDBRANCH   2   5
BRANCH   1  19
HETATM   19  C   UNL     1      44.159 -17.573   5.971  1.00  0.00     0.102 A 
HETATM   20  N   UNL     1      43.877 -17.745   4.632  1.00  0.00    -0.351 N 
HETATM   21  C   UNL     1      44.083 -19.046   4.243  1.00  0.00     0.043 A 
HETATM   22  H   UNL     1      43.562 -16.997   4.029  1.00  0.00     0.166 HD
HETATM   23  C   UNL     1      43.928 -19.650   2.990  1.00  0.00     0.037 A 
HETATM   24  C   UNL     1      44.507 -19.744   5.370  1.00  0.00    -0.007 A 
HETATM   25  C   UNL     1      44.208 -21.022   2.882  1.00  0.00    -0.060 A 
HETATM   26  C   UNL     1      44.080 -21.719   1.558  1.00  0.00     0.048 C 
HETATM   27  C   UNL     1      44.641 -21.739   4.003  1.00  0.00     0.007 A 
HETATM   28  C   UNL     1      44.791 -21.116   5.249  1.00  0.00     0.014 A 
HETATM   29  C   UNL     1      44.552 -18.812   6.447  1.00  0.00     0.049 A 
ENDBRANCH   1  19
TORSDOF 4
ENDMDL
MODEL 7
REMARK VINA RESULT:      -8.8      7.144     11.356
REMARK  4 active torsions:
REMARK  status: ('A' for Active; 'I' for Inactive)
REMARK    1  A    between atoms: C_10  and  C_11 
REMARK       I    between atoms: C_11  and  N_12 
REMARK    2  A    between atoms: N_12  and  C_13 
REMARK    3  A    between atoms: C_13  and  C_14 
REMARK    4  A    between atoms: C_16  and  C_17 
ROOT
HETATM    1  C   UNL     1      43.064 -16.157   2.117  1.00  0.00     0.268 C 
HETATM    2  N   UNL     1      42.116 -15.900   1.158  1.00  0.00    -0.351 N 
HETATM    3  O   UNL     1      43.606 -15.271   2.771  1.00  0.00    -0.266 OA
HETATM    4  H   UNL     1      41.671 -16.665   0.677  1.00  0.00     0.163 HD
ENDROOT
BRANCH   2   5
HETATM    5  C   UNL     1      41.659 -14.563   0.859  1.00  0.00     0.161 C 
BRANCH   5   6
HETATM    6  C   UNL     1      41.561 -14.348  -0.629  1.00  0.00    -0.040 A 
HETATM    7  C   UNL     1      41.879 -13.103  -1.197  1.00  0.00     0.024 A 
HETATM    8  C   UNL     1      41.776 -12.890  -2.581  1.00  0.00     0.014 A 
HETATM    9  C   UNL     1      41.353 -13.948  -3.398  1.00  0.00     0.015 A 
HETATM   10  C   UNL     1      41.034 -15.190  -2.845  1.00  0.00     0.002 A 
HETATM   11  C   UNL     1      41.135 -15.387  -1.469  1.00  0.00     0.009 A 
BRANCH   8  12
HETATM   12  C   UNL     1      42.097 -11.583  -3.149  1.00  0.00     0.181 A 
HETATM   13  N   UNL     1      42.409 -10.498  -2.421  1.00  0.00    -0.152 NA
HETATM   14  N   UNL     1      42.628  -9.577  -3.367  1.00  0.00    -0.263 N 
HETATM   15  H   UNL     1      42.891  -8.636  -3.093  1.00  0.00     0.190 HD
HETATM   16  C   UNL     1      42.453 -10.090  -4.618  1.00  0.00     0.118 A 
HETATM   17  C   UNL     1      42.626  -9.301  -5.854  1.00  0.00     0.093 C 
HETATM   18  N   UNL     1      42.113 -11.355  -4.511  1.00  0.00    -0.212 NA
ENDBRANCH   8  12
ENDBRANCH   5   6
ENDBRANCH   2   5
BRANCH   1  19
HETATM   19  C   UNL     1      43.382 -17.553   2.317  1.00  0.00     0.102 A 
HETATM   20  N   UNL     1      43.889 -17.997   3.520  1.00  0.00    -0.351 N 
HETATM   21  C   UNL     1      44.114 -19.351   3.497  1.00  0.00     0.043 A 
HETATM   22  H   UNL     1      44.062 -17.388   4.309  1.00  0.00     0.166 HD
HETATM   23  C   UNL     1      44.609 -20.203   4.492  1.00  0.00     0.037 A 
HETATM   24  C   UNL     1      43.747 -19.801   2.232  1.00  0.00    -0.007 A 
HETATM   25  C   UNL     1      44.743 -21.565   4.184  1.00  0.00    -0.060 A 
HETATM   26  C   UNL     1      45.249 -22.530   5.219  1.00  0.00     0.048 C 
HETATM   27  C   UNL     1      44.375 -22.037   2.919  1.00  0.00     0.007 A 
HETATM   28  C   UNL     1      43.881 -21.170   1.937  1.00  0.00     0.014 A 
HETATM   29  C   UNL     1      43.290 -18.667   1.500  1.00  0.00     0.049 A 
ENDBRANCH   1  19
TORSDOF 4
ENDMDL
MODEL 8
REMARK VINA RESULT:      -8.7      4.765      7.690
REMARK  4 active torsions:
REMARK  status: ('A' for Active; 'I' for Inactive)
REMARK    1  A    between atoms: C_10  and  C_11 
REMARK       I    between atoms: C_11  and  N_12 
REMARK    2  A    between atoms: N_12  and  C_13 
REMARK    3  A    between atoms: C_13  and  C_14 
REMARK    4  A    between atoms: C_16  and  C_17 
ROOT
HETATM    1  C   UNL     1      40.831 -14.782   4.123  1.00  0.00     0.268 C 
HETATM    2  N   UNL     1      40.551 -16.007   4.674  1.00  0.00    -0.351 N 
HETATM    3  O   UNL     1      41.396 -13.886   4.743  1.00  0.00    -0.266 OA
HETATM    4  H   UNL     1      40.122 -16.724   4.110  1.00  0.00     0.163 HD
ENDROOT
BRANCH   2   5
HETATM    5  C   UNL     1      40.924 -16.353   6.026  1.00  0.00     0.161 C 
BRANCH   5   6
HETATM    6  C   UNL     1      42.316 -16.927   6.071  1.00  0.00    -0.040 A 
HETATM    7  C   UNL     1      42.635 -18.093   5.357  1.00  0.00     0.024 A 
HETATM    8  C   UNL     1      43.926 -18.643   5.406  1.00  0.00     0.014 A 
HETATM    9  C   UNL     1      44.904 -18.004   6.180  1.00  0.00     0.015 A 
HETATM   10  C   UNL     1      44.599 -16.844   6.895  1.00  0.00     0.002 A 
HETATM   11  C   UNL     1      43.312 -16.311   6.843  1.00  0.00     0.009 A 
BRANCH   8  12
HETATM   12  C   UNL     1      44.233 -19.865   4.666  1.00  0.00     0.181 A 
HETATM   13  N   UNL     1      44.723 -20.984   5.226  1.00  0.00    -0.152 NA
HETATM   14  N   UNL     1      44.822 -21.805   4.172  1.00  0.00    -0.263 N 
HETATM   15  H   UNL     1      45.172 -22.747   4.309  1.00  0.00     0.190 HD
HETATM   16  C   UNL     1      44.409 -21.200   3.023  1.00  0.00     0.118 A 
HETATM   17  C   UNL     1      44.409 -21.868   1.706  1.00  0.00     0.093 C 
HETATM   18  N   UNL     1      44.035 -19.973   3.304  1.00  0.00    -0.212 NA
ENDBRANCH   8  12
ENDBRANCH   5   6
ENDBRANCH   2   5
BRANCH   1  19
HETATM   19  C   UNL     1      40.421 -14.612   2.747  1.00  0.00     0.102 A 
HETATM   20  N   UNL     1      41.204 -15.084   1.713  1.00  0.00    -0.351 N 
HETATM   21  C   UNL     1      40.629 -14.823   0.494  1.00  0.00     0.043 A 
HETATM   22  H   UNL     1      42.084 -15.561   1.856  1.00  0.00     0.166 HD
HETATM   23  C   UNL     1      41.071 -15.129  -0.798  1.00  0.00     0.037 A 
HETATM   24  C   UNL     1      39.435 -14.153   0.745  1.00  0.00    -0.007 A 
HETATM   25  C   UNL     1      40.270 -14.729  -1.880  1.00  0.00    -0.060 A 
HETATM   26  C   UNL     1      40.684 -15.048  -3.288  1.00  0.00     0.048 C 
HETATM   27  C   UNL     1      39.064 -14.059  -1.648  1.00  0.00     0.007 A 
HETATM   28  C   UNL     1      38.637 -13.763  -0.347  1.00  0.00     0.014 A 
HETATM   29  C   UNL     1      39.314 -14.026   2.158  1.00  0.00     0.049 A 
ENDBRANCH   1  19
TORSDOF 4
ENDMDL
MODEL 9
REMARK VINA RESULT:      -8.5      5.262      7.744
REMARK  4 active torsions:
REMARK  status: ('A' for Active; 'I' for Inactive)
REMARK    1  A    between atoms: C_10  and  C_11 
REMARK       I    between atoms: C_11  and  N_12 
REMARK    2  A    between atoms: N_12  and  C_13 
REMARK    3  A    between atoms: C_13  and  C_14 
REMARK    4  A    between atoms: C_16  and  C_17 
ROOT
HETATM    1  C   UNL     1      40.885 -15.354   2.142  1.00  0.00     0.268 C 
HETATM    2  N   UNL     1      41.452 -14.939   3.319  1.00  0.00    -0.351 N 
HETATM    3  O   UNL     1      40.101 -16.297   2.076  1.00  0.00    -0.266 OA
HETATM    4  H   UNL     1      42.057 -14.133   3.327  1.00  0.00     0.163 HD
ENDROOT
BRANCH   2   5
HETATM    5  C   UNL     1      41.152 -15.562   4.587  1.00  0.00     0.161 C 
BRANCH   5   6
HETATM    6  C   UNL     1      42.342 -16.325   5.107  1.00  0.00    -0.040 A 
HETATM    7  C   UNL     1      42.716 -17.551   4.533  1.00  0.00     0.024 A 
HETATM    8  C   UNL     1      43.815 -18.275   5.022  1.00  0.00     0.014 A 
HETATM    9  C   UNL     1      44.545 -17.752   6.099  1.00  0.00     0.015 A 
HETATM   10  C   UNL     1      44.183 -16.534   6.677  1.00  0.00     0.002 A 
HETATM   11  C   UNL     1      43.086 -15.827   6.186  1.00  0.00     0.009 A 
BRANCH   8  12
HETATM   12  C   UNL     1      44.178 -19.556   4.420  1.00  0.00     0.181 A 
HETATM   13  N   UNL     1      44.788 -20.555   5.080  1.00  0.00    -0.152 NA
HETATM   14  N   UNL     1      44.894 -21.495   4.131  1.00  0.00    -0.263 N 
HETATM   15  H   UNL     1      45.325 -22.384   4.359  1.00  0.00     0.190 HD
HETATM   16  C   UNL     1      44.370 -21.074   2.946  1.00  0.00     0.118 A 
HETATM   17  C   UNL     1      44.351 -21.902   1.723  1.00  0.00     0.093 C 
HETATM   18  N   UNL     1      43.913 -19.851   3.098  1.00  0.00    -0.212 NA
ENDBRANCH   8  12
ENDBRANCH   5   6
ENDBRANCH   2   5
BRANCH   1  19
HETATM   19  C   UNL     1      41.264 -14.599   0.969  1.00  0.00     0.102 A 
HETATM   20  N   UNL     1      41.675 -13.286   1.076  1.00  0.00    -0.351 N 
HETATM   21  C   UNL     1      41.993 -12.762  -0.152  1.00  0.00     0.043 A 
HETATM   22  H   UNL     1      41.732 -12.791   1.957  1.00  0.00     0.166 HD
HETATM   23  C   UNL     1      42.455 -11.486  -0.499  1.00  0.00     0.037 A 
HETATM   24  C   UNL     1      41.774 -13.766  -1.091  1.00  0.00    -0.007 A 
HETATM   25  C   UNL     1      42.695 -11.220  -1.856  1.00  0.00    -0.060 A 
HETATM   26  C   UNL     1      43.211  -9.876  -2.285  1.00  0.00     0.048 C 
HETATM   27  C   UNL     1      42.486 -12.219  -2.813  1.00  0.00     0.007 A 
HETATM   28  C   UNL     1      42.025 -13.490  -2.447  1.00  0.00     0.014 A 
HETATM   29  C   UNL     1      41.318 -14.912  -0.378  1.00  0.00     0.049 A 
ENDBRANCH   1  19
TORSDOF 4
ENDMDL
MODEL 10
REMARK VINA RESULT:      -8.4      1.897      2.739
REMARK  4 active torsions:
REMARK  status: ('A' for Active; 'I' for Inactive)
REMARK    1  A    between atoms: C_10  and  C_11 
REMARK       I    between atoms: C_11  and  N_12 
REMARK    2  A    between atoms: N_12  and  C_13 
REMARK    3  A    between atoms: C_13  and  C_14 
REMARK    4  A    between atoms: C_16  and  C_17 
ROOT
HETATM    1  C   UNL     1      41.698 -11.776   6.278  1.00  0.00     0.268 C 
HETATM    2  N   UNL     1      42.446 -12.925   6.218  1.00  0.00    -0.351 N 
HETATM    3  O   UNL     1      41.044 -11.357   5.327  1.00  0.00    -0.266 OA
HETATM    4  H   UNL     1      42.932 -13.249   7.039  1.00  0.00     0.163 HD
ENDROOT
BRANCH   2   5
HETATM    5  C   UNL     1      42.505 -13.751   5.035  1.00  0.00     0.161 C 
BRANCH   5   6
HETATM    6  C   UNL     1      43.107 -15.097   5.347  1.00  0.00    -0.040 A 
HETATM    7  C   UNL     1      43.088 -16.130   4.397  1.00  0.00     0.024 A 
HETATM    8  C   UNL     1      43.634 -17.391   4.685  1.00  0.00     0.014 A 
HETATM    9  C   UNL     1      44.210 -17.606   5.945  1.00  0.00     0.015 A 
HETATM   10  C   UNL     1      44.235 -16.586   6.898  1.00  0.00     0.002 A 
HETATM   11  C   UNL     1      43.684 -15.340   6.602  1.00  0.00     0.009 A 
BRANCH   8  12
HETATM   12  C   UNL     1      43.591 -18.456   3.687  1.00  0.00     0.181 A 
HETATM   13  N   UNL     1      42.872 -18.401   2.553  1.00  0.00    -0.152 NA
HETATM   14  N   UNL     1      43.161 -19.576   1.978  1.00  0.00    -0.263 N 
HETATM   15  H   UNL     1      42.745 -19.806   1.082  1.00  0.00     0.190 HD
HETATM   16  C   UNL     1      44.019 -20.310   2.741  1.00  0.00     0.118 A 
HETATM   17  C   UNL     1      44.509 -21.649   2.356  1.00  0.00     0.093 C 
HETATM   18  N   UNL     1      44.305 -19.629   3.828  1.00  0.00    -0.212 NA
ENDBRANCH   8  12
ENDBRANCH   5   6
ENDBRANCH   2   5
BRANCH   1  19
HETATM   19  C   UNL     1      41.721 -11.086   7.548  1.00  0.00     0.102 A 
HETATM   20  N   UNL     1      42.662 -11.399   8.506  1.00  0.00    -0.351 N 
HETATM   21  C   UNL     1      42.508 -10.624   9.628  1.00  0.00     0.043 A 
HETATM   22  H   UNL     1      43.370 -12.111   8.378  1.00  0.00     0.166 HD
HETATM   23  C   UNL     1      43.241 -10.604  10.821  1.00  0.00     0.037 A 
HETATM   24  C   UNL     1      41.425  -9.782   9.393  1.00  0.00    -0.007 A 
HETATM   25  C   UNL     1      42.850  -9.696  11.818  1.00  0.00    -0.060 A 
HETATM   26  C   UNL     1      43.611  -9.615  13.110  1.00  0.00     0.048 C 
HETATM   27  C   UNL     1      41.766  -8.838  11.599  1.00  0.00     0.007 A 
HETATM   28  C   UNL     1      41.046  -8.872  10.398  1.00  0.00     0.014 A 
HETATM   29  C   UNL     1      40.939 -10.080   8.088  1.00  0.00     0.049 A 
ENDBRANCH   1  19
TORSDOF 4
ENDMDL
