MODEL 1
REMARK VINA RESULT:      -8.3      0.000      0.000
REMARK  6 active torsions:
REMARK  status: ('A' for Active; 'I' for Inactive)
REMARK    1  A    between atoms: C_2  and  C_3 
REMARK       I    between atoms: C_3  and  N_4 
REMARK    2  A    between atoms: N_4  and  C_5 
REMARK    3  A    between atoms: C_5  and  C_6 
REMARK    4  A    between atoms: N_8  and  C_10 
REMARK    5  A    between atoms: C_10  and  C_11 
REMARK    6  A    between atoms: C_12  and  C_13 
ROOT
HETATM    1  C   UNL     1      40.406 -16.024   1.378  1.00  0.00     0.029 C 
HETATM    2  C   UNL     1      40.561 -16.876   2.642  1.00  0.00     0.241 C 
HETATM    3  N   UNL     1      41.066 -16.068   3.814  1.00  0.00    -0.067 N 
HETATM    4  H   UNL     1      42.030 -15.767   3.562  1.00  0.00     0.280 HD
HETATM    5  C   UNL     1      40.205 -14.873   4.112  1.00  0.00     0.235 C 
HETATM    6  C   UNL     1      39.941 -14.031   2.871  1.00  0.00     0.028 C 
HETATM    7  C   UNL     1      39.454 -14.859   1.684  1.00  0.00     0.009 C 
ENDROOT
BRANCH   3   8
HETATM    8  C   UNL     1      41.278 -16.980   5.017  1.00  0.00     0.277 C 
BRANCH   8   9
HETATM    9  C   UNL     1      42.581 -16.858   5.728  1.00  0.00     0.016 A 
HETATM   10  C   UNL     1      43.771 -17.644   5.579  1.00  0.00     0.096 A 
HETATM   11  N   UNL     1      44.746 -17.185   6.374  1.00  0.00    -0.174 NA
HETATM   12  N   UNL     1      44.186 -16.215   7.097  1.00  0.00    -0.288 N 
HETATM   13  H   UNL     1      44.751 -15.760   7.809  1.00  0.00     0.188 HD
HETATM   14  C   UNL     1      42.889 -15.979   6.755  1.00  0.00     0.120 A 
BRANCH  10  15
HETATM   15  C   UNL     1      44.025 -18.815   4.740  1.00  0.00    -0.003 A 
HETATM   16  C   UNL     1      44.507 -20.005   5.296  1.00  0.00     0.037 A 
HETATM   17  C   UNL     1      44.799 -21.092   4.470  1.00  0.00     0.035 A 
HETATM   18 CL   UNL     1      45.363 -22.558   5.174  1.00  0.00    -0.084 Cl
HETATM   19  C   UNL     1      44.637 -21.003   3.090  1.00  0.00     0.024 A 
HETATM   20  C   UNL     1      44.176 -19.815   2.527  1.00  0.00     0.003 A 
HETATM   21  C   UNL     1      43.872 -18.726   3.348  1.00  0.00     0.014 A 
ENDBRANCH  10  15
ENDBRANCH   8   9
ENDBRANCH   3   8
BRANCH   1  22
HETATM   22  C   UNL     1      41.714 -15.491   0.761  1.00  0.00     0.128 C 
BRANCH  22  23
HETATM   23  N   UNL     1      41.748 -15.512  -0.683  1.00  0.00    -0.360 N 
HETATM   24  C   UNL     1      41.406 -14.392  -1.415  1.00  0.00     0.221 C 
HETATM   25  O   UNL     1      41.296 -13.290  -0.877  1.00  0.00    -0.273 OA
HETATM   26  H   UNL     1      41.671 -16.417  -1.143  1.00  0.00     0.162 HD
BRANCH  24  27
HETATM   27  C   UNL     1      41.223 -14.653  -2.908  1.00  0.00     0.070 C 
HETATM   28  C   UNL     1      40.550 -13.461  -3.585  1.00  0.00     0.019 C 
HETATM   29  C   UNL     1      40.417 -15.925  -3.144  1.00  0.00     0.019 C 
ENDBRANCH  24  27
ENDBRANCH  22  23
ENDBRANCH   1  22
TORSDOF 6
ENDMDL
MODEL 2
REMARK VINA RESULT:      -8.1      2.821      3.752
REMARK  6 active torsions:
REMARK  status: ('A' for Active; 'I' for Inactive)
REMARK    1  A    between atoms: C_2  and  C_3 
REMARK       I    between atoms: C_3  and  N_4 
REMARK    2  A    between atoms: N_4  and  C_5 
REMARK    3  A    between atoms: C_5  and  C_6 
REMARK    4  A    between atoms: N_8  and  C_10 
REMARK    5  A    between atoms: C_10  and  C_11 
REMARK    6  A    between atoms: C_12  and  C_13 
ROOT
HETATM    1  C   UNL     1      40.926 -15.507   5.532  1.00  0.00     0.029 C 
HETATM    2  C   UNL     1      42.085 -16.190   6.264  1.00  0.00     0.241 C 
HETATM    3  N   UNL     1      43.429 -15.756   5.731  1.00  0.00    -0.067 N 
HETATM    4  H   UNL     1      43.477 -16.104   4.751  1.00  0.00     0.280 HD
HETATM    5  C   UNL     1      43.617 -14.265   5.767  1.00  0.00     0.235 C 
HETATM    6  C   UNL     1      42.449 -13.524   5.129  1.00  0.00     0.028 C 
HETATM    7  C   UNL     1      41.093 -13.986   5.656  1.00  0.00     0.009 C 
ENDROOT
BRANCH   3   8
HETATM    8  C   UNL     1      44.539 -16.525   6.439  1.00  0.00     0.277 C 
BRANCH   8   9
HETATM    9  C   UNL     1      44.205 -17.896   6.915  1.00  0.00     0.016 A 
HETATM   10  C   UNL     1      43.982 -19.090   6.152  1.00  0.00     0.096 A 
HETATM   11  N   UNL     1      43.748 -20.132   6.960  1.00  0.00    -0.174 NA
HETATM   12  N   UNL     1      43.704 -19.624   8.191  1.00  0.00    -0.288 N 
HETATM   13  H   UNL     1      43.486 -20.249   8.963  1.00  0.00     0.188 HD
HETATM   14  C   UNL     1      43.967 -18.287   8.223  1.00  0.00     0.120 A 
BRANCH  10  15
HETATM   15  C   UNL     1      43.959 -19.290   4.704  1.00  0.00    -0.003 A 
HETATM   16  C   UNL     1      42.992 -18.665   3.908  1.00  0.00     0.037 A 
HETATM   17  C   UNL     1      42.951 -18.916   2.535  1.00  0.00     0.035 A 
HETATM   18 CL   UNL     1      41.774 -18.117   1.567  1.00  0.00    -0.084 Cl
HETATM   19  C   UNL     1      43.852 -19.799   1.944  1.00  0.00     0.024 A 
HETATM   20  C   UNL     1      44.806 -20.439   2.733  1.00  0.00     0.003 A 
HETATM   21  C   UNL     1      44.859 -20.186   4.106  1.00  0.00     0.014 A 
ENDBRANCH  10  15
ENDBRANCH   8   9
ENDBRANCH   3   8
BRANCH   1  22
HETATM   22  C   UNL     1      40.740 -15.899   4.053  1.00  0.00     0.128 C 
BRANCH  22  23
HETATM   23  N   UNL     1      39.809 -15.069   3.325  1.00  0.00    -0.360 N 
HETATM   24  C   UNL     1      40.192 -14.429   2.161  1.00  0.00     0.221 C 
HETATM   25  O   UNL     1      41.238 -14.730   1.586  1.00  0.00    -0.273 OA
HETATM   26  H   UNL     1      39.023 -14.677   3.839  1.00  0.00     0.162 HD
BRANCH  24  27
HETATM   27  C   UNL     1      39.198 -13.381   1.669  1.00  0.00     0.070 C 
HETATM   28  C   UNL     1      38.849 -12.402   2.788  1.00  0.00     0.019 C 
HETATM   29  C   UNL     1      37.936 -14.039   1.123  1.00  0.00     0.019 C 
ENDBRANCH  24  27
ENDBRANCH  22  23
ENDBRANCH   1  22
TORSDOF 6
ENDMDL
MODEL 3
REMARK VINA RESULT:      -8.1      3.335      6.614
REMARK  6 active torsions:
REMARK  status: ('A' for Active; 'I' for Inactive)
REMARK    1  A    between atoms: C_2  and  C_3 
REMARK       I    between atoms: C_3  and  N_4 
REMARK    2  A    between atoms: N_4  and  C_5 
REMARK    3  A    between atoms: C_5  and  C_6 
REMARK    4  A    between atoms: N_8  and  C_10 
REMARK    5  A    between atoms: C_10  and  C_11 
REMARK    6  A    between atoms: C_12  and  C_13 
ROOT
HETATM    1  C   UNL     1      43.061 -13.604   5.082  1.00  0.00     0.029 C 
HETATM    2  C   UNL     1      42.613 -14.735   4.151  1.00  0.00     0.241 C 
HETATM    3  N   UNL     1      41.376 -15.435   4.661  1.00  0.00    -0.067 N 
HETATM    4  H   UNL     1      41.654 -15.901   5.549  1.00  0.00     0.280 HD
HETATM    5  C   UNL     1      40.230 -14.493   4.900  1.00  0.00     0.235 C 
HETATM    6  C   UNL     1      40.638 -13.296   5.750  1.00  0.00     0.028 C 
HETATM    7  C   UNL     1      41.902 -12.610   5.242  1.00  0.00     0.009 C 
ENDROOT
BRANCH   3   8
HETATM    8  C   UNL     1      41.025 -16.599   3.741  1.00  0.00     0.277 C 
BRANCH   8   9
HETATM    9  C   UNL     1      41.705 -16.635   2.417  1.00  0.00     0.016 A 
HETATM   10  C   UNL     1      42.765 -17.489   1.967  1.00  0.00     0.096 A 
HETATM   11  N   UNL     1      43.070 -17.234   0.688  1.00  0.00    -0.174 NA
HETATM   12  N   UNL     1      42.324 -16.183   0.349  1.00  0.00    -0.288 N 
HETATM   13  H   UNL     1      42.441 -15.791  -0.582  1.00  0.00     0.188 HD
HETATM   14  C   UNL     1      41.491 -15.779   1.348  1.00  0.00     0.120 A 
BRANCH  10  15
HETATM   15  C   UNL     1      43.514 -18.517   2.688  1.00  0.00    -0.003 A 
HETATM   16  C   UNL     1      43.701 -19.790   2.137  1.00  0.00     0.037 A 
HETATM   17  C   UNL     1      44.368 -20.775   2.867  1.00  0.00     0.035 A 
HETATM   18 CL   UNL     1      44.614 -22.325   2.161  1.00  0.00    -0.084 Cl
HETATM   19  C   UNL     1      44.837 -20.516   4.152  1.00  0.00     0.024 A 
HETATM   20  C   UNL     1      44.639 -19.256   4.716  1.00  0.00     0.003 A 
HETATM   21  C   UNL     1      43.980 -18.263   3.987  1.00  0.00     0.014 A 
ENDBRANCH  10  15
ENDBRANCH   8   9
ENDBRANCH   3   8
BRANCH   1  22
HETATM   22  C   UNL     1      43.580 -14.038   6.467  1.00  0.00     0.128 C 
BRANCH  22  23
HETATM   23  N   UNL     1      43.550 -13.000   7.471  1.00  0.00    -0.360 N 
HETATM   24  C   UNL     1      44.633 -12.786   8.301  1.00  0.00     0.221 C 
HETATM   25  O   UNL     1      45.728 -13.297   8.061  1.00  0.00    -0.273 OA
HETATM   26  H   UNL     1      42.638 -12.687   7.799  1.00  0.00     0.162 HD
BRANCH  24  27
HETATM   27  C   UNL     1      44.346 -11.857   9.477  1.00  0.00     0.070 C 
HETATM   28  C   UNL     1      43.154 -10.952   9.169  1.00  0.00     0.019 C 
HETATM   29  C   UNL     1      45.573 -11.024   9.826  1.00  0.00     0.019 C 
ENDBRANCH  24  27
ENDBRANCH  22  23
ENDBRANCH   1  22
TORSDOF 6
ENDMDL
MODEL 4
REMARK VINA RESULT:      -8.1      4.412      6.764
REMARK  6 active torsions:
REMARK  status: ('A' for Active; 'I' for Inactive)
REMARK    1  A    between atoms: C_2  and  C_3 
REMARK       I    between atoms: C_3  and  N_4 
REMARK    2  A    between atoms: N_4  and  C_5 
REMARK    3  A    between atoms: C_5  and  C_6 
REMARK    4  A    between atoms: N_8  and  C_10 
REMARK    5  A    between atoms: C_10  and  C_11 
REMARK    6  A    between atoms: C_12  and  C_13 
ROOT
HETATM    1  C   UNL     1      41.778 -12.269   5.596  1.00  0.00     0.029 C 
HETATM    2  C   UNL     1      42.896 -13.304   5.433  1.00  0.00     0.241 C 
HETATM    3  N   UNL     1      42.612 -14.573   6.200  1.00  0.00    -0.067 N 
HETATM    4  H   UNL     1      42.623 -14.309   7.208  1.00  0.00     0.280 HD
HETATM    5  C   UNL     1      41.292 -15.192   5.836  1.00  0.00     0.235 C 
HETATM    6  C   UNL     1      40.150 -14.186   5.893  1.00  0.00     0.028 C 
HETATM    7  C   UNL     1      40.455 -12.897   5.135  1.00  0.00     0.009 C 
ENDROOT
BRANCH   3   8
HETATM    8  C   UNL     1      43.790 -15.532   6.069  1.00  0.00     0.277 C 
BRANCH   8   9
HETATM    9  C   UNL     1      43.663 -16.848   6.754  1.00  0.00     0.016 A 
HETATM   10  C   UNL     1      43.617 -18.163   6.186  1.00  0.00     0.096 A 
HETATM   11  N   UNL     1      43.541 -19.093   7.148  1.00  0.00    -0.174 NA
HETATM   12  N   UNL     1      43.425 -18.414   8.288  1.00  0.00    -0.288 N 
HETATM   13  H   UNL     1      43.303 -18.940   9.151  1.00  0.00     0.188 HD
HETATM   14  C   UNL     1      43.487 -17.065   8.113  1.00  0.00     0.120 A 
BRANCH  10  15
HETATM   15  C   UNL     1      43.622 -18.583   4.786  1.00  0.00    -0.003 A 
HETATM   16  C   UNL     1      42.698 -18.057   3.876  1.00  0.00     0.037 A 
HETATM   17  C   UNL     1      42.681 -18.515   2.557  1.00  0.00     0.035 A 
HETATM   18 CL   UNL     1      41.557 -17.836   1.444  1.00  0.00    -0.084 Cl
HETATM   19  C   UNL     1      43.561 -19.507   2.135  1.00  0.00     0.024 A 
HETATM   20  C   UNL     1      44.472 -20.049   3.040  1.00  0.00     0.003 A 
HETATM   21  C   UNL     1      44.501 -19.590   4.359  1.00  0.00     0.014 A 
ENDBRANCH  10  15
ENDBRANCH   8   9
ENDBRANCH   3   8
BRANCH   1  22
HETATM   22  C   UNL     1      41.616 -11.670   7.006  1.00  0.00     0.128 C 
BRANCH  22  23
HETATM   23  N   UNL     1      42.800 -11.748   7.831  1.00  0.00    -0.360 N 
HETATM   24  C   UNL     1      42.915 -10.987   8.978  1.00  0.00     0.221 C 
HETATM   25  O   UNL     1      41.938 -10.410   9.458  1.00  0.00    -0.273 OA
HETATM   26  H   UNL     1      43.660 -12.071   7.393  1.00  0.00     0.162 HD
BRANCH  24  27
HETATM   27  C   UNL     1      44.318 -10.970   9.579  1.00  0.00     0.070 C 
HETATM   28  C   UNL     1      45.181 -12.069   8.961  1.00  0.00     0.019 C 
HETATM   29  C   UNL     1      44.263 -11.124  11.094  1.00  0.00     0.019 C 
ENDBRANCH  24  27
ENDBRANCH  22  23
ENDBRANCH   1  22
TORSDOF 6
ENDMDL
MODEL 5
REMARK VINA RESULT:      -8.1      1.905      2.883
REMARK  6 active torsions:
REMARK  status: ('A' for Active; 'I' for Inactive)
REMARK    1  A    between atoms: C_2  and  C_3 
REMARK       I    between atoms: C_3  and  N_4 
REMARK    2  A    between atoms: N_4  and  C_5 
REMARK    3  A    between atoms: C_5  and  C_6 
REMARK    4  A    between atoms: N_8  and  C_10 
REMARK    5  A    between atoms: C_10  and  C_11 
REMARK    6  A    between atoms: C_12  and  C_13 
ROOT
HETATM    1  C   UNL     1      40.191 -14.792   5.190  1.00  0.00     0.029 C 
HETATM    2  C   UNL     1      41.463 -15.569   5.545  1.00  0.00     0.241 C 
HETATM    3  N   UNL     1      42.712 -14.753   5.309  1.00  0.00    -0.067 N 
HETATM    4  H   UNL     1      42.762 -14.594   4.281  1.00  0.00     0.280 HD
HETATM    5  C   UNL     1      42.699 -13.441   6.041  1.00  0.00     0.235 C 
HETATM    6  C   UNL     1      41.415 -12.659   5.798  1.00  0.00     0.028 C 
HETATM    7  C   UNL     1      40.159 -13.498   6.015  1.00  0.00     0.009 C 
ENDROOT
BRANCH   3   8
HETATM    8  C   UNL     1      43.945 -15.601   5.600  1.00  0.00     0.277 C 
BRANCH   8   9
HETATM    9  C   UNL     1      43.780 -16.708   6.582  1.00  0.00     0.016 A 
HETATM   10  C   UNL     1      43.813 -18.124   6.363  1.00  0.00     0.096 A 
HETATM   11  N   UNL     1      43.666 -18.786   7.518  1.00  0.00    -0.174 NA
HETATM   12  N   UNL     1      43.432 -17.849   8.436  1.00  0.00    -0.288 N 
HETATM   13  H   UNL     1      43.241 -18.148   9.390  1.00  0.00     0.188 HD
HETATM   14  C   UNL     1      43.485 -16.586   7.931  1.00  0.00     0.120 A 
BRANCH  10  15
HETATM   15  C   UNL     1      43.955 -18.880   5.120  1.00  0.00    -0.003 A 
HETATM   16  C   UNL     1      44.306 -20.235   5.140  1.00  0.00     0.037 A 
HETATM   17  C   UNL     1      44.495 -20.923   3.940  1.00  0.00     0.035 A 
HETATM   18 CL   UNL     1      44.897 -22.596   3.983  1.00  0.00    -0.084 Cl
HETATM   19  C   UNL     1      44.358 -20.275   2.716  1.00  0.00     0.024 A 
HETATM   20  C   UNL     1      44.027 -18.921   2.688  1.00  0.00     0.003 A 
HETATM   21  C   UNL     1      43.827 -18.228   3.884  1.00  0.00     0.014 A 
ENDBRANCH  10  15
ENDBRANCH   8   9
ENDBRANCH   3   8
BRANCH   1  22
HETATM   22  C   UNL     1      39.994 -14.471   3.695  1.00  0.00     0.128 C 
BRANCH  22  23
HETATM   23  N   UNL     1      40.433 -15.512   2.795  1.00  0.00    -0.360 N 
HETATM   24  C   UNL     1      41.557 -15.341   2.010  1.00  0.00     0.221 C 
HETATM   25  O   UNL     1      42.345 -14.418   2.221  1.00  0.00    -0.273 OA
HETATM   26  H   UNL     1      39.740 -16.189   2.482  1.00  0.00     0.162 HD
BRANCH  24  27
HETATM   27  C   UNL     1      41.727 -16.399   0.924  1.00  0.00     0.070 C 
HETATM   28  C   UNL     1      41.325 -15.841  -0.440  1.00  0.00     0.019 C 
HETATM   29  C   UNL     1      40.917 -17.649   1.248  1.00  0.00     0.019 C 
ENDBRANCH  24  27
ENDBRANCH  22  23
ENDBRANCH   1  22
TORSDOF 6
ENDMDL
MODEL 6
REMARK VINA RESULT:      -8.0      3.429      6.930
REMARK  6 active torsions:
REMARK  status: ('A' for Active; 'I' for Inactive)
REMARK    1  A    between atoms: C_2  and  C_3 
REMARK       I    between atoms: C_3  and  N_4 
REMARK    2  A    between atoms: N_4  and  C_5 
REMARK    3  A    between atoms: C_5  and  C_6 
REMARK    4  A    between atoms: N_8  and  C_10 
REMARK    5  A    between atoms: C_10  and  C_11 
REMARK    6  A    between atoms: C_12  and  C_13 
ROOT
HETATM    1  C   UNL     1      42.945 -16.248   7.594  1.00  0.00     0.029 C 
HETATM    2  C   UNL     1      42.093 -16.645   6.384  1.00  0.00     0.241 C 
HETATM    3  N   UNL     1      42.852 -17.526   5.420  1.00  0.00    -0.067 N 
HETATM    4  H   UNL     1      43.621 -16.937   5.037  1.00  0.00     0.280 HD
HETATM    5  C   UNL     1      43.411 -18.759   6.072  1.00  0.00     0.235 C 
HETATM    6  C   UNL     1      44.197 -18.434   7.336  1.00  0.00     0.028 C 
HETATM    7  C   UNL     1      43.432 -17.525   8.294  1.00  0.00     0.009 C 
ENDROOT
BRANCH   3   8
HETATM    8  C   UNL     1      41.987 -17.822   4.200  1.00  0.00     0.277 C 
BRANCH   8   9
HETATM    9  C   UNL     1      42.613 -17.605   2.866  1.00  0.00     0.016 A 
HETATM   10  C   UNL     1      43.351 -18.525   2.053  1.00  0.00     0.096 A 
HETATM   11  N   UNL     1      43.711 -17.954   0.896  1.00  0.00    -0.174 NA
HETATM   12  N   UNL     1      43.328 -16.681   0.996  1.00  0.00    -0.288 N 
HETATM   13  H   UNL     1      43.554 -16.050   0.231  1.00  0.00     0.188 HD
HETATM   14  C   UNL     1      42.668 -16.415   2.157  1.00  0.00     0.120 A 
BRANCH  10  15
HETATM   15  C   UNL     1      43.749 -19.907   2.320  1.00  0.00    -0.003 A 
HETATM   16  C   UNL     1      44.268 -20.276   3.567  1.00  0.00     0.037 A 
HETATM   17  C   UNL     1      44.696 -21.587   3.783  1.00  0.00     0.035 A 
HETATM   18 CL   UNL     1      45.304 -22.030   5.331  1.00  0.00    -0.084 Cl
HETATM   19  C   UNL     1      44.634 -22.535   2.765  1.00  0.00     0.024 A 
HETATM   20  C   UNL     1      44.135 -22.170   1.515  1.00  0.00     0.003 A 
HETATM   21  C   UNL     1      43.696 -20.863   1.294  1.00  0.00     0.014 A 
ENDBRANCH  10  15
ENDBRANCH   8   9
ENDBRANCH   3   8
BRANCH   1  22
HETATM   22  C   UNL     1      44.137 -15.317   7.302  1.00  0.00     0.128 C 
BRANCH  22  23
HETATM   23  N   UNL     1      44.076 -14.037   7.968  1.00  0.00    -0.360 N 
HETATM   24  C   UNL     1      45.120 -13.138   7.870  1.00  0.00     0.221 C 
HETATM   25  O   UNL     1      46.013 -13.290   7.036  1.00  0.00    -0.273 OA
HETATM   26  H   UNL     1      43.456 -13.951   8.771  1.00  0.00     0.162 HD
BRANCH  24  27
HETATM   27  C   UNL     1      45.029 -11.966   8.844  1.00  0.00     0.070 C 
HETATM   28  C   UNL     1      46.394 -11.301   9.014  1.00  0.00     0.019 C 
HETATM   29  C   UNL     1      44.485 -12.419  10.193  1.00  0.00     0.019 C 
ENDBRANCH  24  27
ENDBRANCH  22  23
ENDBRANCH   1  22
TORSDOF 6
ENDMDL
MODEL 7
REMARK VINA RESULT:      -7.7      3.965      4.839
REMARK  6 active torsions:
REMARK  status: ('A' for Active; 'I' for Inactive)
REMARK    1  A    between atoms: C_2  and  C_3 
REMARK       I    between atoms: C_3  and  N_4 
REMARK    2  A    between atoms: N_4  and  C_5 
REMARK    3  A    between atoms: C_5  and  C_6 
REMARK    4  A    between atoms: N_8  and  C_10 
REMARK    5  A    between atoms: C_10  and  C_11 
REMARK    6  A    between atoms: C_12  and  C_13 
ROOT
HETATM    1  C   UNL     1      42.006 -14.366   4.484  1.00  0.00     0.029 C 
HETATM    2  C   UNL     1      43.197 -15.255   4.854  1.00  0.00     0.241 C 
HETATM    3  N   UNL     1      43.076 -15.816   6.251  1.00  0.00    -0.067 N 
HETATM    4  H   UNL     1      43.129 -14.998   6.894  1.00  0.00     0.280 HD
HETATM    5  C   UNL     1      41.795 -16.570   6.468  1.00  0.00     0.235 C 
HETATM    6  C   UNL     1      40.575 -15.768   6.034  1.00  0.00     0.028 C 
HETATM    7  C   UNL     1      40.716 -15.185   4.630  1.00  0.00     0.009 C 
ENDROOT
BRANCH   3   8
HETATM    8  C   UNL     1      44.323 -16.623   6.594  1.00  0.00     0.277 C 
BRANCH   8   9
HETATM    9  C   UNL     1      44.112 -18.039   7.004  1.00  0.00     0.016 A 
HETATM   10  C   UNL     1      43.964 -19.206   6.185  1.00  0.00     0.096 A 
HETATM   11  N   UNL     1      43.837 -20.304   6.941  1.00  0.00    -0.174 NA
HETATM   12  N   UNL     1      43.787 -19.864   8.198  1.00  0.00    -0.288 N 
HETATM   13  H   UNL     1      43.641 -20.544   8.940  1.00  0.00     0.188 HD
HETATM   14  C   UNL     1      43.943 -18.514   8.295  1.00  0.00     0.120 A 
BRANCH  10  15
HETATM   15  C   UNL     1      43.917 -19.333   4.729  1.00  0.00    -0.003 A 
HETATM   16  C   UNL     1      42.957 -18.644   3.979  1.00  0.00     0.037 A 
HETATM   17  C   UNL     1      42.891 -18.825   2.596  1.00  0.00     0.035 A 
HETATM   18 CL   UNL     1      41.724 -17.947   1.686  1.00  0.00    -0.084 Cl
HETATM   19  C   UNL     1      43.759 -19.700   1.949  1.00  0.00     0.024 A 
HETATM   20  C   UNL     1      44.706 -20.404   2.692  1.00  0.00     0.003 A 
HETATM   21  C   UNL     1      44.783 -20.221   4.075  1.00  0.00     0.014 A 
ENDBRANCH  10  15
ENDBRANCH   8   9
ENDBRANCH   3   8
BRANCH   1  22
HETATM   22  C   UNL     1      41.884 -13.044   5.266  1.00  0.00     0.128 C 
BRANCH  22  23
HETATM   23  N   UNL     1      40.926 -12.110   4.722  1.00  0.00    -0.360 N 
HETATM   24  C   UNL     1      39.703 -11.914   5.334  1.00  0.00     0.221 C 
HETATM   25  O   UNL     1      39.487 -12.335   6.471  1.00  0.00    -0.273 OA
HETATM   26  H   UNL     1      40.998 -11.883   3.732  1.00  0.00     0.162 HD
BRANCH  24  27
HETATM   27  C   UNL     1      38.705 -11.120   4.496  1.00  0.00     0.070 C 
HETATM   28  C   UNL     1      38.701 -11.616   3.051  1.00  0.00     0.019 C 
HETATM   29  C   UNL     1      39.016  -9.628   4.546  1.00  0.00     0.019 C 
ENDBRANCH  24  27
ENDBRANCH  22  23
ENDBRANCH   1  22
TORSDOF 6
ENDMDL
MODEL 8
REMARK VINA RESULT:      -7.6      2.960      5.017
REMARK  6 active torsions:
REMARK  status: ('A' for Active; 'I' for Inactive)
REMARK    1  A    between atoms: C_2  and  C_3 
REMARK       I    between atoms: C_3  and  N_4 
REMARK    2  A    between atoms: N_4  and  C_5 
REMARK    3  A    between atoms: C_5  and  C_6 
REMARK    4  A    between atoms: N_8  and  C_10 
REMARK    5  A    between atoms: C_10  and  C_11 
REMARK    6  A    between atoms: C_12  and  C_13 
ROOT
HETATM    1  C   UNL     1      43.035 -17.662   2.387  1.00  0.00     0.029 C 
HETATM    2  C   UNL     1      44.041 -17.484   3.528  1.00  0.00     0.241 C 
HETATM    3  N   UNL     1      44.101 -18.695   4.428  1.00  0.00    -0.067 N 
HETATM    4  H   UNL     1      43.169 -18.758   4.887  1.00  0.00     0.280 HD
HETATM    5  C   UNL     1      44.403 -19.963   3.680  1.00  0.00     0.235 C 
HETATM    6  C   UNL     1      43.488 -20.152   2.477  1.00  0.00     0.028 C 
HETATM    7  C   UNL     1      43.415 -18.915   1.586  1.00  0.00     0.009 C 
ENDROOT
BRANCH   3   8
HETATM    8  C   UNL     1      45.055 -18.431   5.587  1.00  0.00     0.277 C 
BRANCH   8   9
HETATM    9  C   UNL     1      44.437 -18.153   6.913  1.00  0.00     0.016 A 
HETATM   10  C   UNL     1      43.614 -17.050   7.315  1.00  0.00     0.096 A 
HETATM   11  N   UNL     1      43.219 -17.190   8.587  1.00  0.00    -0.174 NA
HETATM   12  N   UNL     1      43.849 -18.276   9.035  1.00  0.00    -0.288 N 
HETATM   13  H   UNL     1      43.724 -18.536  10.010  1.00  0.00     0.188 HD
HETATM   14  C   UNL     1      44.596 -18.891   8.076  1.00  0.00     0.120 A 
BRANCH  10  15
HETATM   15  C   UNL     1      43.200 -15.865   6.565  1.00  0.00    -0.003 A 
HETATM   16  C   UNL     1      41.869 -15.697   6.166  1.00  0.00     0.037 A 
HETATM   17  C   UNL     1      41.506 -14.587   5.400  1.00  0.00     0.035 A 
HETATM   18 CL   UNL     1      39.859 -14.382   4.943  1.00  0.00    -0.084 Cl
HETATM   19  C   UNL     1      42.457 -13.649   5.008  1.00  0.00     0.024 A 
HETATM   20  C   UNL     1      43.788 -13.819   5.386  1.00  0.00     0.003 A 
HETATM   21  C   UNL     1      44.157 -14.922   6.161  1.00  0.00     0.014 A 
ENDBRANCH  10  15
ENDBRANCH   8   9
ENDBRANCH   3   8
BRANCH   1  22
HETATM   22  C   UNL     1      41.552 -17.730   2.803  1.00  0.00     0.128 C 
BRANCH  22  23
HETATM   23  N   UNL     1      40.770 -16.574   2.427  1.00  0.00    -0.360 N 
HETATM   24  C   UNL     1      40.766 -16.116   1.124  1.00  0.00     0.221 C 
HETATM   25  O   UNL     1      41.223 -16.801   0.208  1.00  0.00    -0.273 OA
HETATM   26  H   UNL     1      40.528 -15.910   3.160  1.00  0.00     0.162 HD
BRANCH  24  27
HETATM   27  C   UNL     1      40.126 -14.742   0.948  1.00  0.00     0.070 C 
HETATM   28  C   UNL     1      41.008 -13.654   1.557  1.00  0.00     0.019 C 
HETATM   29  C   UNL     1      38.733 -14.706   1.565  1.00  0.00     0.019 C 
ENDBRANCH  24  27
ENDBRANCH  22  23
ENDBRANCH   1  22
TORSDOF 6
ENDMDL
MODEL 9
REMARK VINA RESULT:      -7.5      3.750      6.672
REMARK  6 active torsions:
REMARK  status: ('A' for Active; 'I' for Inactive)
REMARK    1  A    between atoms: C_2  and  C_3 
REMARK       I    between atoms: C_3  and  N_4 
REMARK    2  A    between atoms: N_4  and  C_5 
REMARK    3  A    between atoms: C_5  and  C_6 
REMARK    4  A    between atoms: N_8  and  C_10 
REMARK    5  A    between atoms: C_10  and  C_11 
REMARK    6  A    between atoms: C_12  and  C_13 
ROOT
HETATM    1  C   UNL     1      41.180 -12.338   5.098  1.00  0.00     0.029 C 
HETATM    2  C   UNL     1      41.835 -13.013   3.888  1.00  0.00     0.241 C 
HETATM    3  N   UNL     1      42.243 -14.436   4.184  1.00  0.00    -0.067 N 
HETATM    4  H   UNL     1      42.990 -14.377   4.907  1.00  0.00     0.280 HD
HETATM    5  C   UNL     1      41.103 -15.280   4.678  1.00  0.00     0.235 C 
HETATM    6  C   UNL     1      40.354 -14.618   5.828  1.00  0.00     0.028 C 
HETATM    7  C   UNL     1      39.966 -13.172   5.530  1.00  0.00     0.009 C 
ENDROOT
BRANCH   3   8
HETATM    8  C   UNL     1      42.960 -15.029   2.976  1.00  0.00     0.277 C 
BRANCH   8   9
HETATM    9  C   UNL     1      42.155 -15.910   2.085  1.00  0.00     0.016 A 
HETATM   10  C   UNL     1      42.189 -17.337   1.953  1.00  0.00     0.096 A 
HETATM   11  N   UNL     1      41.272 -17.754   1.070  1.00  0.00    -0.174 NA
HETATM   12  N   UNL     1      40.740 -16.643   0.561  1.00  0.00    -0.288 N 
HETATM   13  H   UNL     1      40.046 -16.737  -0.176  1.00  0.00     0.188 HD
HETATM   14  C   UNL     1      41.235 -15.508   1.129  1.00  0.00     0.120 A 
BRANCH  10  15
HETATM   15  C   UNL     1      43.054 -18.321   2.602  1.00  0.00    -0.003 A 
HETATM   16  C   UNL     1      43.380 -19.523   1.962  1.00  0.00     0.037 A 
HETATM   17  C   UNL     1      44.159 -20.475   2.623  1.00  0.00     0.035 A 
HETATM   18 CL   UNL     1      44.575 -21.934   1.810  1.00  0.00    -0.084 Cl
HETATM   19  C   UNL     1      44.604 -20.254   3.923  1.00  0.00     0.024 A 
HETATM   20  C   UNL     1      44.268 -19.068   4.574  1.00  0.00     0.003 A 
HETATM   21  C   UNL     1      43.497 -18.107   3.916  1.00  0.00     0.014 A 
ENDBRANCH  10  15
ENDBRANCH   8   9
ENDBRANCH   3   8
BRANCH   1  22
HETATM   22  C   UNL     1      42.102 -12.080   6.306  1.00  0.00     0.128 C 
BRANCH  22  23
HETATM   23  N   UNL     1      41.426 -11.584   7.482  1.00  0.00    -0.360 N 
HETATM   24  C   UNL     1      41.515 -10.253   7.841  1.00  0.00     0.221 C 
HETATM   25  O   UNL     1      41.962  -9.413   7.059  1.00  0.00    -0.273 OA
HETATM   26  H   UNL     1      41.199 -12.254   8.214  1.00  0.00     0.162 HD
BRANCH  24  27
HETATM   27  C   UNL     1      40.987  -9.946   9.239  1.00  0.00     0.070 C 
HETATM   28  C   UNL     1      41.775 -10.721  10.294  1.00  0.00     0.019 C 
HETATM   29  C   UNL     1      39.501 -10.266   9.343  1.00  0.00     0.019 C 
ENDBRANCH  24  27
ENDBRANCH  22  23
ENDBRANCH   1  22
TORSDOF 6
ENDMDL
MODEL 10
REMARK VINA RESULT:      -7.5      3.194      5.166
REMARK  6 active torsions:
REMARK  status: ('A' for Active; 'I' for Inactive)
REMARK    1  A    between atoms: C_2  and  C_3 
REMARK       I    between atoms: C_3  and  N_4 
REMARK    2  A    between atoms: N_4  and  C_5 
REMARK    3  A    between atoms: C_5  and  C_6 
REMARK    4  A    between atoms: N_8  and  C_10 
REMARK    5  A    between atoms: C_10  and  C_11 
REMARK    6  A    between atoms: C_12  and  C_13 
ROOT
HETATM    1  C   UNL     1      43.494 -16.368   1.562  1.00  0.00     0.029 C 
HETATM    2  C   UNL     1      44.345 -17.642   1.572  1.00  0.00     0.241 C 
HETATM    3  N   UNL     1      43.745 -18.720   2.443  1.00  0.00    -0.067 N 
HETATM    4  H   UNL     1      43.780 -18.355   3.417  1.00  0.00     0.280 HD
HETATM    5  C   UNL     1      42.331 -19.058   2.061  1.00  0.00     0.235 C 
HETATM    6  C   UNL     1      41.454 -17.819   1.948  1.00  0.00     0.028 C 
HETATM    7  C   UNL     1      42.079 -16.725   1.086  1.00  0.00     0.009 C 
ENDROOT
BRANCH   3   8
HETATM    8  C   UNL     1      44.671 -19.930   2.480  1.00  0.00     0.277 C 
BRANCH   8   9
HETATM    9  C   UNL     1      44.625 -20.771   3.708  1.00  0.00     0.016 A 
HETATM   10  C   UNL     1      44.328 -20.388   5.057  1.00  0.00     0.096 A 
HETATM   11  N   UNL     1      44.346 -21.454   5.868  1.00  0.00    -0.174 NA
HETATM   12  N   UNL     1      44.751 -22.471   5.108  1.00  0.00    -0.288 N 
HETATM   13  H   UNL     1      44.882 -23.378   5.548  1.00  0.00     0.188 HD
HETATM   14  C   UNL     1      44.937 -22.119   3.805  1.00  0.00     0.120 A 
BRANCH  10  15
HETATM   15  C   UNL     1      44.048 -19.068   5.619  1.00  0.00    -0.003 A 
HETATM   16  C   UNL     1      42.758 -18.526   5.570  1.00  0.00     0.037 A 
HETATM   17  C   UNL     1      42.524 -17.239   6.059  1.00  0.00     0.035 A 
HETATM   18 CL   UNL     1      40.926 -16.600   6.017  1.00  0.00    -0.084 Cl
HETATM   19  C   UNL     1      43.563 -16.474   6.580  1.00  0.00     0.024 A 
HETATM   20  C   UNL     1      44.854 -17.000   6.616  1.00  0.00     0.003 A 
HETATM   21  C   UNL     1      45.094 -18.290   6.137  1.00  0.00     0.014 A 
ENDBRANCH  10  15
ENDBRANCH   8   9
ENDBRANCH   3   8
BRANCH   1  22
HETATM   22  C   UNL     1      43.425 -15.595   2.893  1.00  0.00     0.128 C 
BRANCH  22  23
HETATM   23  N   UNL     1      42.322 -14.667   2.991  1.00  0.00    -0.360 N 
HETATM   24  C   UNL     1      42.248 -13.764   4.034  1.00  0.00     0.221 C 
HETATM   25  O   UNL     1      43.217 -13.556   4.764  1.00  0.00    -0.273 OA
HETATM   26  H   UNL     1      41.453 -14.915   2.521  1.00  0.00     0.162 HD
BRANCH  24  27
HETATM   27  C   UNL     1      40.902 -13.054   4.151  1.00  0.00     0.070 C 
HETATM   28  C   UNL     1      40.513 -12.877   5.618  1.00  0.00     0.019 C 
HETATM   29  C   UNL     1      39.816 -13.816   3.400  1.00  0.00     0.019 C 
ENDBRANCH  24  27
ENDBRANCH  22  23
ENDBRANCH   1  22
TORSDOF 6
ENDMDL
