MODEL 1
REMARK VINA RESULT:      -8.0      0.000      0.000
REMARK  5 active torsions:
REMARK  status: ('A' for Active; 'I' for Inactive)
REMARK    1  A    between atoms: C_2  and  N_3 
REMARK       I    between atoms: N_3  and  C_4 
REMARK    2  A    between atoms: C_4  and  C_5 
REMARK    3  A    between atoms: C_13  and  C_14 
REMARK    4  A    between atoms: C_16  and  O_17 
REMARK    5  A    between atoms: C_19  and  O_20 
ROOT
HETATM    1  C   UNL     1      41.159 -14.994   0.845  1.00  0.00     0.046 A 
HETATM    2  C   UNL     1      40.589 -14.264   1.911  1.00  0.00     0.008 A 
HETATM    3  C   UNL     1      40.787 -14.800   3.199  1.00  0.00     0.068 A 
HETATM    4  C   UNL     1      40.257 -14.130   4.293  1.00  0.00     0.032 A 
HETATM    5  C   UNL     1      39.537 -12.941   4.160  1.00  0.00     0.002 A 
HETATM    6  C   UNL     1      39.342 -12.399   2.899  1.00  0.00     0.001 A 
HETATM    7  C   UNL     1      39.865 -13.051   1.784  1.00  0.00     0.015 A 
HETATM    8  N   UNL     1      41.476 -15.931   3.425  1.00  0.00    -0.248 NA
HETATM    9  C   UNL     1      41.998 -16.627   2.387  1.00  0.00     0.069 A 
HETATM   10  C   UNL     1      41.855 -16.184   1.085  1.00  0.00     0.050 A 
ENDROOT
BRANCH   9  11
HETATM   11  C   UNL     1      42.749 -17.852   2.742  1.00  0.00    -0.004 A 
HETATM   12  C   UNL     1      43.315 -17.999   4.025  1.00  0.00     0.053 A 
HETATM   13  C   UNL     1      44.061 -19.132   4.379  1.00  0.00     0.102 A 
HETATM   14  C   UNL     1      44.275 -20.148   3.432  1.00  0.00     0.101 A 
HETATM   15  C   UNL     1      43.696 -20.034   2.167  1.00  0.00     0.040 A 
HETATM   16  C   UNL     1      42.940 -18.903   1.831  1.00  0.00     0.017 A 
BRANCH  13  17
HETATM   17  O   UNL     1      44.646 -19.316   5.608  1.00  0.00    -0.353 OA
HETATM   18  C   UNL     1      45.080 -18.155   6.302  1.00  0.00     0.210 C 
ENDBRANCH  13  17
BRANCH  14  19
HETATM   19  O   UNL     1      45.032 -21.217   3.841  1.00  0.00    -0.353 OA
HETATM   20  C   UNL     1      44.569 -22.513   3.489  1.00  0.00     0.210 C 
ENDBRANCH  14  19
ENDBRANCH   9  11
BRANCH   1  21
HETATM   21  C   UNL     1      41.028 -14.556  -0.571  1.00  0.00     0.253 C 
HETATM   22  N   UNL     1      39.796 -14.806  -1.143  1.00  0.00    -0.349 N 
HETATM   23  H   UNL     1      39.181 -15.445  -0.653  1.00  0.00     0.163 HD
HETATM   24  O   UNL     1      41.963 -14.010  -1.140  1.00  0.00    -0.268 OA
BRANCH  22  25
HETATM   25  C   UNL     1      39.437 -14.494  -2.536  1.00  0.00     0.022 C 
HETATM   26  C   UNL     1      40.064 -15.516  -3.494  1.00  0.00     0.037 C 
HETATM   27  C   UNL     1      39.869 -13.070  -2.924  1.00  0.00     0.037 C 
HETATM   28  C   UNL     1      37.904 -14.575  -2.658  1.00  0.00     0.037 C 
ENDBRANCH  22  25
ENDBRANCH   1  21
TORSDOF 5
ENDMDL
MODEL 2
REMARK VINA RESULT:      -7.8      1.488      1.844
REMARK  5 active torsions:
REMARK  status: ('A' for Active; 'I' for Inactive)
REMARK    1  A    between atoms: C_2  and  N_3 
REMARK       I    between atoms: N_3  and  C_4 
REMARK    2  A    between atoms: C_4  and  C_5 
REMARK    3  A    between atoms: C_13  and  C_14 
REMARK    4  A    between atoms: C_16  and  O_17 
REMARK    5  A    between atoms: C_19  and  O_20 
ROOT
HETATM    1  C   UNL     1      41.666 -14.923   1.426  1.00  0.00     0.046 A 
HETATM    2  C   UNL     1      41.682 -13.949   2.447  1.00  0.00     0.008 A 
HETATM    3  C   UNL     1      42.251 -14.350   3.672  1.00  0.00     0.068 A 
HETATM    4  C   UNL     1      42.303 -13.439   4.718  1.00  0.00     0.032 A 
HETATM    5  C   UNL     1      41.813 -12.137   4.595  1.00  0.00     0.002 A 
HETATM    6  C   UNL     1      41.258 -11.727   3.393  1.00  0.00     0.001 A 
HETATM    7  C   UNL     1      41.195 -12.622   2.326  1.00  0.00     0.015 A 
HETATM    8  N   UNL     1      42.759 -15.577   3.878  1.00  0.00    -0.248 NA
HETATM    9  C   UNL     1      42.716 -16.504   2.892  1.00  0.00     0.069 A 
HETATM   10  C   UNL     1      42.175 -16.207   1.654  1.00  0.00     0.050 A 
ENDROOT
BRANCH   9  11
HETATM   11  C   UNL     1      43.312 -17.819   3.215  1.00  0.00    -0.004 A 
HETATM   12  C   UNL     1      43.550 -18.189   4.554  1.00  0.00     0.053 A 
HETATM   13  C   UNL     1      44.145 -19.414   4.889  1.00  0.00     0.102 A 
HETATM   14  C   UNL     1      44.538 -20.298   3.870  1.00  0.00     0.101 A 
HETATM   15  C   UNL     1      44.282 -19.962   2.540  1.00  0.00     0.040 A 
HETATM   16  C   UNL     1      43.674 -18.742   2.219  1.00  0.00     0.017 A 
BRANCH  13  17
HETATM   17  O   UNL     1      44.412 -19.815   6.176  1.00  0.00    -0.353 OA
HETATM   18  C   UNL     1      43.859 -19.035   7.227  1.00  0.00     0.210 C 
ENDBRANCH  13  17
BRANCH  14  19
HETATM   19  O   UNL     1      45.133 -21.468   4.270  1.00  0.00    -0.353 OA
HETATM   20  C   UNL     1      44.606 -22.677   3.744  1.00  0.00     0.210 C 
ENDBRANCH  14  19
ENDBRANCH   9  11
BRANCH   1  21
HETATM   21  C   UNL     1      41.092 -14.649   0.081  1.00  0.00     0.253 C 
HETATM   22  N   UNL     1      41.964 -14.054  -0.811  1.00  0.00    -0.349 N 
HETATM   23  H   UNL     1      42.815 -13.659  -0.428  1.00  0.00     0.163 HD
HETATM   24  O   UNL     1      39.936 -14.955  -0.174  1.00  0.00    -0.268 OA
BRANCH  22  25
HETATM   25  C   UNL     1      41.620 -13.660  -2.186  1.00  0.00     0.022 C 
HETATM   26  C   UNL     1      40.430 -12.691  -2.184  1.00  0.00     0.037 C 
HETATM   27  C   UNL     1      41.305 -14.883  -3.062  1.00  0.00     0.037 C 
HETATM   28  C   UNL     1      42.841 -12.944  -2.791  1.00  0.00     0.037 C 
ENDBRANCH  22  25
ENDBRANCH   1  21
TORSDOF 5
ENDMDL
MODEL 3
REMARK VINA RESULT:      -7.6      1.408      2.254
REMARK  5 active torsions:
REMARK  status: ('A' for Active; 'I' for Inactive)
REMARK    1  A    between atoms: C_2  and  N_3 
REMARK       I    between atoms: N_3  and  C_4 
REMARK    2  A    between atoms: C_4  and  C_5 
REMARK    3  A    between atoms: C_13  and  C_14 
REMARK    4  A    between atoms: C_16  and  O_17 
REMARK    5  A    between atoms: C_19  and  O_20 
ROOT
HETATM    1  C   UNL     1      41.755 -14.645   2.308  1.00  0.00     0.046 A 
HETATM    2  C   UNL     1      40.986 -14.143   3.381  1.00  0.00     0.008 A 
HETATM    3  C   UNL     1      41.055 -14.872   4.583  1.00  0.00     0.068 A 
HETATM    4  C   UNL     1      40.326 -14.431   5.679  1.00  0.00     0.032 A 
HETATM    5  C   UNL     1      39.531 -13.284   5.629  1.00  0.00     0.002 A 
HETATM    6  C   UNL     1      39.461 -12.552   4.455  1.00  0.00     0.001 A 
HETATM    7  C   UNL     1      40.184 -12.973   3.340  1.00  0.00     0.015 A 
HETATM    8  N   UNL     1      41.803 -15.980   4.728  1.00  0.00    -0.248 NA
HETATM    9  C   UNL     1      42.517 -16.458   3.682  1.00  0.00     0.069 A 
HETATM   10  C   UNL     1      42.513 -15.812   2.458  1.00  0.00     0.050 A 
ENDROOT
BRANCH   9  11
HETATM   11  C   UNL     1      43.317 -17.674   3.947  1.00  0.00    -0.004 A 
HETATM   12  C   UNL     1      43.603 -18.585   2.909  1.00  0.00     0.053 A 
HETATM   13  C   UNL     1      44.328 -19.763   3.137  1.00  0.00     0.102 A 
HETATM   14  C   UNL     1      44.771 -20.066   4.436  1.00  0.00     0.101 A 
HETATM   15  C   UNL     1      44.524 -19.162   5.470  1.00  0.00     0.040 A 
HETATM   16  C   UNL     1      43.811 -17.982   5.226  1.00  0.00     0.017 A 
BRANCH  13  17
HETATM   17  O   UNL     1      44.620 -20.689   2.165  1.00  0.00    -0.353 OA
HETATM   18  C   UNL     1      43.577 -21.571   1.775  1.00  0.00     0.210 C 
ENDBRANCH  13  17
BRANCH  14  19
HETATM   19  O   UNL     1      45.456 -21.245   4.589  1.00  0.00    -0.353 OA
HETATM   20  C   UNL     1      44.834 -22.262   5.361  1.00  0.00     0.210 C 
ENDBRANCH  14  19
ENDBRANCH   9  11
BRANCH   1  21
HETATM   21  C   UNL     1      41.779 -13.986   0.975  1.00  0.00     0.253 C 
HETATM   22  N   UNL     1      41.078 -14.651  -0.012  1.00  0.00    -0.349 N 
HETATM   23  H   UNL     1      40.807 -15.608   0.180  1.00  0.00     0.163 HD
HETATM   24  O   UNL     1      42.376 -12.931   0.815  1.00  0.00    -0.268 OA
BRANCH  22  25
HETATM   25  C   UNL     1      40.981 -14.213  -1.414  1.00  0.00     0.022 C 
HETATM   26  C   UNL     1      40.811 -15.422  -2.344  1.00  0.00     0.037 C 
HETATM   27  C   UNL     1      42.211 -13.391  -1.834  1.00  0.00     0.037 C 
HETATM   28  C   UNL     1      39.740 -13.311  -1.543  1.00  0.00     0.037 C 
ENDBRANCH  22  25
ENDBRANCH   1  21
TORSDOF 5
ENDMDL
MODEL 4
REMARK VINA RESULT:      -7.6      1.704      4.248
REMARK  5 active torsions:
REMARK  status: ('A' for Active; 'I' for Inactive)
REMARK    1  A    between atoms: C_2  and  N_3 
REMARK       I    between atoms: N_3  and  C_4 
REMARK    2  A    between atoms: C_4  and  C_5 
REMARK    3  A    between atoms: C_13  and  C_14 
REMARK    4  A    between atoms: C_16  and  O_17 
REMARK    5  A    between atoms: C_19  and  O_20 
ROOT
HETATM    1  C   UNL     1      41.749 -14.638   2.230  1.00  0.00     0.046 A 
HETATM    2  C   UNL     1      41.347 -14.739   0.880  1.00  0.00     0.008 A 
HETATM    3  C   UNL     1      41.625 -15.965   0.245  1.00  0.00     0.068 A 
HETATM    4  C   UNL     1      41.254 -16.133  -1.082  1.00  0.00     0.032 A 
HETATM    5  C   UNL     1      40.609 -15.128  -1.806  1.00  0.00     0.002 A 
HETATM    6  C   UNL     1      40.322 -13.920  -1.190  1.00  0.00     0.001 A 
HETATM    7  C   UNL     1      40.684 -13.726   0.142  1.00  0.00     0.015 A 
HETATM    8  N   UNL     1      42.230 -16.993   0.866  1.00  0.00    -0.248 NA
HETATM    9  C   UNL     1      42.626 -16.869   2.155  1.00  0.00     0.069 A 
HETATM   10  C   UNL     1      42.399 -15.703   2.864  1.00  0.00     0.050 A 
ENDROOT
BRANCH   9  11
HETATM   11  C   UNL     1      43.271 -18.061   2.750  1.00  0.00    -0.004 A 
HETATM   12  C   UNL     1      43.625 -18.078   4.114  1.00  0.00     0.053 A 
HETATM   13  C   UNL     1      44.269 -19.178   4.698  1.00  0.00     0.102 A 
HETATM   14  C   UNL     1      44.592 -20.294   3.908  1.00  0.00     0.101 A 
HETATM   15  C   UNL     1      44.221 -20.308   2.563  1.00  0.00     0.040 A 
HETATM   16  C   UNL     1      43.566 -19.208   1.995  1.00  0.00     0.017 A 
BRANCH  13  17
HETATM   17  O   UNL     1      44.648 -19.238   6.017  1.00  0.00    -0.353 OA
HETATM   18  C   UNL     1      45.264 -18.083   6.569  1.00  0.00     0.210 C 
ENDBRANCH  13  17
BRANCH  14  19
HETATM   19  O   UNL     1      45.240 -21.325   4.541  1.00  0.00    -0.353 OA
HETATM   20  C   UNL     1      44.704 -22.630   4.372  1.00  0.00     0.210 C 
ENDBRANCH  14  19
ENDBRANCH   9  11
BRANCH   1  21
HETATM   21  C   UNL     1      41.528 -13.404   3.031  1.00  0.00     0.253 C 
HETATM   22  N   UNL     1      40.609 -13.534   4.054  1.00  0.00    -0.349 N 
HETATM   23  H   UNL     1      40.014 -14.353   4.037  1.00  0.00     0.163 HD
HETATM   24  O   UNL     1      42.144 -12.379   2.773  1.00  0.00    -0.268 OA
BRANCH  22  25
HETATM   25  C   UNL     1      40.201 -12.447   4.959  1.00  0.00     0.022 C 
HETATM   26  C   UNL     1      39.416 -11.375   4.192  1.00  0.00     0.037 C 
HETATM   27  C   UNL     1      41.413 -11.815   5.663  1.00  0.00     0.037 C 
HETATM   28  C   UNL     1      39.286 -13.053   6.040  1.00  0.00     0.037 C 
ENDBRANCH  22  25
ENDBRANCH   1  21
TORSDOF 5
ENDMDL
MODEL 5
REMARK VINA RESULT:      -7.3      2.437      8.029
REMARK  5 active torsions:
REMARK  status: ('A' for Active; 'I' for Inactive)
REMARK    1  A    between atoms: C_2  and  N_3 
REMARK       I    between atoms: N_3  and  C_4 
REMARK    2  A    between atoms: C_4  and  C_5 
REMARK    3  A    between atoms: C_13  and  C_14 
REMARK    4  A    between atoms: C_16  and  O_17 
REMARK    5  A    between atoms: C_19  and  O_20 
ROOT
HETATM    1  C   UNL     1      42.505 -16.501   3.643  1.00  0.00     0.046 A 
HETATM    2  C   UNL     1      43.086 -17.752   3.340  1.00  0.00     0.008 A 
HETATM    3  C   UNL     1      42.934 -18.196   2.012  1.00  0.00     0.068 A 
HETATM    4  C   UNL     1      43.484 -19.418   1.646  1.00  0.00     0.032 A 
HETATM    5  C   UNL     1      44.186 -20.217   2.550  1.00  0.00     0.002 A 
HETATM    6  C   UNL     1      44.350 -19.788   3.858  1.00  0.00     0.001 A 
HETATM    7  C   UNL     1      43.808 -18.566   4.251  1.00  0.00     0.015 A 
HETATM    8  N   UNL     1      42.286 -17.489   1.071  1.00  0.00    -0.248 NA
HETATM    9  C   UNL     1      41.719 -16.300   1.386  1.00  0.00     0.069 A 
HETATM   10  C   UNL     1      41.811 -15.780   2.665  1.00  0.00     0.050 A 
ENDROOT
BRANCH   9  11
HETATM   11  C   UNL     1      41.039 -15.594   0.277  1.00  0.00    -0.004 A 
HETATM   12  C   UNL     1      40.049 -14.627   0.543  1.00  0.00     0.053 A 
HETATM   13  C   UNL     1      39.364 -13.967  -0.487  1.00  0.00     0.102 A 
HETATM   14  C   UNL     1      39.649 -14.283  -1.826  1.00  0.00     0.101 A 
HETATM   15  C   UNL     1      40.648 -15.216  -2.109  1.00  0.00     0.040 A 
HETATM   16  C   UNL     1      41.335 -15.858  -1.071  1.00  0.00     0.017 A 
BRANCH  13  17
HETATM   17  O   UNL     1      38.381 -13.029  -0.281  1.00  0.00    -0.353 OA
HETATM   18  C   UNL     1      37.706 -13.059   0.969  1.00  0.00     0.210 C 
ENDBRANCH  13  17
BRANCH  14  19
HETATM   19  O   UNL     1      38.925 -13.614  -2.780  1.00  0.00    -0.353 OA
HETATM   20  C   UNL     1      37.968 -14.364  -3.514  1.00  0.00     0.210 C 
ENDBRANCH  14  19
ENDBRANCH   9  11
BRANCH   1  21
HETATM   21  C   UNL     1      42.578 -15.904   5.004  1.00  0.00     0.253 C 
HETATM   22  N   UNL     1      43.672 -15.089   5.220  1.00  0.00    -0.349 N 
HETATM   23  H   UNL     1      44.426 -15.141   4.546  1.00  0.00     0.163 HD
HETATM   24  O   UNL     1      41.707 -16.136   5.830  1.00  0.00    -0.268 OA
BRANCH  22  25
HETATM   25  C   UNL     1      43.977 -14.413   6.492  1.00  0.00     0.022 C 
HETATM   26  C   UNL     1      43.897 -15.405   7.660  1.00  0.00     0.037 C 
HETATM   27  C   UNL     1      43.032 -13.225   6.740  1.00  0.00     0.037 C 
HETATM   28  C   UNL     1      45.413 -13.866   6.403  1.00  0.00     0.037 C 
ENDBRANCH  22  25
ENDBRANCH   1  21
TORSDOF 5
ENDMDL
MODEL 6
REMARK VINA RESULT:      -7.2      1.922      4.318
REMARK  5 active torsions:
REMARK  status: ('A' for Active; 'I' for Inactive)
REMARK    1  A    between atoms: C_2  and  N_3 
REMARK       I    between atoms: N_3  and  C_4 
REMARK    2  A    between atoms: C_4  and  C_5 
REMARK    3  A    between atoms: C_13  and  C_14 
REMARK    4  A    between atoms: C_16  and  O_17 
REMARK    5  A    between atoms: C_19  and  O_20 
ROOT
HETATM    1  C   UNL     1      39.836 -14.178   0.614  1.00  0.00     0.046 A 
HETATM    2  C   UNL     1      39.937 -14.271  -0.791  1.00  0.00     0.008 A 
HETATM    3  C   UNL     1      40.797 -15.273  -1.282  1.00  0.00     0.068 A 
HETATM    4  C   UNL     1      40.940 -15.422  -2.655  1.00  0.00     0.032 A 
HETATM    5  C   UNL     1      40.255 -14.614  -3.565  1.00  0.00     0.002 A 
HETATM    6  C   UNL     1      39.399 -13.631  -3.096  1.00  0.00     0.001 A 
HETATM    7  C   UNL     1      39.237 -13.461  -1.722  1.00  0.00     0.015 A 
HETATM    8  N   UNL     1      41.487 -16.104  -0.482  1.00  0.00    -0.248 NA
HETATM    9  C   UNL     1      41.393 -15.986   0.864  1.00  0.00     0.069 A 
HETATM   10  C   UNL     1      40.575 -15.031   1.442  1.00  0.00     0.050 A 
ENDROOT
BRANCH   9  11
HETATM   11  C   UNL     1      42.181 -16.955   1.655  1.00  0.00    -0.004 A 
HETATM   12  C   UNL     1      41.800 -17.285   2.971  1.00  0.00     0.053 A 
HETATM   13  C   UNL     1      42.547 -18.174   3.758  1.00  0.00     0.102 A 
HETATM   14  C   UNL     1      43.721 -18.744   3.238  1.00  0.00     0.101 A 
HETATM   15  C   UNL     1      44.098 -18.453   1.926  1.00  0.00     0.040 A 
HETATM   16  C   UNL     1      43.335 -17.575   1.146  1.00  0.00     0.017 A 
BRANCH  13  17
HETATM   17  O   UNL     1      42.227 -18.516   5.049  1.00  0.00    -0.353 OA
HETATM   18  C   UNL     1      42.287 -17.487   6.028  1.00  0.00     0.210 C 
ENDBRANCH  13  17
BRANCH  14  19
HETATM   19  O   UNL     1      44.412 -19.588   4.070  1.00  0.00    -0.353 OA
HETATM   20  C   UNL     1      44.725 -20.880   3.571  1.00  0.00     0.210 C 
ENDBRANCH  14  19
ENDBRANCH   9  11
BRANCH   1  21
HETATM   21  C   UNL     1      38.972 -13.166   1.279  1.00  0.00     0.253 C 
HETATM   22  N   UNL     1      39.642 -12.056   1.757  1.00  0.00    -0.349 N 
HETATM   23  H   UNL     1      40.651 -12.119   1.820  1.00  0.00     0.163 HD
HETATM   24  O   UNL     1      37.764 -13.340   1.363  1.00  0.00    -0.268 OA
BRANCH  22  25
HETATM   25  C   UNL     1      39.010 -10.939   2.477  1.00  0.00     0.022 C 
HETATM   26  C   UNL     1      38.547 -11.390   3.868  1.00  0.00     0.037 C 
HETATM   27  C   UNL     1      37.826 -10.356   1.687  1.00  0.00     0.037 C 
HETATM   28  C   UNL     1      40.064  -9.828   2.642  1.00  0.00     0.037 C 
ENDBRANCH  22  25
ENDBRANCH   1  21
TORSDOF 5
ENDMDL
MODEL 7
REMARK VINA RESULT:      -7.2      1.964      4.812
REMARK  5 active torsions:
REMARK  status: ('A' for Active; 'I' for Inactive)
REMARK    1  A    between atoms: C_2  and  N_3 
REMARK       I    between atoms: N_3  and  C_4 
REMARK    2  A    between atoms: C_4  and  C_5 
REMARK    3  A    between atoms: C_13  and  C_14 
REMARK    4  A    between atoms: C_16  and  O_17 
REMARK    5  A    between atoms: C_19  and  O_20 
ROOT
HETATM    1  C   UNL     1      40.970 -14.947   2.804  1.00  0.00     0.046 A 
HETATM    2  C   UNL     1      40.861 -14.898   1.397  1.00  0.00     0.008 A 
HETATM    3  C   UNL     1      41.569 -15.889   0.689  1.00  0.00     0.068 A 
HETATM    4  C   UNL     1      41.502 -15.900  -0.698  1.00  0.00     0.032 A 
HETATM    5  C   UNL     1      40.752 -14.964  -1.413  1.00  0.00     0.002 A 
HETATM    6  C   UNL     1      40.044 -13.989  -0.729  1.00  0.00     0.001 A 
HETATM    7  C   UNL     1      40.094 -13.956   0.664  1.00  0.00     0.015 A 
HETATM    8  N   UNL     1      42.305 -16.837   1.293  1.00  0.00    -0.248 NA
HETATM    9  C   UNL     1      42.414 -16.856   2.643  1.00  0.00     0.069 A 
HETATM   10  C   UNL     1      41.757 -15.923   3.426  1.00  0.00     0.050 A 
ENDROOT
BRANCH   9  11
HETATM   11  C   UNL     1      43.237 -17.946   3.210  1.00  0.00    -0.004 A 
HETATM   12  C   UNL     1      43.651 -19.026   2.404  1.00  0.00     0.053 A 
HETATM   13  C   UNL     1      44.402 -20.091   2.921  1.00  0.00     0.102 A 
HETATM   14  C   UNL     1      44.741 -20.104   4.285  1.00  0.00     0.101 A 
HETATM   15  C   UNL     1      44.366 -19.029   5.092  1.00  0.00     0.040 A 
HETATM   16  C   UNL     1      43.629 -17.964   4.559  1.00  0.00     0.017 A 
BRANCH  13  17
HETATM   17  O   UNL     1      44.817 -21.172   2.183  1.00  0.00    -0.353 OA
HETATM   18  C   UNL     1      43.812 -21.942   1.536  1.00  0.00     0.210 C 
ENDBRANCH  13  17
BRANCH  14  19
HETATM   19  O   UNL     1      45.459 -21.187   4.727  1.00  0.00    -0.353 OA
HETATM   20  C   UNL     1      44.763 -22.157   5.496  1.00  0.00     0.210 C 
ENDBRANCH  14  19
ENDBRANCH   9  11
BRANCH   1  21
HETATM   21  C   UNL     1      40.284 -13.964   3.685  1.00  0.00     0.253 C 
HETATM   22  N   UNL     1      41.125 -13.234   4.502  1.00  0.00    -0.349 N 
HETATM   23  H   UNL     1      42.076 -13.568   4.601  1.00  0.00     0.163 HD
HETATM   24  O   UNL     1      39.068 -13.839   3.646  1.00  0.00    -0.268 OA
BRANCH  22  25
HETATM   25  C   UNL     1      40.681 -12.227   5.479  1.00  0.00     0.022 C 
HETATM   26  C   UNL     1      41.842 -11.824   6.399  1.00  0.00     0.037 C 
HETATM   27  C   UNL     1      39.495 -12.736   6.315  1.00  0.00     0.037 C 
HETATM   28  C   UNL     1      40.214 -10.985   4.698  1.00  0.00     0.037 C 
ENDBRANCH  22  25
ENDBRANCH   1  21
TORSDOF 5
ENDMDL
MODEL 8
REMARK VINA RESULT:      -7.0      2.393      8.203
REMARK  5 active torsions:
REMARK  status: ('A' for Active; 'I' for Inactive)
REMARK    1  A    between atoms: C_2  and  N_3 
REMARK       I    between atoms: N_3  and  C_4 
REMARK    2  A    between atoms: C_4  and  C_5 
REMARK    3  A    between atoms: C_13  and  C_14 
REMARK    4  A    between atoms: C_16  and  O_17 
REMARK    5  A    between atoms: C_19  and  O_20 
ROOT
HETATM    1  C   UNL     1      42.392 -16.393   3.817  1.00  0.00     0.046 A 
HETATM    2  C   UNL     1      42.947 -17.627   3.413  1.00  0.00     0.008 A 
HETATM    3  C   UNL     1      42.677 -18.020   2.088  1.00  0.00     0.068 A 
HETATM    4  C   UNL     1      43.195 -19.222   1.625  1.00  0.00     0.032 A 
HETATM    5  C   UNL     1      43.979 -20.051   2.429  1.00  0.00     0.002 A 
HETATM    6  C   UNL     1      44.259 -19.673   3.733  1.00  0.00     0.001 A 
HETATM    7  C   UNL     1      43.752 -18.471   4.222  1.00  0.00     0.015 A 
HETATM    8  N   UNL     1      41.944 -17.280   1.238  1.00  0.00    -0.248 NA
HETATM    9  C   UNL     1      41.403 -16.109   1.650  1.00  0.00     0.069 A 
HETATM   10  C   UNL     1      41.610 -15.639   2.935  1.00  0.00     0.050 A 
ENDROOT
BRANCH   9  11
HETATM   11  C   UNL     1      40.624 -15.365   0.636  1.00  0.00    -0.004 A 
HETATM   12  C   UNL     1      41.046 -15.329  -0.708  1.00  0.00     0.053 A 
HETATM   13  C   UNL     1      40.348 -14.604  -1.684  1.00  0.00     0.102 A 
HETATM   14  C   UNL     1      39.204 -13.872  -1.321  1.00  0.00     0.101 A 
HETATM   15  C   UNL     1      38.754 -13.921  -0.001  1.00  0.00     0.040 A 
HETATM   16  C   UNL     1      39.453 -14.661   0.961  1.00  0.00     0.017 A 
BRANCH  13  17
HETATM   17  O   UNL     1      40.725 -14.524  -3.002  1.00  0.00    -0.353 OA
HETATM   18  C   UNL     1      41.824 -13.677  -3.314  1.00  0.00     0.210 C 
ENDBRANCH  13  17
BRANCH  14  19
HETATM   19  O   UNL     1      38.584 -13.169  -2.323  1.00  0.00    -0.353 OA
HETATM   20  C   UNL     1      38.638 -11.752  -2.252  1.00  0.00     0.210 C 
ENDBRANCH  14  19
ENDBRANCH   9  11
BRANCH   1  21
HETATM   21  C   UNL     1      42.585 -15.850   5.188  1.00  0.00     0.253 C 
HETATM   22  N   UNL     1      43.652 -14.982   5.322  1.00  0.00    -0.349 N 
HETATM   23  H   UNL     1      44.327 -14.962   4.567  1.00  0.00     0.163 HD
HETATM   24  O   UNL     1      41.827 -16.166   6.093  1.00  0.00    -0.268 OA
BRANCH  22  25
HETATM   25  C   UNL     1      44.062 -14.342   6.583  1.00  0.00     0.022 C 
HETATM   26  C   UNL     1      44.024 -15.355   7.735  1.00  0.00     0.037 C 
HETATM   27  C   UNL     1      43.176 -13.130   6.914  1.00  0.00     0.037 C 
HETATM   28  C   UNL     1      45.507 -13.841   6.410  1.00  0.00     0.037 C 
ENDBRANCH  22  25
ENDBRANCH   1  21
TORSDOF 5
ENDMDL
MODEL 9
REMARK VINA RESULT:      -7.0      2.397      5.020
REMARK  5 active torsions:
REMARK  status: ('A' for Active; 'I' for Inactive)
REMARK    1  A    between atoms: C_2  and  N_3 
REMARK       I    between atoms: N_3  and  C_4 
REMARK    2  A    between atoms: C_4  and  C_5 
REMARK    3  A    between atoms: C_13  and  C_14 
REMARK    4  A    between atoms: C_16  and  O_17 
REMARK    5  A    between atoms: C_19  and  O_20 
ROOT
HETATM    1  C   UNL     1      40.678 -13.377   3.757  1.00  0.00     0.046 A 
HETATM    2  C   UNL     1      39.658 -13.338   2.782  1.00  0.00     0.008 A 
HETATM    3  C   UNL     1      39.544 -14.479   1.964  1.00  0.00     0.068 A 
HETATM    4  C   UNL     1      38.558 -14.509   0.987  1.00  0.00     0.032 A 
HETATM    5  C   UNL     1      37.673 -13.447   0.792  1.00  0.00     0.002 A 
HETATM    6  C   UNL     1      37.769 -12.321   1.595  1.00  0.00     0.001 A 
HETATM    7  C   UNL     1      38.749 -12.266   2.584  1.00  0.00     0.015 A 
HETATM    8  N   UNL     1      40.341 -15.554   2.088  1.00  0.00    -0.248 NA
HETATM    9  C   UNL     1      41.328 -15.564   3.015  1.00  0.00     0.069 A 
HETATM   10  C   UNL     1      41.522 -14.489   3.865  1.00  0.00     0.050 A 
ENDROOT
BRANCH   9  11
HETATM   11  C   UNL     1      42.143 -16.797   3.079  1.00  0.00    -0.004 A 
HETATM   12  C   UNL     1      43.048 -17.004   4.139  1.00  0.00     0.053 A 
HETATM   13  C   UNL     1      43.859 -18.146   4.209  1.00  0.00     0.102 A 
HETATM   14  C   UNL     1      43.791 -19.110   3.188  1.00  0.00     0.101 A 
HETATM   15  C   UNL     1      42.878 -18.937   2.147  1.00  0.00     0.040 A 
HETATM   16  C   UNL     1      42.064 -17.798   2.097  1.00  0.00     0.017 A 
BRANCH  13  17
HETATM   17  O   UNL     1      44.767 -18.387   5.211  1.00  0.00    -0.353 OA
HETATM   18  C   UNL     1      44.443 -17.910   6.510  1.00  0.00     0.210 C 
ENDBRANCH  13  17
BRANCH  14  19
HETATM   19  O   UNL     1      44.627 -20.190   3.311  1.00  0.00    -0.353 OA
HETATM   20  C   UNL     1      44.356 -21.318   2.490  1.00  0.00     0.210 C 
ENDBRANCH  14  19
ENDBRANCH   9  11
BRANCH   1  21
HETATM   21  C   UNL     1      40.924 -12.244   4.689  1.00  0.00     0.253 C 
HETATM   22  N   UNL     1      40.194 -12.290   5.861  1.00  0.00    -0.349 N 
HETATM   23  H   UNL     1      39.414 -12.936   5.893  1.00  0.00     0.163 HD
HETATM   24  O   UNL     1      41.730 -11.370   4.404  1.00  0.00    -0.268 OA
BRANCH  22  25
HETATM   25  C   UNL     1      40.242 -11.270   6.921  1.00  0.00     0.022 C 
HETATM   26  C   UNL     1      41.690 -11.023   7.363  1.00  0.00     0.037 C 
HETATM   27  C   UNL     1      39.380 -11.671   8.130  1.00  0.00     0.037 C 
HETATM   28  C   UNL     1      39.669  -9.962   6.344  1.00  0.00     0.037 C 
ENDBRANCH  22  25
ENDBRANCH   1  21
TORSDOF 5
ENDMDL
MODEL 10
REMARK VINA RESULT:      -6.9      2.504      7.526
REMARK  5 active torsions:
REMARK  status: ('A' for Active; 'I' for Inactive)
REMARK    1  A    between atoms: C_2  and  N_3 
REMARK       I    between atoms: N_3  and  C_4 
REMARK    2  A    between atoms: C_4  and  C_5 
REMARK    3  A    between atoms: C_13  and  C_14 
REMARK    4  A    between atoms: C_16  and  O_17 
REMARK    5  A    between atoms: C_19  and  O_20 
ROOT
HETATM    1  C   UNL     1      40.840 -15.517   4.007  1.00  0.00     0.046 A 
HETATM    2  C   UNL     1      40.303 -14.333   4.557  1.00  0.00     0.008 A 
HETATM    3  C   UNL     1      39.822 -13.387   3.630  1.00  0.00     0.068 A 
HETATM    4  C   UNL     1      39.277 -12.201   4.103  1.00  0.00     0.032 A 
HETATM    5  C   UNL     1      39.185 -11.918   5.467  1.00  0.00     0.002 A 
HETATM    6  C   UNL     1      39.647 -12.843   6.390  1.00  0.00     0.001 A 
HETATM    7  C   UNL     1      40.198 -14.042   5.941  1.00  0.00     0.015 A 
HETATM    8  N   UNL     1      39.857 -13.579   2.300  1.00  0.00    -0.248 NA
HETATM    9  C   UNL     1      40.395 -14.713   1.792  1.00  0.00     0.069 A 
HETATM   10  C   UNL     1      40.896 -15.701   2.621  1.00  0.00     0.050 A 
ENDROOT
BRANCH   9  11
HETATM   11  C   UNL     1      40.375 -14.834   0.318  1.00  0.00    -0.004 A 
HETATM   12  C   UNL     1      39.592 -13.960  -0.463  1.00  0.00     0.053 A 
HETATM   13  C   UNL     1      39.525 -14.072  -1.859  1.00  0.00     0.102 A 
HETATM   14  C   UNL     1      40.239 -15.093  -2.509  1.00  0.00     0.101 A 
HETATM   15  C   UNL     1      41.044 -15.948  -1.756  1.00  0.00     0.040 A 
HETATM   16  C   UNL     1      41.113 -15.816  -0.363  1.00  0.00     0.017 A 
BRANCH  13  17
HETATM   17  O   UNL     1      38.766 -13.256  -2.662  1.00  0.00    -0.353 OA
HETATM   18  C   UNL     1      37.652 -12.608  -2.064  1.00  0.00     0.210 C 
ENDBRANCH  13  17
BRANCH  14  19
HETATM   19  O   UNL     1      40.111 -15.156  -3.874  1.00  0.00    -0.353 OA
HETATM   20  C   UNL     1      39.144 -16.056  -4.394  1.00  0.00     0.210 C 
ENDBRANCH  14  19
ENDBRANCH   9  11
BRANCH   1  21
HETATM   21  C   UNL     1      41.392 -16.605   4.860  1.00  0.00     0.253 C 
HETATM   22  N   UNL     1      42.670 -16.378   5.333  1.00  0.00    -0.349 N 
HETATM   23  H   UNL     1      43.196 -15.630   4.897  1.00  0.00     0.163 HD
HETATM   24  O   UNL     1      40.724 -17.600   5.105  1.00  0.00    -0.268 OA
BRANCH  22  25
HETATM   25  C   UNL     1      43.436 -17.318   6.167  1.00  0.00     0.022 C 
HETATM   26  C   UNL     1      42.693 -17.599   7.480  1.00  0.00     0.037 C 
HETATM   27  C   UNL     1      44.850 -16.788   6.461  1.00  0.00     0.037 C 
HETATM   28  C   UNL     1      43.576 -18.636   5.384  1.00  0.00     0.037 C 
ENDBRANCH  22  25
ENDBRANCH   1  21
TORSDOF 5
ENDMDL
