MODEL 1
REMARK VINA RESULT:      -8.4      0.000      0.000
REMARK  8 active torsions:
REMARK  status: ('A' for Active; 'I' for Inactive)
REMARK    1  A    between atoms: C_2  and  C_3 
REMARK    2  A    between atoms: C_3  and  O_4 
REMARK    3  A    between atoms: O_4  and  C_5 
REMARK    4  A    between atoms: C_8  and  C_9 
REMARK    5  A    between atoms: C_13  and  C_14 
REMARK       I    between atoms: C_14  and  N_15 
REMARK    6  A    between atoms: N_15  and  N_16 
REMARK    7  A    between atoms: C_17  and  C_18 
REMARK    8  A    between atoms: C_21  and  O_22 
ROOT
HETATM    1  C   UNL     1      43.320 -11.261  10.672  1.00  0.00     0.089 A 
HETATM    2  N   UNL     1      42.887 -10.668   9.550  1.00  0.00    -0.174 NA
HETATM    3  N   UNL     1      43.403 -11.405   8.555  1.00  0.00    -0.272 N 
HETATM    4  H   UNL     1      43.209 -11.141   7.593  1.00  0.00     0.189 HD
HETATM    5  C   UNL     1      44.136 -12.479   8.974  1.00  0.00     0.121 A 
HETATM    6  C   UNL     1      44.114 -12.399  10.352  1.00  0.00     0.071 A 
ENDROOT
BRANCH   5   7
HETATM    7  C   UNL     1      44.719 -13.399   8.028  1.00  0.00     0.289 C 
HETATM    8  N   UNL     1      43.929 -14.501   7.735  1.00  0.00    -0.242 N 
HETATM    9  H   UNL     1      43.025 -14.613   8.170  1.00  0.00     0.192 HD
HETATM   10  O   UNL     1      45.823 -13.185   7.536  1.00  0.00    -0.264 OA
BRANCH   8  11
HETATM   11  N   UNL     1      44.341 -15.418   6.812  1.00  0.00    -0.184 NA
HETATM   12  C   UNL     1      43.586 -16.462   6.686  1.00  0.00     0.150 C 
BRANCH  12  13
HETATM   13  C   UNL     1      43.897 -17.534   5.719  1.00  0.00    -0.017 A 
HETATM   14  C   UNL     1      44.669 -18.634   6.092  1.00  0.00     0.016 A 
HETATM   15  C   UNL     1      44.945 -19.633   5.156  1.00  0.00     0.037 A 
HETATM   16  C   UNL     1      44.450 -19.546   3.851  1.00  0.00     0.068 A 
HETATM   17  C   UNL     1      43.683 -18.438   3.483  1.00  0.00     0.037 A 
HETATM   18  C   UNL     1      43.406 -17.431   4.415  1.00  0.00     0.016 A 
BRANCH  16  19
HETATM   19  O   UNL     1      44.789 -20.593   3.041  1.00  0.00    -0.356 OA
HETATM   20  C   UNL     1      43.892 -20.906   1.983  1.00  0.00     0.210 C 
ENDBRANCH  16  19
ENDBRANCH  12  13
ENDBRANCH   8  11
ENDBRANCH   5   7
BRANCH   1  21
HETATM   21  C   UNL     1      42.950 -10.766  12.000  1.00  0.00    -0.005 A 
HETATM   22  C   UNL     1      43.745  -9.809  12.646  1.00  0.00     0.016 A 
HETATM   23  C   UNL     1      43.380  -9.292  13.897  1.00  0.00     0.037 A 
HETATM   24  C   UNL     1      42.214  -9.730  14.521  1.00  0.00     0.068 A 
HETATM   25  C   UNL     1      41.432 -10.703  13.897  1.00  0.00     0.037 A 
HETATM   26  C   UNL     1      41.792 -11.217  12.645  1.00  0.00     0.016 A 
BRANCH  24  27
HETATM   27  O   UNL     1      41.737  -9.299  15.727  1.00  0.00    -0.351 OA
BRANCH  27  28
HETATM   28  C   UNL     1      41.650  -7.887  15.919  1.00  0.00     0.175 C 
BRANCH  28  29
HETATM   29  C   UNL     1      40.415  -7.391  15.173  1.00  0.00     0.022 C 
HETATM   30  C   UNL     1      39.181  -7.393  16.058  1.00  0.00     0.007 C 
ENDBRANCH  28  29
ENDBRANCH  27  28
ENDBRANCH  24  27
ENDBRANCH   1  21
TORSDOF 8
ENDMDL
MODEL 2
REMARK VINA RESULT:      -7.9      2.426     12.203
REMARK  8 active torsions:
REMARK  status: ('A' for Active; 'I' for Inactive)
REMARK    1  A    between atoms: C_2  and  C_3 
REMARK    2  A    between atoms: C_3  and  O_4 
REMARK    3  A    between atoms: O_4  and  C_5 
REMARK    4  A    between atoms: C_8  and  C_9 
REMARK    5  A    between atoms: C_13  and  C_14 
REMARK       I    between atoms: C_14  and  N_15 
REMARK    6  A    between atoms: N_15  and  N_16 
REMARK    7  A    between atoms: C_17  and  C_18 
REMARK    8  A    between atoms: C_21  and  O_22 
ROOT
HETATM    1  C   UNL     1      42.709 -14.442   4.223  1.00  0.00     0.089 A 
HETATM    2  N   UNL     1      42.715 -13.350   3.444  1.00  0.00    -0.174 NA
HETATM    3  N   UNL     1      42.321 -12.354   4.251  1.00  0.00    -0.272 N 
HETATM    4  H   UNL     1      42.246 -11.413   3.875  1.00  0.00     0.189 HD
HETATM    5  C   UNL     1      42.082 -12.738   5.541  1.00  0.00     0.121 A 
HETATM    6  C   UNL     1      42.309 -14.100   5.547  1.00  0.00     0.071 A 
ENDROOT
BRANCH   5   7
HETATM    7  C   UNL     1      41.697 -11.778   6.546  1.00  0.00     0.289 C 
HETATM    8  N   UNL     1      42.647 -11.567   7.534  1.00  0.00    -0.242 N 
HETATM    9  H   UNL     1      43.525 -12.065   7.516  1.00  0.00     0.192 HD
HETATM   10  O   UNL     1      40.612 -11.205   6.492  1.00  0.00    -0.264 OA
BRANCH   8  11
HETATM   11  N   UNL     1      42.429 -10.640   8.513  1.00  0.00    -0.184 NA
HETATM   12  C   UNL     1      42.827 -10.975   9.698  1.00  0.00     0.150 C 
BRANCH  12  13
HETATM   13  C   UNL     1      42.670 -10.072  10.855  1.00  0.00    -0.017 A 
HETATM   14  C   UNL     1      41.824  -8.964  10.790  1.00  0.00     0.016 A 
HETATM   15  C   UNL     1      41.695  -8.128  11.902  1.00  0.00     0.037 A 
HETATM   16  C   UNL     1      42.398  -8.393  13.081  1.00  0.00     0.068 A 
HETATM   17  C   UNL     1      43.248  -9.501  13.137  1.00  0.00     0.037 A 
HETATM   18  C   UNL     1      43.386 -10.340  12.025  1.00  0.00     0.016 A 
BRANCH  16  19
HETATM   19  O   UNL     1      42.175  -7.501  14.092  1.00  0.00    -0.356 OA
HETATM   20  C   UNL     1      41.768  -8.036  15.345  1.00  0.00     0.210 C 
ENDBRANCH  16  19
ENDBRANCH  12  13
ENDBRANCH   8  11
ENDBRANCH   5   7
BRANCH   1  21
HETATM   21  C   UNL     1      43.107 -15.756   3.714  1.00  0.00    -0.005 A 
HETATM   22  C   UNL     1      43.449 -15.920   2.364  1.00  0.00     0.016 A 
HETATM   23  C   UNL     1      43.874 -17.161   1.872  1.00  0.00     0.037 A 
HETATM   24  C   UNL     1      43.960 -18.259   2.726  1.00  0.00     0.068 A 
HETATM   25  C   UNL     1      43.594 -18.111   4.064  1.00  0.00     0.037 A 
HETATM   26  C   UNL     1      43.174 -16.871   4.559  1.00  0.00     0.016 A 
BRANCH  24  27
HETATM   27  O   UNL     1      44.372 -19.516   2.380  1.00  0.00    -0.351 OA
BRANCH  27  28
HETATM   28  C   UNL     1      44.739 -20.390   3.449  1.00  0.00     0.175 C 
BRANCH  28  29
HETATM   29  C   UNL     1      44.466 -21.821   2.996  1.00  0.00     0.022 C 
HETATM   30  C   UNL     1      44.017 -21.879   1.546  1.00  0.00     0.007 C 
ENDBRANCH  28  29
ENDBRANCH  27  28
ENDBRANCH  24  27
ENDBRANCH   1  21
TORSDOF 8
ENDMDL
MODEL 3
REMARK VINA RESULT:      -7.6      1.234     12.173
REMARK  8 active torsions:
REMARK  status: ('A' for Active; 'I' for Inactive)
REMARK    1  A    between atoms: C_2  and  C_3 
REMARK    2  A    between atoms: C_3  and  O_4 
REMARK    3  A    between atoms: O_4  and  C_5 
REMARK    4  A    between atoms: C_8  and  C_9 
REMARK    5  A    between atoms: C_13  and  C_14 
REMARK       I    between atoms: C_14  and  N_15 
REMARK    6  A    between atoms: N_15  and  N_16 
REMARK    7  A    between atoms: C_17  and  C_18 
REMARK    8  A    between atoms: C_21  and  O_22 
ROOT
HETATM    1  C   UNL     1      44.069 -15.298   6.282  1.00  0.00     0.089 A 
HETATM    2  N   UNL     1      43.800 -14.176   5.597  1.00  0.00    -0.174 NA
HETATM    3  N   UNL     1      43.863 -13.197   6.512  1.00  0.00    -0.272 N 
HETATM    4  H   UNL     1      43.688 -12.238   6.223  1.00  0.00     0.189 HD
HETATM    5  C   UNL     1      44.191 -13.622   7.768  1.00  0.00     0.121 A 
HETATM    6  C   UNL     1      44.313 -14.993   7.651  1.00  0.00     0.071 A 
ENDROOT
BRANCH   5   7
HETATM    7  C   UNL     1      44.348 -12.687   8.855  1.00  0.00     0.289 C 
HETATM    8  N   UNL     1      43.312 -11.774   8.984  1.00  0.00    -0.242 N 
HETATM    9  H   UNL     1      42.529 -11.795   8.346  1.00  0.00     0.192 HD
HETATM   10  O   UNL     1      45.328 -12.734   9.594  1.00  0.00    -0.264 OA
BRANCH   8  11
HETATM   11  N   UNL     1      43.312 -10.872  10.008  1.00  0.00    -0.184 NA
HETATM   12  C   UNL     1      42.362 -11.011  10.876  1.00  0.00     0.150 C 
BRANCH  12  13
HETATM   13  C   UNL     1      42.239 -10.118  12.045  1.00  0.00    -0.017 A 
HETATM   14  C   UNL     1      41.066  -9.399  12.278  1.00  0.00     0.016 A 
HETATM   15  C   UNL     1      40.979  -8.563  13.393  1.00  0.00     0.037 A 
HETATM   16  C   UNL     1      42.052  -8.444  14.282  1.00  0.00     0.068 A 
HETATM   17  C   UNL     1      43.225  -9.161  14.039  1.00  0.00     0.037 A 
HETATM   18  C   UNL     1      43.321  -9.998  12.921  1.00  0.00     0.016 A 
BRANCH  16  19
HETATM   19  O   UNL     1      41.831  -7.598  15.333  1.00  0.00    -0.356 OA
HETATM   20  C   UNL     1      40.482  -7.424  15.747  1.00  0.00     0.210 C 
ENDBRANCH  16  19
ENDBRANCH  12  13
ENDBRANCH   8  11
ENDBRANCH   5   7
BRANCH   1  21
HETATM   21  C   UNL     1      44.121 -16.608   5.628  1.00  0.00    -0.005 A 
HETATM   22  C   UNL     1      44.860 -17.655   6.195  1.00  0.00     0.016 A 
HETATM   23  C   UNL     1      44.883 -18.926   5.605  1.00  0.00     0.037 A 
HETATM   24  C   UNL     1      44.167 -19.165   4.434  1.00  0.00     0.068 A 
HETATM   25  C   UNL     1      43.451 -18.121   3.848  1.00  0.00     0.037 A 
HETATM   26  C   UNL     1      43.423 -16.852   4.438  1.00  0.00     0.016 A 
BRANCH  24  27
HETATM   27  O   UNL     1      44.092 -20.356   3.767  1.00  0.00    -0.351 OA
BRANCH  27  28
HETATM   28  C   UNL     1      43.846 -20.292   2.361  1.00  0.00     0.175 C 
BRANCH  28  29
HETATM   29  C   UNL     1      44.200 -21.652   1.764  1.00  0.00     0.022 C 
HETATM   30  C   UNL     1      44.558 -22.665   2.837  1.00  0.00     0.007 C 
ENDBRANCH  28  29
ENDBRANCH  27  28
ENDBRANCH  24  27
ENDBRANCH   1  21
TORSDOF 8
ENDMDL
MODEL 4
REMARK VINA RESULT:      -7.4      9.240     13.050
REMARK  8 active torsions:
REMARK  status: ('A' for Active; 'I' for Inactive)
REMARK    1  A    between atoms: C_2  and  C_3 
REMARK    2  A    between atoms: C_3  and  O_4 
REMARK    3  A    between atoms: O_4  and  C_5 
REMARK    4  A    between atoms: C_8  and  C_9 
REMARK    5  A    between atoms: C_13  and  C_14 
REMARK       I    between atoms: C_14  and  N_15 
REMARK    6  A    between atoms: N_15  and  N_16 
REMARK    7  A    between atoms: C_17  and  C_18 
REMARK    8  A    between atoms: C_21  and  O_22 
ROOT
HETATM    1  C   UNL     1      41.803 -16.772   1.894  1.00  0.00     0.089 A 
HETATM    2  N   UNL     1      40.465 -16.860   1.852  1.00  0.00    -0.174 NA
HETATM    3  N   UNL     1      40.089 -15.906   0.988  1.00  0.00    -0.272 N 
HETATM    4  H   UNL     1      39.100 -15.777   0.792  1.00  0.00     0.189 HD
HETATM    5  C   UNL     1      41.126 -15.209   0.433  1.00  0.00     0.121 A 
HETATM    6  C   UNL     1      42.256 -15.741   1.022  1.00  0.00     0.071 A 
ENDROOT
BRANCH   5   7
HETATM    7  C   UNL     1      40.893 -14.182  -0.552  1.00  0.00     0.289 C 
HETATM    8  N   UNL     1      41.952 -13.966  -1.421  1.00  0.00    -0.242 N 
HETATM    9  H   UNL     1      42.802 -14.506  -1.337  1.00  0.00     0.192 HD
HETATM   10  O   UNL     1      39.826 -13.576  -0.594  1.00  0.00    -0.264 OA
BRANCH   8  11
HETATM   11  N   UNL     1      41.838 -13.060  -2.435  1.00  0.00    -0.184 NA
HETATM   12  C   UNL     1      42.427 -11.925  -2.240  1.00  0.00     0.150 C 
BRANCH  12  13
HETATM   13  C   UNL     1      42.401 -10.851  -3.253  1.00  0.00    -0.017 A 
HETATM   14  C   UNL     1      42.368 -11.151  -4.615  1.00  0.00     0.016 A 
HETATM   15  C   UNL     1      42.342 -10.113  -5.549  1.00  0.00     0.037 A 
HETATM   16  C   UNL     1      42.343  -8.778  -5.135  1.00  0.00     0.068 A 
HETATM   17  C   UNL     1      42.383  -8.485  -3.769  1.00  0.00     0.037 A 
HETATM   18  C   UNL     1      42.413  -9.520  -2.827  1.00  0.00     0.016 A 
BRANCH  16  19
HETATM   19  O   UNL     1      42.310  -7.865  -6.151  1.00  0.00    -0.356 OA
HETATM   20  C   UNL     1      42.043  -8.363  -7.456  1.00  0.00     0.210 C 
ENDBRANCH  16  19
ENDBRANCH  12  13
ENDBRANCH   8  11
ENDBRANCH   5   7
BRANCH   1  21
HETATM   21  C   UNL     1      42.610 -17.673   2.720  1.00  0.00    -0.005 A 
HETATM   22  C   UNL     1      43.395 -18.670   2.123  1.00  0.00     0.016 A 
HETATM   23  C   UNL     1      44.207 -19.510   2.896  1.00  0.00     0.037 A 
HETATM   24  C   UNL     1      44.241 -19.366   4.282  1.00  0.00     0.068 A 
HETATM   25  C   UNL     1      43.441 -18.395   4.886  1.00  0.00     0.037 A 
HETATM   26  C   UNL     1      42.633 -17.552   4.115  1.00  0.00     0.016 A 
BRANCH  24  27
HETATM   27  O   UNL     1      44.996 -20.106   5.149  1.00  0.00    -0.351 OA
BRANCH  27  28
HETATM   28  C   UNL     1      44.380 -21.264   5.714  1.00  0.00     0.175 C 
BRANCH  28  29
HETATM   29  C   UNL     1      45.130 -22.489   5.199  1.00  0.00     0.022 C 
HETATM   30  C   UNL     1      44.654 -22.905   3.819  1.00  0.00     0.007 C 
ENDBRANCH  28  29
ENDBRANCH  27  28
ENDBRANCH  24  27
ENDBRANCH   1  21
TORSDOF 8
ENDMDL
MODEL 5
REMARK VINA RESULT:      -7.4      9.799     13.768
REMARK  8 active torsions:
REMARK  status: ('A' for Active; 'I' for Inactive)
REMARK    1  A    between atoms: C_2  and  C_3 
REMARK    2  A    between atoms: C_3  and  O_4 
REMARK    3  A    between atoms: O_4  and  C_5 
REMARK    4  A    between atoms: C_8  and  C_9 
REMARK    5  A    between atoms: C_13  and  C_14 
REMARK       I    between atoms: C_14  and  N_15 
REMARK    6  A    between atoms: N_15  and  N_16 
REMARK    7  A    between atoms: C_17  and  C_18 
REMARK    8  A    between atoms: C_21  and  O_22 
ROOT
HETATM    1  C   UNL     1      41.332 -13.453  -2.960  1.00  0.00     0.089 A 
HETATM    2  N   UNL     1      41.316 -14.676  -3.510  1.00  0.00    -0.174 NA
HETATM    3  N   UNL     1      41.358 -15.518  -2.466  1.00  0.00    -0.272 N 
HETATM    4  H   UNL     1      41.358 -16.520  -2.638  1.00  0.00     0.189 HD
HETATM    5  C   UNL     1      41.373 -14.901  -1.247  1.00  0.00     0.121 A 
HETATM    6  C   UNL     1      41.375 -13.551  -1.540  1.00  0.00     0.071 A 
ENDROOT
BRANCH   5   7
HETATM    7  C   UNL     1      41.369 -15.664  -0.023  1.00  0.00     0.289 C 
HETATM    8  N   UNL     1      42.414 -16.568   0.095  1.00  0.00    -0.242 N 
HETATM    9  H   UNL     1      43.102 -16.655  -0.639  1.00  0.00     0.192 HD
HETATM   10  O   UNL     1      40.500 -15.492   0.827  1.00  0.00    -0.264 OA
BRANCH   8  11
HETATM   11  N   UNL     1      42.556 -17.312   1.231  1.00  0.00    -0.184 NA
HETATM   12  C   UNL     1      43.586 -18.096   1.260  1.00  0.00     0.150 C 
BRANCH  12  13
HETATM   13  C   UNL     1      43.879 -18.952   2.427  1.00  0.00    -0.017 A 
HETATM   14  C   UNL     1      43.789 -18.450   3.725  1.00  0.00     0.016 A 
HETATM   15  C   UNL     1      44.070 -19.284   4.809  1.00  0.00     0.037 A 
HETATM   16  C   UNL     1      44.434 -20.619   4.607  1.00  0.00     0.068 A 
HETATM   17  C   UNL     1      44.528 -21.114   3.304  1.00  0.00     0.037 A 
HETATM   18  C   UNL     1      44.252 -20.282   2.213  1.00  0.00     0.016 A 
BRANCH  16  19
HETATM   19  O   UNL     1      44.674 -21.325   5.753  1.00  0.00    -0.356 OA
HETATM   20  C   UNL     1      43.814 -21.073   6.857  1.00  0.00     0.210 C 
ENDBRANCH  16  19
ENDBRANCH  12  13
ENDBRANCH   8  11
ENDBRANCH   5   7
BRANCH   1  21
HETATM   21  C   UNL     1      41.274 -12.239  -3.778  1.00  0.00    -0.005 A 
HETATM   22  C   UNL     1      40.037 -11.688  -4.143  1.00  0.00     0.016 A 
HETATM   23  C   UNL     1      39.966 -10.503  -4.886  1.00  0.00     0.037 A 
HETATM   24  C   UNL     1      41.134  -9.852  -5.279  1.00  0.00     0.068 A 
HETATM   25  C   UNL     1      42.369 -10.409  -4.944  1.00  0.00     0.037 A 
HETATM   26  C   UNL     1      42.443 -11.591  -4.197  1.00  0.00     0.016 A 
BRANCH  24  27
HETATM   27  O   UNL     1      41.205  -8.687  -5.991  1.00  0.00    -0.351 OA
BRANCH  27  28
HETATM   28  C   UNL     1      40.396  -8.598  -7.164  1.00  0.00     0.175 C 
BRANCH  28  29
HETATM   29  C   UNL     1      41.057  -9.440  -8.252  1.00  0.00     0.022 C 
HETATM   30  C   UNL     1      40.098 -10.460  -8.838  1.00  0.00     0.007 C 
ENDBRANCH  28  29
ENDBRANCH  27  28
ENDBRANCH  24  27
ENDBRANCH   1  21
TORSDOF 8
ENDMDL
MODEL 6
REMARK VINA RESULT:      -7.4      9.066     13.227
REMARK  8 active torsions:
REMARK  status: ('A' for Active; 'I' for Inactive)
REMARK    1  A    between atoms: C_2  and  C_3 
REMARK    2  A    between atoms: C_3  and  O_4 
REMARK    3  A    between atoms: O_4  and  C_5 
REMARK    4  A    between atoms: C_8  and  C_9 
REMARK    5  A    between atoms: C_13  and  C_14 
REMARK       I    between atoms: C_14  and  N_15 
REMARK    6  A    between atoms: N_15  and  N_16 
REMARK    7  A    between atoms: C_17  and  C_18 
REMARK    8  A    between atoms: C_21  and  O_22 
ROOT
HETATM    1  C   UNL     1      41.120 -16.533   2.726  1.00  0.00     0.089 A 
HETATM    2  N   UNL     1      40.576 -15.783   3.696  1.00  0.00    -0.174 NA
HETATM    3  N   UNL     1      39.698 -14.992   3.061  1.00  0.00    -0.272 N 
HETATM    4  H   UNL     1      39.156 -14.322   3.600  1.00  0.00     0.189 HD
HETATM    5  C   UNL     1      39.618 -15.209   1.714  1.00  0.00     0.121 A 
HETATM    6  C   UNL     1      40.549 -16.198   1.465  1.00  0.00     0.071 A 
ENDROOT
BRANCH   5   7
HETATM    7  C   UNL     1      38.686 -14.475   0.894  1.00  0.00     0.289 C 
HETATM    8  N   UNL     1      39.098 -14.284  -0.416  1.00  0.00    -0.242 N 
HETATM    9  H   UNL     1      39.986 -14.645  -0.732  1.00  0.00     0.192 HD
HETATM   10  O   UNL     1      37.618 -14.076   1.352  1.00  0.00    -0.264 OA
BRANCH   8  11
HETATM   11  N   UNL     1      38.281 -13.653  -1.310  1.00  0.00    -0.184 NA
HETATM   12  C   UNL     1      38.169 -14.226  -2.466  1.00  0.00     0.150 C 
BRANCH  12  13
HETATM   13  C   UNL     1      37.313 -13.668  -3.530  1.00  0.00    -0.017 A 
HETATM   14  C   UNL     1      37.276 -12.295  -3.775  1.00  0.00     0.016 A 
HETATM   15  C   UNL     1      36.456 -11.797  -4.790  1.00  0.00     0.037 A 
HETATM   16  C   UNL     1      35.678 -12.659  -5.568  1.00  0.00     0.068 A 
HETATM   17  C   UNL     1      35.716 -14.032  -5.314  1.00  0.00     0.037 A 
HETATM   18  C   UNL     1      36.531 -14.538  -4.295  1.00  0.00     0.016 A 
BRANCH  16  19
HETATM   19  O   UNL     1      34.929 -12.041  -6.530  1.00  0.00    -0.356 OA
HETATM   20  C   UNL     1      35.600 -11.666  -7.727  1.00  0.00     0.210 C 
ENDBRANCH  16  19
ENDBRANCH  12  13
ENDBRANCH   8  11
ENDBRANCH   5   7
BRANCH   1  21
HETATM   21  C   UNL     1      42.127 -17.557   3.015  1.00  0.00    -0.005 A 
HETATM   22  C   UNL     1      42.701 -18.301   1.975  1.00  0.00     0.016 A 
HETATM   23  C   UNL     1      43.697 -19.253   2.231  1.00  0.00     0.037 A 
HETATM   24  C   UNL     1      44.131 -19.475   3.536  1.00  0.00     0.068 A 
HETATM   25  C   UNL     1      43.545 -18.759   4.580  1.00  0.00     0.037 A 
HETATM   26  C   UNL     1      42.553 -17.804   4.326  1.00  0.00     0.016 A 
BRANCH  24  27
HETATM   27  O   UNL     1      45.101 -20.358   3.922  1.00  0.00    -0.351 OA
BRANCH  27  28
HETATM   28  C   UNL     1      44.861 -21.096   5.121  1.00  0.00     0.175 C 
BRANCH  28  29
HETATM   29  C   UNL     1      44.661 -22.559   4.736  1.00  0.00     0.022 C 
HETATM   30  C   UNL     1      44.720 -22.761   3.233  1.00  0.00     0.007 C 
ENDBRANCH  28  29
ENDBRANCH  27  28
ENDBRANCH  24  27
ENDBRANCH   1  21
TORSDOF 8
ENDMDL
MODEL 7
REMARK VINA RESULT:      -7.3      9.406     13.776
REMARK  8 active torsions:
REMARK  status: ('A' for Active; 'I' for Inactive)
REMARK    1  A    between atoms: C_2  and  C_3 
REMARK    2  A    between atoms: C_3  and  O_4 
REMARK    3  A    between atoms: O_4  and  C_5 
REMARK    4  A    between atoms: C_8  and  C_9 
REMARK    5  A    between atoms: C_13  and  C_14 
REMARK       I    between atoms: C_14  and  N_15 
REMARK    6  A    between atoms: N_15  and  N_16 
REMARK    7  A    between atoms: C_17  and  C_18 
REMARK    8  A    between atoms: C_21  and  O_22 
ROOT
HETATM    1  C   UNL     1      38.616 -13.651  -2.917  1.00  0.00     0.089 A 
HETATM    2  N   UNL     1      39.820 -13.535  -3.498  1.00  0.00    -0.174 NA
HETATM    3  N   UNL     1      40.695 -13.848  -2.531  1.00  0.00    -0.272 N 
HETATM    4  H   UNL     1      41.690 -13.827  -2.739  1.00  0.00     0.189 HD
HETATM    5  C   UNL     1      40.118 -14.194  -1.342  1.00  0.00     0.121 A 
HETATM    6  C   UNL     1      38.762 -14.057  -1.560  1.00  0.00     0.071 A 
ENDROOT
BRANCH   5   7
HETATM    7  C   UNL     1      40.920 -14.604  -0.215  1.00  0.00     0.289 C 
HETATM    8  N   UNL     1      40.556 -15.823   0.338  1.00  0.00    -0.242 N 
HETATM    9  H   UNL     1      39.786 -16.351  -0.047  1.00  0.00     0.192 HD
HETATM   10  O   UNL     1      41.848 -13.908   0.188  1.00  0.00    -0.264 OA
BRANCH   8  11
HETATM   11  N   UNL     1      41.271 -16.351   1.374  1.00  0.00    -0.184 NA
HETATM   12  C   UNL     1      41.855 -17.481   1.132  1.00  0.00     0.150 C 
BRANCH  12  13
HETATM   13  C   UNL     1      42.674 -18.167   2.151  1.00  0.00    -0.017 A 
HETATM   14  C   UNL     1      43.372 -19.335   1.842  1.00  0.00     0.016 A 
HETATM   15  C   UNL     1      44.139 -19.961   2.827  1.00  0.00     0.037 A 
HETATM   16  C   UNL     1      44.221 -19.426   4.116  1.00  0.00     0.068 A 
HETATM   17  C   UNL     1      43.514 -18.260   4.420  1.00  0.00     0.037 A 
HETATM   18  C   UNL     1      42.739 -17.630   3.439  1.00  0.00     0.016 A 
BRANCH  16  19
HETATM   19  O   UNL     1      45.011 -20.134   4.979  1.00  0.00    -0.356 OA
HETATM   20  C   UNL     1      44.942 -21.552   4.899  1.00  0.00     0.210 C 
ENDBRANCH  16  19
ENDBRANCH  12  13
ENDBRANCH   8  11
ENDBRANCH   5   7
BRANCH   1  21
HETATM   21  C   UNL     1      37.375 -13.412  -3.658  1.00  0.00    -0.005 A 
HETATM   22  C   UNL     1      36.674 -14.483  -4.231  1.00  0.00     0.016 A 
HETATM   23  C   UNL     1      35.462 -14.275  -4.904  1.00  0.00     0.037 A 
HETATM   24  C   UNL     1      34.937 -12.989  -5.016  1.00  0.00     0.068 A 
HETATM   25  C   UNL     1      35.643 -11.915  -4.473  1.00  0.00     0.037 A 
HETATM   26  C   UNL     1      36.851 -12.121  -3.796  1.00  0.00     0.016 A 
BRANCH  24  27
HETATM   27  O   UNL     1      33.764 -12.651  -5.630  1.00  0.00    -0.351 OA
BRANCH  27  28
HETATM   28  C   UNL     1      32.893 -11.771  -4.917  1.00  0.00     0.175 C 
BRANCH  28  29
HETATM   29  C   UNL     1      32.234 -12.573  -3.798  1.00  0.00     0.022 C 
HETATM   30  C   UNL     1      31.920 -11.707  -2.591  1.00  0.00     0.007 C 
ENDBRANCH  28  29
ENDBRANCH  27  28
ENDBRANCH  24  27
ENDBRANCH   1  21
TORSDOF 8
ENDMDL
MODEL 8
REMARK VINA RESULT:      -7.1      2.326      3.002
REMARK  8 active torsions:
REMARK  status: ('A' for Active; 'I' for Inactive)
REMARK    1  A    between atoms: C_2  and  C_3 
REMARK    2  A    between atoms: C_3  and  O_4 
REMARK    3  A    between atoms: O_4  and  C_5 
REMARK    4  A    between atoms: C_8  and  C_9 
REMARK    5  A    between atoms: C_13  and  C_14 
REMARK       I    between atoms: C_14  and  N_15 
REMARK    6  A    between atoms: N_15  and  N_16 
REMARK    7  A    between atoms: C_17  and  C_18 
REMARK    8  A    between atoms: C_21  and  O_22 
ROOT
HETATM    1  C   UNL     1      42.025 -10.853   7.938  1.00  0.00     0.089 A 
HETATM    2  N   UNL     1      41.095 -10.393   7.088  1.00  0.00    -0.174 NA
HETATM    3  N   UNL     1      41.183 -11.199   6.020  1.00  0.00    -0.272 N 
HETATM    4  H   UNL     1      40.565 -11.041   5.228  1.00  0.00     0.189 HD
HETATM    5  C   UNL     1      42.114 -12.192   6.140  1.00  0.00     0.121 A 
HETATM    6  C   UNL     1      42.692 -11.979   7.376  1.00  0.00     0.071 A 
ENDROOT
BRANCH   5   7
HETATM    7  C   UNL     1      42.299 -13.173   5.099  1.00  0.00     0.289 C 
HETATM    8  N   UNL     1      42.120 -14.486   5.506  1.00  0.00    -0.242 N 
HETATM    9  H   UNL     1      41.880 -14.697   6.464  1.00  0.00     0.192 HD
HETATM   10  O   UNL     1      42.581 -12.833   3.953  1.00  0.00    -0.264 OA
BRANCH   8  11
HETATM   11  N   UNL     1      42.210 -15.506   4.603  1.00  0.00    -0.184 NA
HETATM   12  C   UNL     1      43.050 -16.445   4.903  1.00  0.00     0.150 C 
BRANCH  12  13
HETATM   13  C   UNL     1      43.248 -17.619   4.029  1.00  0.00    -0.017 A 
HETATM   14  C   UNL     1      42.667 -17.675   2.762  1.00  0.00     0.016 A 
HETATM   15  C   UNL     1      42.873 -18.798   1.958  1.00  0.00     0.037 A 
HETATM   16  C   UNL     1      43.661 -19.863   2.406  1.00  0.00     0.068 A 
HETATM   17  C   UNL     1      44.235 -19.802   3.678  1.00  0.00     0.037 A 
HETATM   18  C   UNL     1      44.028 -18.682   4.491  1.00  0.00     0.016 A 
BRANCH  16  19
HETATM   19  O   UNL     1      43.786 -20.894   1.517  1.00  0.00    -0.356 OA
HETATM   20  C   UNL     1      44.426 -22.074   1.986  1.00  0.00     0.210 C 
ENDBRANCH  16  19
ENDBRANCH  12  13
ENDBRANCH   8  11
ENDBRANCH   5   7
BRANCH   1  21
HETATM   21  C   UNL     1      42.234 -10.247   9.255  1.00  0.00    -0.005 A 
HETATM   22  C   UNL     1      43.349 -10.599  10.029  1.00  0.00     0.016 A 
HETATM   23  C   UNL     1      43.587  -9.995  11.271  1.00  0.00     0.037 A 
HETATM   24  C   UNL     1      42.708  -9.031  11.758  1.00  0.00     0.068 A 
HETATM   25  C   UNL     1      41.580  -8.695  11.007  1.00  0.00     0.037 A 
HETATM   26  C   UNL     1      41.344  -9.293   9.764  1.00  0.00     0.016 A 
BRANCH  24  27
HETATM   27  O   UNL     1      42.829  -8.356  12.941  1.00  0.00    -0.351 OA
BRANCH  27  28
HETATM   28  C   UNL     1      43.258  -9.113  14.073  1.00  0.00     0.175 C 
BRANCH  28  29
HETATM   29  C   UNL     1      42.054  -9.889  14.598  1.00  0.00     0.022 C 
HETATM   30  C   UNL     1      41.672  -9.458  16.003  1.00  0.00     0.007 C 
ENDBRANCH  28  29
ENDBRANCH  27  28
ENDBRANCH  24  27
ENDBRANCH   1  21
TORSDOF 8
ENDMDL
MODEL 9
REMARK VINA RESULT:      -6.9      3.384      4.144
REMARK  8 active torsions:
REMARK  status: ('A' for Active; 'I' for Inactive)
REMARK    1  A    between atoms: C_2  and  C_3 
REMARK    2  A    between atoms: C_3  and  O_4 
REMARK    3  A    between atoms: O_4  and  C_5 
REMARK    4  A    between atoms: C_8  and  C_9 
REMARK    5  A    between atoms: C_13  and  C_14 
REMARK       I    between atoms: C_14  and  N_15 
REMARK    6  A    between atoms: N_15  and  N_16 
REMARK    7  A    between atoms: C_17  and  C_18 
REMARK    8  A    between atoms: C_21  and  O_22 
ROOT
HETATM    1  C   UNL     1      40.052 -11.417   7.110  1.00  0.00     0.089 A 
HETATM    2  N   UNL     1      39.026 -11.254   6.261  1.00  0.00    -0.174 NA
HETATM    3  N   UNL     1      39.188 -12.218   5.343  1.00  0.00    -0.272 N 
HETATM    4  H   UNL     1      38.520 -12.293   4.581  1.00  0.00     0.189 HD
HETATM    5  C   UNL     1      40.264 -13.031   5.565  1.00  0.00     0.121 A 
HETATM    6  C   UNL     1      40.857 -12.520   6.703  1.00  0.00     0.071 A 
ENDROOT
BRANCH   5   7
HETATM    7  C   UNL     1      40.549 -14.147   4.696  1.00  0.00     0.289 C 
HETATM    8  N   UNL     1      41.623 -14.928   5.096  1.00  0.00    -0.242 N 
HETATM    9  H   UNL     1      42.138 -14.701   5.934  1.00  0.00     0.192 HD
HETATM   10  O   UNL     1      39.867 -14.361   3.698  1.00  0.00    -0.264 OA
BRANCH   8  11
HETATM   11  N   UNL     1      41.961 -16.047   4.391  1.00  0.00    -0.184 NA
HETATM   12  C   UNL     1      42.980 -16.705   4.842  1.00  0.00     0.150 C 
BRANCH  12  13
HETATM   13  C   UNL     1      43.456 -17.942   4.191  1.00  0.00    -0.017 A 
HETATM   14  C   UNL     1      43.011 -18.300   2.919  1.00  0.00     0.016 A 
HETATM   15  C   UNL     1      43.481 -19.476   2.328  1.00  0.00     0.037 A 
HETATM   16  C   UNL     1      44.397 -20.294   2.996  1.00  0.00     0.068 A 
HETATM   17  C   UNL     1      44.833 -19.933   4.273  1.00  0.00     0.037 A 
HETATM   18  C   UNL     1      44.364 -18.758   4.873  1.00  0.00     0.016 A 
BRANCH  16  19
HETATM   19  O   UNL     1      44.778 -21.409   2.303  1.00  0.00    -0.356 OA
HETATM   20  C   UNL     1      43.841 -21.943   1.377  1.00  0.00     0.210 C 
ENDBRANCH  16  19
ENDBRANCH  12  13
ENDBRANCH   8  11
ENDBRANCH   5   7
BRANCH   1  21
HETATM   21  C   UNL     1      40.225 -10.561   8.285  1.00  0.00    -0.005 A 
HETATM   22  C   UNL     1      39.134 -10.267   9.115  1.00  0.00     0.016 A 
HETATM   23  C   UNL     1      39.293  -9.486  10.268  1.00  0.00     0.037 A 
HETATM   24  C   UNL     1      40.549  -8.985  10.605  1.00  0.00     0.068 A 
HETATM   25  C   UNL     1      41.634  -9.251   9.769  1.00  0.00     0.037 A 
HETATM   26  C   UNL     1      41.479 -10.034   8.620  1.00  0.00     0.016 A 
BRANCH  24  27
HETATM   27  O   UNL     1      40.844  -8.227  11.703  1.00  0.00    -0.351 OA
BRANCH  27  28
HETATM   28  C   UNL     1      40.852  -8.896  12.965  1.00  0.00     0.175 C 
BRANCH  28  29
HETATM   29  C   UNL     1      42.185  -8.594  13.644  1.00  0.00     0.022 C 
HETATM   30  C   UNL     1      43.299  -9.486  13.125  1.00  0.00     0.007 C 
ENDBRANCH  28  29
ENDBRANCH  27  28
ENDBRANCH  24  27
ENDBRANCH   1  21
TORSDOF 8
ENDMDL
MODEL 10
REMARK VINA RESULT:      -6.9      9.672     14.395
REMARK  8 active torsions:
REMARK  status: ('A' for Active; 'I' for Inactive)
REMARK    1  A    between atoms: C_2  and  C_3 
REMARK    2  A    between atoms: C_3  and  O_4 
REMARK    3  A    between atoms: O_4  and  C_5 
REMARK    4  A    between atoms: C_8  and  C_9 
REMARK    5  A    between atoms: C_13  and  C_14 
REMARK       I    between atoms: C_14  and  N_15 
REMARK    6  A    between atoms: N_15  and  N_16 
REMARK    7  A    between atoms: C_17  and  C_18 
REMARK    8  A    between atoms: C_21  and  O_22 
ROOT
HETATM    1  C   UNL     1      38.429 -14.095  -3.126  1.00  0.00     0.089 A 
HETATM    2  N   UNL     1      39.376 -14.730  -3.833  1.00  0.00    -0.174 NA
HETATM    3  N   UNL     1      40.337 -15.009  -2.941  1.00  0.00    -0.272 N 
HETATM    4  H   UNL     1      41.174 -15.496  -3.250  1.00  0.00     0.189 HD
HETATM    5  C   UNL     1      40.052 -14.611  -1.665  1.00  0.00     0.121 A 
HETATM    6  C   UNL     1      38.820 -13.995  -1.760  1.00  0.00     0.071 A 
ENDROOT
BRANCH   5   7
HETATM    7  C   UNL     1      40.961 -14.881  -0.578  1.00  0.00     0.289 C 
HETATM    8  N   UNL     1      40.974 -16.201  -0.152  1.00  0.00    -0.242 N 
HETATM    9  H   UNL     1      40.380 -16.887  -0.594  1.00  0.00     0.192 HD
HETATM   10  O   UNL     1      41.658 -13.990  -0.100  1.00  0.00    -0.264 OA
BRANCH   8  11
HETATM   11  N   UNL     1      41.832 -16.598   0.832  1.00  0.00    -0.184 NA
HETATM   12  C   UNL     1      41.607 -17.773   1.329  1.00  0.00     0.150 C 
BRANCH  12  13
HETATM   13  C   UNL     1      42.459 -18.343   2.391  1.00  0.00    -0.017 A 
HETATM   14  C   UNL     1      42.294 -17.963   3.724  1.00  0.00     0.016 A 
HETATM   15  C   UNL     1      43.114 -18.521   4.707  1.00  0.00     0.037 A 
HETATM   16  C   UNL     1      44.092 -19.462   4.372  1.00  0.00     0.068 A 
HETATM   17  C   UNL     1      44.255 -19.834   3.035  1.00  0.00     0.037 A 
HETATM   18  C   UNL     1      43.441 -19.275   2.044  1.00  0.00     0.016 A 
BRANCH  16  19
HETATM   19  O   UNL     1      44.818 -19.933   5.431  1.00  0.00    -0.356 OA
HETATM   20  C   UNL     1      44.103 -20.216   6.627  1.00  0.00     0.210 C 
ENDBRANCH  16  19
ENDBRANCH  12  13
ENDBRANCH   8  11
ENDBRANCH   5   7
BRANCH   1  21
HETATM   21  C   UNL     1      37.183 -13.636  -3.743  1.00  0.00    -0.005 A 
HETATM   22  C   UNL     1      36.747 -12.316  -3.563  1.00  0.00     0.016 A 
HETATM   23  C   UNL     1      35.580 -11.850  -4.183  1.00  0.00     0.037 A 
HETATM   24  C   UNL     1      34.829 -12.702  -4.990  1.00  0.00     0.068 A 
HETATM   25  C   UNL     1      35.241 -14.026  -5.151  1.00  0.00     0.037 A 
HETATM   26  C   UNL     1      36.409 -14.493  -4.536  1.00  0.00     0.016 A 
BRANCH  24  27
HETATM   27  O   UNL     1      33.685 -12.373  -5.662  1.00  0.00    -0.351 OA
BRANCH  27  28
HETATM   28  C   UNL     1      33.755 -12.364  -7.088  1.00  0.00     0.175 C 
BRANCH  28  29
HETATM   29  C   UNL     1      34.483 -11.092  -7.511  1.00  0.00     0.022 C 
HETATM   30  C   UNL     1      35.784 -11.398  -8.231  1.00  0.00     0.007 C 
ENDBRANCH  28  29
ENDBRANCH  27  28
ENDBRANCH  24  27
ENDBRANCH   1  21
TORSDOF 8
ENDMDL
