MODEL 1
REMARK VINA RESULT:      -8.0      0.000      0.000
REMARK  9 active torsions:
REMARK  status: ('A' for Active; 'I' for Inactive)
REMARK    1  A    between atoms: O_2  and  C_3 
REMARK    2  A    between atoms: C_3  and  C_4 
REMARK    3  A    between atoms: C_4  and  S_5 
REMARK    4  A    between atoms: S_5  and  C_6 
REMARK    5  A    between atoms: C_7  and  C_8 
REMARK       I    between atoms: C_8  and  N_9 
REMARK    6  A    between atoms: N_9  and  C_10 
REMARK    7  A    between atoms: C_11  and  C_12 
REMARK       I    between atoms: C_12  and  N_13 
REMARK    8  A    between atoms: N_13  and  C_14 
REMARK    9  A    between atoms: C_14  and  C_15 
ROOT
HETATM    1  C   UNL     1      42.789 -16.017   3.477  1.00  0.00     0.050 A 
HETATM    2  C   UNL     1      41.918 -15.241   2.694  1.00  0.00     0.058 A 
HETATM    3  C   UNL     1      41.815 -13.857   2.900  1.00  0.00     0.019 A 
HETATM    4  C   UNL     1      42.594 -13.236   3.876  1.00  0.00     0.001 A 
HETATM    5  C   UNL     1      43.493 -13.992   4.627  1.00  0.00     0.002 A 
HETATM    6  C   UNL     1      43.599 -15.371   4.422  1.00  0.00     0.030 A 
ENDROOT
BRANCH   1   7
HETATM    7  N   UNL     1      42.937 -17.414   3.359  1.00  0.00    -0.322 N 
HETATM    8  C   UNL     1      43.816 -18.029   2.489  1.00  0.00     0.257 C 
HETATM    9  O   UNL     1      44.384 -17.503   1.542  1.00  0.00    -0.267 OA
HETATM   10  H   UNL     1      42.227 -18.004   3.778  1.00  0.00     0.169 HD
BRANCH   8  11
HETATM   11  C   UNL     1      44.043 -19.459   2.780  1.00  0.00     0.049 A 
HETATM   12  C   UNL     1      44.550 -19.919   4.004  1.00  0.00     0.016 A 
HETATM   13  C   UNL     1      44.728 -21.300   4.170  1.00  0.00     0.019 A 
HETATM   14  C   UNL     1      44.389 -22.198   3.152  1.00  0.00     0.001 A 
HETATM   15  C   UNL     1      43.873 -21.729   1.947  1.00  0.00     0.001 A 
HETATM   16  C   UNL     1      43.698 -20.360   1.758  1.00  0.00     0.018 A 
BRANCH  12  17
HETATM   17  S   UNL     1      45.095 -18.868   5.342  1.00  0.00    -0.127 SA
BRANCH  17  18
HETATM   18  C   UNL     1      43.803 -19.218   6.595  1.00  0.00     0.106 C 
BRANCH  18  19
HETATM   19  C   UNL     1      44.026 -18.431   7.891  1.00  0.00     0.177 C 
BRANCH  19  20
HETATM   20  O   UNL     1      43.030 -17.452   8.190  1.00  0.00    -0.395 OA
HETATM   21  C   UNL     1      42.153 -17.175   7.107  1.00  0.00     0.201 C 
ENDBRANCH  19  20
ENDBRANCH  18  19
ENDBRANCH  17  18
ENDBRANCH  12  17
ENDBRANCH   8  11
ENDBRANCH   1   7
BRANCH   2  22
HETATM   22  C   UNL     1      41.262 -15.768   1.477  1.00  0.00     0.254 C 
HETATM   23  N   UNL     1      41.947 -15.545   0.301  1.00  0.00    -0.354 N 
HETATM   24  H   UNL     1      42.494 -14.688   0.302  1.00  0.00     0.162 HD
HETATM   25  O   UNL     1      40.195 -16.365   1.566  1.00  0.00    -0.268 OA
BRANCH  23  26
HETATM   26  C   UNL     1      41.291 -15.839  -0.960  1.00  0.00     0.155 C 
BRANCH  26  27
HETATM   27  C   UNL     1      41.026 -14.563  -1.771  1.00  0.00     0.139 C 
HETATM   28  O   UNL     1      39.653 -14.155  -1.579  1.00  0.00    -0.384 OA
HETATM   29  C   UNL     1      38.899 -14.500  -2.750  1.00  0.00     0.168 C 
HETATM   30  C   UNL     1      39.816 -15.280  -3.670  1.00  0.00     0.029 C 
HETATM   31  C   UNL     1      41.180 -14.779  -3.268  1.00  0.00     0.035 C 
ENDBRANCH  26  27
ENDBRANCH  23  26
ENDBRANCH   2  22
TORSDOF 9
ENDMDL
MODEL 2
REMARK VINA RESULT:      -8.0      1.621      1.792
REMARK  9 active torsions:
REMARK  status: ('A' for Active; 'I' for Inactive)
REMARK    1  A    between atoms: O_2  and  C_3 
REMARK    2  A    between atoms: C_3  and  C_4 
REMARK    3  A    between atoms: C_4  and  S_5 
REMARK    4  A    between atoms: S_5  and  C_6 
REMARK    5  A    between atoms: C_7  and  C_8 
REMARK       I    between atoms: C_8  and  N_9 
REMARK    6  A    between atoms: N_9  and  C_10 
REMARK    7  A    between atoms: C_11  and  C_12 
REMARK       I    between atoms: C_12  and  N_13 
REMARK    8  A    between atoms: N_13  and  C_14 
REMARK    9  A    between atoms: C_14  and  C_15 
ROOT
HETATM    1  C   UNL     1      41.150 -16.591   3.720  1.00  0.00     0.050 A 
HETATM    2  C   UNL     1      40.561 -15.689   2.817  1.00  0.00     0.058 A 
HETATM    3  C   UNL     1      39.927 -14.526   3.282  1.00  0.00     0.019 A 
HETATM    4  C   UNL     1      39.894 -14.248   4.647  1.00  0.00     0.001 A 
HETATM    5  C   UNL     1      40.514 -15.114   5.546  1.00  0.00     0.002 A 
HETATM    6  C   UNL     1      41.149 -16.272   5.085  1.00  0.00     0.030 A 
ENDROOT
BRANCH   1   7
HETATM    7  N   UNL     1      41.783 -17.795   3.346  1.00  0.00    -0.322 N 
HETATM    8  C   UNL     1      43.125 -17.901   3.038  1.00  0.00     0.257 C 
HETATM    9  O   UNL     1      43.886 -16.976   2.792  1.00  0.00    -0.267 OA
HETATM   10  H   UNL     1      41.195 -18.580   3.090  1.00  0.00     0.169 HD
BRANCH   8  11
HETATM   11  C   UNL     1      43.625 -19.291   3.014  1.00  0.00     0.049 A 
HETATM   12  C   UNL     1      44.393 -19.844   4.049  1.00  0.00     0.016 A 
HETATM   13  C   UNL     1      44.817 -21.175   3.920  1.00  0.00     0.019 A 
HETATM   14  C   UNL     1      44.465 -21.938   2.801  1.00  0.00     0.001 A 
HETATM   15  C   UNL     1      43.690 -21.380   1.788  1.00  0.00     0.001 A 
HETATM   16  C   UNL     1      43.268 -20.057   1.892  1.00  0.00     0.018 A 
BRANCH  12  17
HETATM   17  S   UNL     1      44.974 -18.947   5.481  1.00  0.00    -0.127 SA
BRANCH  17  18
HETATM   18  C   UNL     1      43.459 -18.944   6.515  1.00  0.00     0.106 C 
BRANCH  18  19
HETATM   19  C   UNL     1      43.708 -18.347   7.904  1.00  0.00     0.177 C 
BRANCH  19  20
HETATM   20  O   UNL     1      43.125 -17.063   8.130  1.00  0.00    -0.395 OA
HETATM   21  C   UNL     1      43.807 -16.000   7.482  1.00  0.00     0.201 C 
ENDBRANCH  19  20
ENDBRANCH  18  19
ENDBRANCH  17  18
ENDBRANCH  12  17
ENDBRANCH   8  11
ENDBRANCH   1   7
BRANCH   2  22
HETATM   22  C   UNL     1      40.780 -15.771   1.356  1.00  0.00     0.254 C 
HETATM   23  N   UNL     1      40.865 -14.556   0.709  1.00  0.00    -0.354 N 
HETATM   24  H   UNL     1      40.308 -13.823   1.140  1.00  0.00     0.162 HD
HETATM   25  O   UNL     1      40.886 -16.865   0.813  1.00  0.00    -0.268 OA
BRANCH  23  26
HETATM   26  C   UNL     1      40.872 -14.533  -0.742  1.00  0.00     0.155 C 
BRANCH  26  27
HETATM   27  C   UNL     1      40.857 -13.097  -1.285  1.00  0.00     0.139 C 
HETATM   28  O   UNL     1      40.404 -13.111  -2.656  1.00  0.00    -0.384 OA
HETATM   29  C   UNL     1      41.535 -12.932  -3.520  1.00  0.00     0.168 C 
HETATM   30  C   UNL     1      42.777 -12.935  -2.653  1.00  0.00     0.029 C 
HETATM   31  C   UNL     1      42.243 -12.471  -1.322  1.00  0.00     0.035 C 
ENDBRANCH  26  27
ENDBRANCH  23  26
ENDBRANCH   2  22
TORSDOF 9
ENDMDL
MODEL 3
REMARK VINA RESULT:      -7.7      1.716      2.076
REMARK  9 active torsions:
REMARK  status: ('A' for Active; 'I' for Inactive)
REMARK    1  A    between atoms: O_2  and  C_3 
REMARK    2  A    between atoms: C_3  and  C_4 
REMARK    3  A    between atoms: C_4  and  S_5 
REMARK    4  A    between atoms: S_5  and  C_6 
REMARK    5  A    between atoms: C_7  and  C_8 
REMARK       I    between atoms: C_8  and  N_9 
REMARK    6  A    between atoms: N_9  and  C_10 
REMARK    7  A    between atoms: C_11  and  C_12 
REMARK       I    between atoms: C_12  and  N_13 
REMARK    8  A    between atoms: N_13  and  C_14 
REMARK    9  A    between atoms: C_14  and  C_15 
ROOT
HETATM    1  C   UNL     1      41.451 -15.325   4.005  1.00  0.00     0.050 A 
HETATM    2  C   UNL     1      40.568 -15.083   2.939  1.00  0.00     0.058 A 
HETATM    3  C   UNL     1      39.675 -14.001   2.983  1.00  0.00     0.019 A 
HETATM    4  C   UNL     1      39.671 -13.145   4.083  1.00  0.00     0.001 A 
HETATM    5  C   UNL     1      40.574 -13.352   5.125  1.00  0.00     0.002 A 
HETATM    6  C   UNL     1      41.466 -14.427   5.081  1.00  0.00     0.030 A 
ENDROOT
BRANCH   1   7
HETATM    7  N   UNL     1      42.361 -16.401   4.058  1.00  0.00    -0.322 N 
HETATM    8  C   UNL     1      42.024 -17.681   4.452  1.00  0.00     0.257 C 
HETATM    9  O   UNL     1      41.005 -18.012   5.043  1.00  0.00    -0.267 OA
HETATM   10  H   UNL     1      43.350 -16.189   4.004  1.00  0.00     0.169 HD
BRANCH   8  11
HETATM   11  C   UNL     1      43.035 -18.700   4.105  1.00  0.00     0.049 A 
HETATM   12  C   UNL     1      43.820 -19.355   5.064  1.00  0.00     0.016 A 
HETATM   13  C   UNL     1      44.753 -20.304   4.621  1.00  0.00     0.019 A 
HETATM   14  C   UNL     1      44.883 -20.606   3.261  1.00  0.00     0.001 A 
HETATM   15  C   UNL     1      44.086 -19.959   2.320  1.00  0.00     0.001 A 
HETATM   16  C   UNL     1      43.162 -19.005   2.739  1.00  0.00     0.018 A 
BRANCH  12  17
HETATM   17  S   UNL     1      43.805 -18.995   6.815  1.00  0.00    -0.127 SA
BRANCH  17  18
HETATM   18  C   UNL     1      44.878 -17.509   6.865  1.00  0.00     0.106 C 
BRANCH  18  19
HETATM   19  C   UNL     1      44.087 -16.234   7.173  1.00  0.00     0.177 C 
BRANCH  19  20
HETATM   20  O   UNL     1      44.396 -15.109   6.349  1.00  0.00    -0.395 OA
HETATM   21  C   UNL     1      44.761 -13.946   7.078  1.00  0.00     0.201 C 
ENDBRANCH  19  20
ENDBRANCH  18  19
ENDBRANCH  17  18
ENDBRANCH  12  17
ENDBRANCH   8  11
ENDBRANCH   1   7
BRANCH   2  22
HETATM   22  C   UNL     1      40.688 -15.773   1.636  1.00  0.00     0.254 C 
HETATM   23  N   UNL     1      41.141 -14.987   0.596  1.00  0.00    -0.354 N 
HETATM   24  H   UNL     1      40.873 -14.009   0.677  1.00  0.00     0.162 HD
HETATM   25  O   UNL     1      40.408 -16.963   1.544  1.00  0.00    -0.268 OA
BRANCH  23  26
HETATM   26  C   UNL     1      41.095 -15.515  -0.755  1.00  0.00     0.155 C 
BRANCH  26  27
HETATM   27  C   UNL     1      40.860 -14.404  -1.788  1.00  0.00     0.139 C 
HETATM   28  O   UNL     1      39.472 -14.008  -1.752  1.00  0.00    -0.384 OA
HETATM   29  C   UNL     1      38.800 -14.569  -2.889  1.00  0.00     0.168 C 
HETATM   30  C   UNL     1      39.786 -15.470  -3.604  1.00  0.00     0.029 C 
HETATM   31  C   UNL     1      41.113 -14.869  -3.214  1.00  0.00     0.035 C 
ENDBRANCH  26  27
ENDBRANCH  23  26
ENDBRANCH   2  22
TORSDOF 9
ENDMDL
MODEL 4
REMARK VINA RESULT:      -7.7      3.782      8.750
REMARK  9 active torsions:
REMARK  status: ('A' for Active; 'I' for Inactive)
REMARK    1  A    between atoms: O_2  and  C_3 
REMARK    2  A    between atoms: C_3  and  C_4 
REMARK    3  A    between atoms: C_4  and  S_5 
REMARK    4  A    between atoms: S_5  and  C_6 
REMARK    5  A    between atoms: C_7  and  C_8 
REMARK       I    between atoms: C_8  and  N_9 
REMARK    6  A    between atoms: N_9  and  C_10 
REMARK    7  A    between atoms: C_11  and  C_12 
REMARK       I    between atoms: C_12  and  N_13 
REMARK    8  A    between atoms: N_13  and  C_14 
REMARK    9  A    between atoms: C_14  and  C_15 
ROOT
HETATM    1  C   UNL     1      43.028 -16.282   5.171  1.00  0.00     0.050 A 
HETATM    2  C   UNL     1      43.916 -15.872   6.179  1.00  0.00     0.058 A 
HETATM    3  C   UNL     1      44.729 -16.807   6.838  1.00  0.00     0.019 A 
HETATM    4  C   UNL     1      44.673 -18.154   6.482  1.00  0.00     0.001 A 
HETATM    5  C   UNL     1      43.826 -18.562   5.453  1.00  0.00     0.002 A 
HETATM    6  C   UNL     1      43.017 -17.632   4.793  1.00  0.00     0.030 A 
ENDROOT
BRANCH   1   7
HETATM    7  N   UNL     1      42.155 -15.418   4.477  1.00  0.00    -0.322 N 
HETATM    8  C   UNL     1      40.897 -15.065   4.924  1.00  0.00     0.257 C 
HETATM    9  O   UNL     1      40.261 -15.621   5.809  1.00  0.00    -0.267 OA
HETATM   10  H   UNL     1      42.369 -15.206   3.509  1.00  0.00     0.169 HD
BRANCH   8  11
HETATM   11  C   UNL     1      40.317 -13.903   4.220  1.00  0.00     0.049 A 
HETATM   12  C   UNL     1      39.675 -14.004   2.978  1.00  0.00     0.016 A 
HETATM   13  C   UNL     1      39.162 -12.834   2.399  1.00  0.00     0.019 A 
HETATM   14  C   UNL     1      39.269 -11.601   3.053  1.00  0.00     0.001 A 
HETATM   15  C   UNL     1      39.896 -11.517   4.293  1.00  0.00     0.001 A 
HETATM   16  C   UNL     1      40.421 -12.666   4.879  1.00  0.00     0.018 A 
BRANCH  12  17
HETATM   17  S   UNL     1      39.552 -15.503   2.012  1.00  0.00    -0.127 SA
BRANCH  17  18
HETATM   18  C   UNL     1      40.982 -15.296   0.883  1.00  0.00     0.106 C 
BRANCH  18  19
HETATM   19  C   UNL     1      41.917 -16.510   0.906  1.00  0.00     0.177 C 
BRANCH  19  20
HETATM   20  O   UNL     1      43.171 -16.303   1.557  1.00  0.00    -0.395 OA
HETATM   21  C   UNL     1      44.103 -17.356   1.359  1.00  0.00     0.201 C 
ENDBRANCH  19  20
ENDBRANCH  18  19
ENDBRANCH  17  18
ENDBRANCH  12  17
ENDBRANCH   8  11
ENDBRANCH   1   7
BRANCH   2  22
HETATM   22  C   UNL     1      44.229 -14.447   6.431  1.00  0.00     0.254 C 
HETATM   23  N   UNL     1      44.370 -14.106   7.760  1.00  0.00    -0.354 N 
HETATM   24  H   UNL     1      43.795 -14.662   8.388  1.00  0.00     0.162 HD
HETATM   25  O   UNL     1      44.357 -13.672   5.490  1.00  0.00    -0.268 OA
BRANCH  23  26
HETATM   26  C   UNL     1      44.472 -12.703   8.118  1.00  0.00     0.155 C 
BRANCH  26  27
HETATM   27  C   UNL     1      45.316 -12.502   9.385  1.00  0.00     0.139 C 
HETATM   28  O   UNL     1      44.578 -12.985  10.529  1.00  0.00    -0.384 OA
HETATM   29  C   UNL     1      44.062 -11.861  11.256  1.00  0.00     0.168 C 
HETATM   30  C   UNL     1      44.381 -10.614  10.455  1.00  0.00     0.029 C 
HETATM   31  C   UNL     1      45.599 -11.037   9.673  1.00  0.00     0.035 C 
ENDBRANCH  26  27
ENDBRANCH  23  26
ENDBRANCH   2  22
TORSDOF 9
ENDMDL
MODEL 5
REMARK VINA RESULT:      -7.4      1.954      3.685
REMARK  9 active torsions:
REMARK  status: ('A' for Active; 'I' for Inactive)
REMARK    1  A    between atoms: O_2  and  C_3 
REMARK    2  A    between atoms: C_3  and  C_4 
REMARK    3  A    between atoms: C_4  and  S_5 
REMARK    4  A    between atoms: S_5  and  C_6 
REMARK    5  A    between atoms: C_7  and  C_8 
REMARK       I    between atoms: C_8  and  N_9 
REMARK    6  A    between atoms: N_9  and  C_10 
REMARK    7  A    between atoms: C_11  and  C_12 
REMARK       I    between atoms: C_12  and  N_13 
REMARK    8  A    between atoms: N_13  and  C_14 
REMARK    9  A    between atoms: C_14  and  C_15 
ROOT
HETATM    1  C   UNL     1      40.697 -14.556   4.007  1.00  0.00     0.050 A 
HETATM    2  C   UNL     1      40.052 -14.426   2.765  1.00  0.00     0.058 A 
HETATM    3  C   UNL     1      39.281 -13.289   2.477  1.00  0.00     0.019 A 
HETATM    4  C   UNL     1      39.164 -12.268   3.419  1.00  0.00     0.001 A 
HETATM    5  C   UNL     1      39.837 -12.369   4.636  1.00  0.00     0.002 A 
HETATM    6  C   UNL     1      40.608 -13.500   4.924  1.00  0.00     0.030 A 
ENDROOT
BRANCH   1   7
HETATM    7  N   UNL     1      41.467 -15.673   4.392  1.00  0.00    -0.322 N 
HETATM    8  C   UNL     1      42.808 -15.828   4.096  1.00  0.00     0.257 C 
HETATM    9  O   UNL     1      43.445 -15.190   3.269  1.00  0.00    -0.267 OA
HETATM   10  H   UNL     1      40.977 -16.496   4.722  1.00  0.00     0.169 HD
BRANCH   8  11
HETATM   11  C   UNL     1      43.475 -16.886   4.882  1.00  0.00     0.049 A 
HETATM   12  C   UNL     1      43.702 -18.177   4.386  1.00  0.00     0.016 A 
HETATM   13  C   UNL     1      44.343 -19.105   5.220  1.00  0.00     0.019 A 
HETATM   14  C   UNL     1      44.765 -18.746   6.506  1.00  0.00     0.001 A 
HETATM   15  C   UNL     1      44.546 -17.455   6.981  1.00  0.00     0.001 A 
HETATM   16  C   UNL     1      43.901 -16.523   6.171  1.00  0.00     0.018 A 
BRANCH  12  17
HETATM   17  S   UNL     1      43.138 -18.775   2.799  1.00  0.00    -0.127 SA
BRANCH  17  18
HETATM   18  C   UNL     1      44.419 -20.037   2.438  1.00  0.00     0.106 C 
BRANCH  18  19
HETATM   19  C   UNL     1      43.811 -21.350   1.933  1.00  0.00     0.177 C 
BRANCH  19  20
HETATM   20  O   UNL     1      44.512 -22.534   2.317  1.00  0.00    -0.395 OA
HETATM   21  C   UNL     1      44.636 -22.699   3.722  1.00  0.00     0.201 C 
ENDBRANCH  19  20
ENDBRANCH  18  19
ENDBRANCH  17  18
ENDBRANCH  12  17
ENDBRANCH   8  11
ENDBRANCH   1   7
BRANCH   2  22
HETATM   22  C   UNL     1      40.335 -15.325   1.625  1.00  0.00     0.254 C 
HETATM   23  N   UNL     1      40.951 -14.726   0.547  1.00  0.00    -0.354 N 
HETATM   24  H   UNL     1      40.702 -13.748   0.425  1.00  0.00     0.162 HD
HETATM   25  O   UNL     1      40.037 -16.513   1.692  1.00  0.00    -0.268 OA
BRANCH  23  26
HETATM   26  C   UNL     1      41.083 -15.472  -0.692  1.00  0.00     0.155 C 
BRANCH  26  27
HETATM   27  C   UNL     1      40.953 -14.559  -1.919  1.00  0.00     0.139 C 
HETATM   28  O   UNL     1      39.601 -14.058  -1.997  1.00  0.00    -0.384 OA
HETATM   29  C   UNL     1      38.903 -14.768  -3.030  1.00  0.00     0.168 C 
HETATM   30  C   UNL     1      39.823 -15.859  -3.537  1.00  0.00     0.029 C 
HETATM   31  C   UNL     1      41.188 -15.300  -3.226  1.00  0.00     0.035 C 
ENDBRANCH  26  27
ENDBRANCH  23  26
ENDBRANCH   2  22
TORSDOF 9
ENDMDL
MODEL 6
REMARK VINA RESULT:      -7.4      2.676      4.840
REMARK  9 active torsions:
REMARK  status: ('A' for Active; 'I' for Inactive)
REMARK    1  A    between atoms: O_2  and  C_3 
REMARK    2  A    between atoms: C_3  and  C_4 
REMARK    3  A    between atoms: C_4  and  S_5 
REMARK    4  A    between atoms: S_5  and  C_6 
REMARK    5  A    between atoms: C_7  and  C_8 
REMARK       I    between atoms: C_8  and  N_9 
REMARK    6  A    between atoms: N_9  and  C_10 
REMARK    7  A    between atoms: C_11  and  C_12 
REMARK       I    between atoms: C_12  and  N_13 
REMARK    8  A    between atoms: N_13  and  C_14 
REMARK    9  A    between atoms: C_14  and  C_15 
ROOT
HETATM    1  C   UNL     1      42.548 -15.829   1.565  1.00  0.00     0.050 A 
HETATM    2  C   UNL     1      42.481 -14.463   1.885  1.00  0.00     0.058 A 
HETATM    3  C   UNL     1      41.820 -13.563   1.036  1.00  0.00     0.019 A 
HETATM    4  C   UNL     1      41.206 -14.024  -0.128  1.00  0.00     0.001 A 
HETATM    5  C   UNL     1      41.230 -15.385  -0.430  1.00  0.00     0.002 A 
HETATM    6  C   UNL     1      41.886 -16.284   0.416  1.00  0.00     0.030 A 
ENDROOT
BRANCH   1   7
HETATM    7  N   UNL     1      43.214 -16.799   2.344  1.00  0.00    -0.322 N 
HETATM    8  C   UNL     1      42.583 -17.631   3.249  1.00  0.00     0.257 C 
HETATM    9  O   UNL     1      41.453 -17.490   3.696  1.00  0.00    -0.267 OA
HETATM   10  H   UNL     1      44.224 -16.750   2.400  1.00  0.00     0.169 HD
BRANCH   8  11
HETATM   11  C   UNL     1      43.409 -18.775   3.685  1.00  0.00     0.049 A 
HETATM   12  C   UNL     1      43.651 -19.073   5.033  1.00  0.00     0.016 A 
HETATM   13  C   UNL     1      44.453 -20.184   5.333  1.00  0.00     0.019 A 
HETATM   14  C   UNL     1      44.979 -20.988   4.315  1.00  0.00     0.001 A 
HETATM   15  C   UNL     1      44.718 -20.690   2.980  1.00  0.00     0.001 A 
HETATM   16  C   UNL     1      43.933 -19.584   2.662  1.00  0.00     0.018 A 
BRANCH  12  17
HETATM   17  S   UNL     1      43.106 -18.076   6.413  1.00  0.00    -0.127 SA
BRANCH  17  18
HETATM   18  C   UNL     1      44.523 -16.924   6.579  1.00  0.00     0.106 C 
BRANCH  18  19
HETATM   19  C   UNL     1      44.079 -15.517   6.991  1.00  0.00     0.177 C 
BRANCH  19  20
HETATM   20  O   UNL     1      45.086 -14.508   6.903  1.00  0.00    -0.395 OA
HETATM   21  C   UNL     1      44.892 -13.421   7.796  1.00  0.00     0.201 C 
ENDBRANCH  19  20
ENDBRANCH  18  19
ENDBRANCH  17  18
ENDBRANCH  12  17
ENDBRANCH   8  11
ENDBRANCH   1   7
BRANCH   2  22
HETATM   22  C   UNL     1      42.868 -13.938   3.213  1.00  0.00     0.254 C 
HETATM   23  N   UNL     1      41.825 -13.753   4.096  1.00  0.00    -0.354 N 
HETATM   24  H   UNL     1      40.946 -13.511   3.646  1.00  0.00     0.162 HD
HETATM   25  O   UNL     1      44.048 -13.715   3.464  1.00  0.00    -0.268 OA
BRANCH  23  26
HETATM   26  C   UNL     1      42.075 -13.053   5.343  1.00  0.00     0.155 C 
BRANCH  26  27
HETATM   27  C   UNL     1      41.472 -11.642   5.330  1.00  0.00     0.139 C 
HETATM   28  O   UNL     1      41.137 -11.256   6.682  1.00  0.00    -0.384 OA
HETATM   29  C   UNL     1      39.716 -11.359   6.854  1.00  0.00     0.168 C 
HETATM   30  C   UNL     1      39.145 -11.965   5.589  1.00  0.00     0.029 C 
HETATM   31  C   UNL     1      40.167 -11.571   4.553  1.00  0.00     0.035 C 
ENDBRANCH  26  27
ENDBRANCH  23  26
ENDBRANCH   2  22
TORSDOF 9
ENDMDL
MODEL 7
REMARK VINA RESULT:      -7.4      2.218      8.013
REMARK  9 active torsions:
REMARK  status: ('A' for Active; 'I' for Inactive)
REMARK    1  A    between atoms: O_2  and  C_3 
REMARK    2  A    between atoms: C_3  and  C_4 
REMARK    3  A    between atoms: C_4  and  S_5 
REMARK    4  A    between atoms: S_5  and  C_6 
REMARK    5  A    between atoms: C_7  and  C_8 
REMARK       I    between atoms: C_8  and  N_9 
REMARK    6  A    between atoms: N_9  and  C_10 
REMARK    7  A    between atoms: C_11  and  C_12 
REMARK       I    between atoms: C_12  and  N_13 
REMARK    8  A    between atoms: N_13  and  C_14 
REMARK    9  A    between atoms: C_14  and  C_15 
ROOT
HETATM    1  C   UNL     1      42.965 -18.919   3.100  1.00  0.00     0.050 A 
HETATM    2  C   UNL     1      43.603 -19.404   4.254  1.00  0.00     0.058 A 
HETATM    3  C   UNL     1      44.436 -20.531   4.189  1.00  0.00     0.019 A 
HETATM    4  C   UNL     1      44.652 -21.169   2.968  1.00  0.00     0.001 A 
HETATM    5  C   UNL     1      44.059 -20.669   1.811  1.00  0.00     0.002 A 
HETATM    6  C   UNL     1      43.230 -19.544   1.873  1.00  0.00     0.030 A 
ENDROOT
BRANCH   1   7
HETATM    7  N   UNL     1      42.091 -17.812   3.076  1.00  0.00    -0.322 N 
HETATM    8  C   UNL     1      42.469 -16.535   2.710  1.00  0.00     0.257 C 
HETATM    9  O   UNL     1      43.616 -16.120   2.611  1.00  0.00    -0.267 OA
HETATM   10  H   UNL     1      41.197 -17.905   3.544  1.00  0.00     0.169 HD
BRANCH   8  11
HETATM   11  C   UNL     1      41.334 -15.632   2.433  1.00  0.00     0.049 A 
HETATM   12  C   UNL     1      40.766 -15.487   1.159  1.00  0.00     0.016 A 
HETATM   13  C   UNL     1      39.691 -14.599   1.009  1.00  0.00     0.019 A 
HETATM   14  C   UNL     1      39.184 -13.891   2.105  1.00  0.00     0.001 A 
HETATM   15  C   UNL     1      39.747 -14.055   3.368  1.00  0.00     0.001 A 
HETATM   16  C   UNL     1      40.822 -14.925   3.535  1.00  0.00     0.018 A 
BRANCH  12  17
HETATM   17  S   UNL     1      41.379 -16.270  -0.326  1.00  0.00    -0.127 SA
BRANCH  17  18
HETATM   18  C   UNL     1      40.922 -15.015  -1.583  1.00  0.00     0.106 C 
BRANCH  18  19
HETATM   19  C   UNL     1      41.032 -15.561  -3.011  1.00  0.00     0.177 C 
BRANCH  19  20
HETATM   20  O   UNL     1      40.003 -15.138  -3.907  1.00  0.00    -0.395 OA
HETATM   21  C   UNL     1      39.033 -16.138  -4.182  1.00  0.00     0.201 C 
ENDBRANCH  19  20
ENDBRANCH  18  19
ENDBRANCH  17  18
ENDBRANCH  12  17
ENDBRANCH   8  11
ENDBRANCH   1   7
BRANCH   2  22
HETATM   22  C   UNL     1      43.641 -18.640   5.521  1.00  0.00     0.254 C 
HETATM   23  N   UNL     1      44.455 -17.527   5.509  1.00  0.00    -0.354 N 
HETATM   24  H   UNL     1      45.264 -17.619   4.899  1.00  0.00     0.162 HD
HETATM   25  O   UNL     1      42.964 -19.004   6.476  1.00  0.00    -0.268 OA
BRANCH  23  26
HETATM   26  C   UNL     1      44.718 -16.835   6.758  1.00  0.00     0.155 C 
BRANCH  26  27
HETATM   27  C   UNL     1      43.743 -15.669   6.974  1.00  0.00     0.139 C 
HETATM   28  O   UNL     1      43.272 -15.200   5.691  1.00  0.00    -0.384 OA
HETATM   29  C   UNL     1      43.942 -13.971   5.373  1.00  0.00     0.168 C 
HETATM   30  C   UNL     1      44.981 -13.726   6.448  1.00  0.00     0.029 C 
HETATM   31  C   UNL     1      44.405 -14.467   7.628  1.00  0.00     0.035 C 
ENDBRANCH  26  27
ENDBRANCH  23  26
ENDBRANCH   2  22
TORSDOF 9
ENDMDL
MODEL 8
REMARK VINA RESULT:      -7.4      4.192      8.521
REMARK  9 active torsions:
REMARK  status: ('A' for Active; 'I' for Inactive)
REMARK    1  A    between atoms: O_2  and  C_3 
REMARK    2  A    between atoms: C_3  and  C_4 
REMARK    3  A    between atoms: C_4  and  S_5 
REMARK    4  A    between atoms: S_5  and  C_6 
REMARK    5  A    between atoms: C_7  and  C_8 
REMARK       I    between atoms: C_8  and  N_9 
REMARK    6  A    between atoms: N_9  and  C_10 
REMARK    7  A    between atoms: C_11  and  C_12 
REMARK       I    between atoms: C_12  and  N_13 
REMARK    8  A    between atoms: N_13  and  C_14 
REMARK    9  A    between atoms: C_14  and  C_15 
ROOT
HETATM    1  C   UNL     1      42.872 -16.310   5.301  1.00  0.00     0.050 A 
HETATM    2  C   UNL     1      43.853 -15.912   6.225  1.00  0.00     0.058 A 
HETATM    3  C   UNL     1      44.714 -16.858   6.803  1.00  0.00     0.019 A 
HETATM    4  C   UNL     1      44.612 -18.202   6.448  1.00  0.00     0.001 A 
HETATM    5  C   UNL     1      43.672 -18.599   5.500  1.00  0.00     0.002 A 
HETATM    6  C   UNL     1      42.814 -17.658   4.921  1.00  0.00     0.030 A 
ENDROOT
BRANCH   1   7
HETATM    7  N   UNL     1      41.948 -15.435   4.692  1.00  0.00    -0.322 N 
HETATM    8  C   UNL     1      42.060 -14.970   3.397  1.00  0.00     0.257 C 
HETATM    9  O   UNL     1      43.060 -15.021   2.693  1.00  0.00    -0.267 OA
HETATM   10  H   UNL     1      41.281 -14.959   5.289  1.00  0.00     0.169 HD
BRANCH   8  11
HETATM   11  C   UNL     1      40.822 -14.358   2.872  1.00  0.00     0.049 A 
HETATM   12  C   UNL     1      40.483 -13.015   3.091  1.00  0.00     0.016 A 
HETATM   13  C   UNL     1      39.280 -12.539   2.547  1.00  0.00     0.019 A 
HETATM   14  C   UNL     1      38.452 -13.374   1.789  1.00  0.00     0.001 A 
HETATM   15  C   UNL     1      38.808 -14.702   1.568  1.00  0.00     0.001 A 
HETATM   16  C   UNL     1      39.993 -15.196   2.108  1.00  0.00     0.018 A 
BRANCH  12  17
HETATM   17  S   UNL     1      41.415 -11.879   4.107  1.00  0.00    -0.127 SA
BRANCH  17  18
HETATM   18  C   UNL     1      40.801 -12.335   5.775  1.00  0.00     0.106 C 
BRANCH  18  19
HETATM   19  C   UNL     1      40.163 -11.147   6.501  1.00  0.00     0.177 C 
BRANCH  19  20
HETATM   20  O   UNL     1      39.090 -11.476   7.385  1.00  0.00    -0.395 OA
HETATM   21  C   UNL     1      39.375 -11.229   8.754  1.00  0.00     0.201 C 
ENDBRANCH  19  20
ENDBRANCH  18  19
ENDBRANCH  17  18
ENDBRANCH  12  17
ENDBRANCH   8  11
ENDBRANCH   1   7
BRANCH   2  22
HETATM   22  C   UNL     1      44.200 -14.492   6.453  1.00  0.00     0.254 C 
HETATM   23  N   UNL     1      44.326 -14.127   7.777  1.00  0.00    -0.354 N 
HETATM   24  H   UNL     1      43.723 -14.652   8.405  1.00  0.00     0.162 HD
HETATM   25  O   UNL     1      44.369 -13.741   5.499  1.00  0.00    -0.268 OA
BRANCH  23  26
HETATM   26  C   UNL     1      44.460 -12.719   8.107  1.00  0.00     0.155 C 
BRANCH  26  27
HETATM   27  C   UNL     1      45.306 -12.513   9.371  1.00  0.00     0.139 C 
HETATM   28  O   UNL     1      44.582 -13.017  10.515  1.00  0.00    -0.384 OA
HETATM   29  C   UNL     1      44.050 -11.907  11.253  1.00  0.00     0.168 C 
HETATM   30  C   UNL     1      44.343 -10.650  10.460  1.00  0.00     0.029 C 
HETATM   31  C   UNL     1      45.564 -11.045   9.669  1.00  0.00     0.035 C 
ENDBRANCH  26  27
ENDBRANCH  23  26
ENDBRANCH   2  22
TORSDOF 9
ENDMDL
MODEL 9
REMARK VINA RESULT:      -7.2      2.216      5.385
REMARK  9 active torsions:
REMARK  status: ('A' for Active; 'I' for Inactive)
REMARK    1  A    between atoms: O_2  and  C_3 
REMARK    2  A    between atoms: C_3  and  C_4 
REMARK    3  A    between atoms: C_4  and  S_5 
REMARK    4  A    between atoms: S_5  and  C_6 
REMARK    5  A    between atoms: C_7  and  C_8 
REMARK       I    between atoms: C_8  and  N_9 
REMARK    6  A    between atoms: N_9  and  C_10 
REMARK    7  A    between atoms: C_11  and  C_12 
REMARK       I    between atoms: C_12  and  N_13 
REMARK    8  A    between atoms: N_13  and  C_14 
REMARK    9  A    between atoms: C_14  and  C_15 
ROOT
HETATM    1  C   UNL     1      44.183 -19.085   3.569  1.00  0.00     0.050 A 
HETATM    2  C   UNL     1      43.793 -19.330   2.242  1.00  0.00     0.058 A 
HETATM    3  C   UNL     1      43.799 -20.634   1.725  1.00  0.00     0.019 A 
HETATM    4  C   UNL     1      44.176 -21.704   2.536  1.00  0.00     0.001 A 
HETATM    5  C   UNL     1      44.522 -21.476   3.867  1.00  0.00     0.002 A 
HETATM    6  C   UNL     1      44.514 -20.177   4.384  1.00  0.00     0.030 A 
ENDROOT
BRANCH   1   7
HETATM    7  N   UNL     1      44.234 -17.807   4.163  1.00  0.00    -0.322 N 
HETATM    8  C   UNL     1      43.159 -17.195   4.777  1.00  0.00     0.257 C 
HETATM    9  O   UNL     1      41.985 -17.524   4.678  1.00  0.00    -0.267 OA
HETATM   10  H   UNL     1      45.033 -17.218   3.955  1.00  0.00     0.169 HD
BRANCH   8  11
HETATM   11  C   UNL     1      43.528 -16.035   5.614  1.00  0.00     0.049 A 
HETATM   12  C   UNL     1      43.421 -14.709   5.171  1.00  0.00     0.016 A 
HETATM   13  C   UNL     1      43.803 -13.684   6.049  1.00  0.00     0.019 A 
HETATM   14  C   UNL     1      44.259 -13.974   7.340  1.00  0.00     0.001 A 
HETATM   15  C   UNL     1      44.347 -15.295   7.772  1.00  0.00     0.001 A 
HETATM   16  C   UNL     1      43.982 -16.327   6.911  1.00  0.00     0.018 A 
BRANCH  12  17
HETATM   17  S   UNL     1      42.934 -14.219   3.522  1.00  0.00    -0.127 SA
BRANCH  17  18
HETATM   18  C   UNL     1      41.365 -13.339   3.880  1.00  0.00     0.106 C 
BRANCH  18  19
HETATM   19  C   UNL     1      40.329 -14.251   4.544  1.00  0.00     0.177 C 
BRANCH  19  20
HETATM   20  O   UNL     1      40.094 -14.000   5.931  1.00  0.00    -0.395 OA
HETATM   21  C   UNL     1      39.987 -12.621   6.255  1.00  0.00     0.201 C 
ENDBRANCH  19  20
ENDBRANCH  18  19
ENDBRANCH  17  18
ENDBRANCH  12  17
ENDBRANCH   8  11
ENDBRANCH   1   7
BRANCH   2  22
HETATM   22  C   UNL     1      43.134 -18.302   1.406  1.00  0.00     0.254 C 
HETATM   23  N   UNL     1      41.790 -18.118   1.656  1.00  0.00    -0.354 N 
HETATM   24  H   UNL     1      41.314 -18.961   1.968  1.00  0.00     0.162 HD
HETATM   25  O   UNL     1      43.785 -17.677   0.576  1.00  0.00    -0.268 OA
BRANCH  23  26
HETATM   26  C   UNL     1      41.015 -17.287   0.754  1.00  0.00     0.155 C 
BRANCH  26  27
HETATM   27  C   UNL     1      41.094 -15.804   1.143  1.00  0.00     0.139 C 
HETATM   28  O   UNL     1      39.757 -15.292   1.337  1.00  0.00    -0.384 OA
HETATM   29  C   UNL     1      39.397 -14.495   0.199  1.00  0.00     0.168 C 
HETATM   30  C   UNL     1      40.513 -14.620  -0.818  1.00  0.00     0.029 C 
HETATM   31  C   UNL     1      41.704 -14.944   0.048  1.00  0.00     0.035 C 
ENDBRANCH  26  27
ENDBRANCH  23  26
ENDBRANCH   2  22
TORSDOF 9
ENDMDL
MODEL 10
REMARK VINA RESULT:      -7.2      3.660      7.652
REMARK  9 active torsions:
REMARK  status: ('A' for Active; 'I' for Inactive)
REMARK    1  A    between atoms: O_2  and  C_3 
REMARK    2  A    between atoms: C_3  and  C_4 
REMARK    3  A    between atoms: C_4  and  S_5 
REMARK    4  A    between atoms: S_5  and  C_6 
REMARK    5  A    between atoms: C_7  and  C_8 
REMARK       I    between atoms: C_8  and  N_9 
REMARK    6  A    between atoms: N_9  and  C_10 
REMARK    7  A    between atoms: C_11  and  C_12 
REMARK       I    between atoms: C_12  and  N_13 
REMARK    8  A    between atoms: N_13  and  C_14 
REMARK    9  A    between atoms: C_14  and  C_15 
ROOT
HETATM    1  C   UNL     1      41.761 -14.193   4.603  1.00  0.00     0.050 A 
HETATM    2  C   UNL     1      42.283 -13.233   5.486  1.00  0.00     0.058 A 
HETATM    3  C   UNL     1      41.577 -12.050   5.754  1.00  0.00     0.019 A 
HETATM    4  C   UNL     1      40.336 -11.828   5.158  1.00  0.00     0.001 A 
HETATM    5  C   UNL     1      39.790 -12.795   4.316  1.00  0.00     0.002 A 
HETATM    6  C   UNL     1      40.492 -13.975   4.049  1.00  0.00     0.030 A 
ENDROOT
BRANCH   1   7
HETATM    7  N   UNL     1      42.412 -15.394   4.254  1.00  0.00    -0.322 N 
HETATM    8  C   UNL     1      41.957 -16.651   4.600  1.00  0.00     0.257 C 
HETATM    9  O   UNL     1      41.110 -16.906   5.446  1.00  0.00    -0.267 OA
HETATM   10  H   UNL     1      43.364 -15.335   3.912  1.00  0.00     0.169 HD
BRANCH   8  11
HETATM   11  C   UNL     1      42.597 -17.748   3.847  1.00  0.00     0.049 A 
HETATM   12  C   UNL     1      42.259 -18.065   2.523  1.00  0.00     0.016 A 
HETATM   13  C   UNL     1      42.930 -19.130   1.905  1.00  0.00     0.019 A 
HETATM   14  C   UNL     1      43.927 -19.843   2.581  1.00  0.00     0.001 A 
HETATM   15  C   UNL     1      44.263 -19.508   3.890  1.00  0.00     0.001 A 
HETATM   16  C   UNL     1      43.600 -18.461   4.525  1.00  0.00     0.018 A 
BRANCH  12  17
HETATM   17  S   UNL     1      40.951 -17.284   1.589  1.00  0.00    -0.127 SA
BRANCH  17  18
HETATM   18  C   UNL     1      41.927 -16.175   0.502  1.00  0.00     0.106 C 
BRANCH  18  19
HETATM   19  C   UNL     1      41.035 -15.225  -0.304  1.00  0.00     0.177 C 
BRANCH  19  20
HETATM   20  O   UNL     1      40.536 -14.097   0.417  1.00  0.00    -0.395 OA
HETATM   21  C   UNL     1      39.119 -14.022   0.458  1.00  0.00     0.201 C 
ENDBRANCH  19  20
ENDBRANCH  18  19
ENDBRANCH  17  18
ENDBRANCH  12  17
ENDBRANCH   8  11
ENDBRANCH   1   7
BRANCH   2  22
HETATM   22  C   UNL     1      43.450 -13.504   6.354  1.00  0.00     0.254 C 
HETATM   23  N   UNL     1      43.466 -12.809   7.545  1.00  0.00    -0.354 N 
HETATM   24  H   UNL     1      43.023 -11.895   7.492  1.00  0.00     0.162 HD
HETATM   25  O   UNL     1      44.303 -14.310   6.001  1.00  0.00    -0.268 OA
BRANCH  23  26
HETATM   26  C   UNL     1      44.663 -12.850   8.367  1.00  0.00     0.155 C 
BRANCH  26  27
HETATM   27  C   UNL     1      44.340 -12.616   9.849  1.00  0.00     0.139 C 
HETATM   28  O   UNL     1      43.227 -11.702   9.954  1.00  0.00    -0.384 OA
HETATM   29  C   UNL     1      43.722 -10.411  10.337  1.00  0.00     0.168 C 
HETATM   30  C   UNL     1      45.235 -10.486  10.345  1.00  0.00     0.029 C 
HETATM   31  C   UNL     1      45.483 -11.951  10.598  1.00  0.00     0.035 C 
ENDBRANCH  26  27
ENDBRANCH  23  26
ENDBRANCH   2  22
TORSDOF 9
ENDMDL
