MODEL 1
REMARK VINA RESULT:      -7.6      0.000      0.000
REMARK  6 active torsions:
REMARK  status: ('A' for Active; 'I' for Inactive)
REMARK    1  A    between atoms: C_4  and  O_5 
REMARK    2  A    between atoms: O_5  and  C_6 
REMARK    3  A    between atoms: C_6  and  C_7 
REMARK    4  A    between atoms: C_10  and  C_11 
REMARK    5  A    between atoms: C_11  and  N_12 
REMARK       I    between atoms: N_12  and  C_13 
REMARK       I    between atoms: C_13  and  N_14 
REMARK    6  A    between atoms: N_14  and  C_15 
ROOT
HETATM    1  C   UNL     1      43.008 -17.848   1.807  1.00  0.00     0.165 C 
ENDROOT
BRANCH   1   2
HETATM    2  C   UNL     1      43.581 -19.051   2.521  1.00  0.00    -0.007 A 
HETATM    3  C   UNL     1      44.024 -19.011   3.856  1.00  0.00     0.077 A 
HETATM    4  C   UNL     1      44.472 -20.187   4.476  1.00  0.00     0.044 A 
HETATM    5  C   UNL     1      44.515 -21.401   3.777  1.00  0.00    -0.059 A 
HETATM    6  C   UNL     1      44.975 -22.661   4.449  1.00  0.00     0.048 C 
HETATM    7  C   UNL     1      44.074 -21.438   2.453  1.00  0.00     0.007 A 
HETATM    8  C   UNL     1      43.610 -20.278   1.834  1.00  0.00     0.012 A 
BRANCH   3   9
HETATM    9  O   UNL     1      43.968 -17.787   4.479  1.00  0.00    -0.350 OA
BRANCH   9  10
HETATM   10  C   UNL     1      43.122 -17.685   5.625  1.00  0.00     0.180 C 
BRANCH  10  11
HETATM   11  C   UNL     1      43.994 -17.425   6.816  1.00  0.00     0.010 A 
HETATM   12  C   UNL     1      43.378 -17.221   8.177  1.00  0.00     0.007 A 
HETATM   13  C   UNL     1      44.162 -18.471   7.889  1.00  0.00     0.007 A 
ENDBRANCH  10  11
ENDBRANCH   9  10
ENDBRANCH   3   9
ENDBRANCH   1   2
BRANCH   1  14
HETATM   14  N   UNL     1      41.792 -17.351   2.411  1.00  0.00    -0.339 N 
HETATM   15  C   UNL     1      41.663 -16.016   2.714  1.00  0.00     0.321 C 
HETATM   16  N   UNL     1      40.377 -15.707   3.095  1.00  0.00    -0.307 N 
HETATM   17  O   UNL     1      42.605 -15.235   2.651  1.00  0.00    -0.247 OA
HETATM   18  H   UNL     1      39.700 -16.442   2.973  1.00  0.00     0.170 HD
HETATM   19  H   UNL     1      40.963 -17.875   2.166  1.00  0.00     0.164 HD
BRANCH  16  20
HETATM   20  C   UNL     1      39.907 -14.461   3.570  1.00  0.00     0.059 A 
HETATM   21  C   UNL     1      39.954 -14.181   4.949  1.00  0.00    -0.032 A 
HETATM   22  C   UNL     1      40.443 -15.178   5.961  1.00  0.00     0.050 C 
HETATM   23  C   UNL     1      39.515 -12.927   5.401  1.00  0.00     0.028 A 
HETATM   24  C   UNL     1      39.045 -12.004   4.482  1.00  0.00     0.117 A 
HETATM   25  N   UNL     1      38.982 -12.239   3.160  1.00  0.00    -0.271 NA
HETATM   26  C   UNL     1      39.410 -13.457   2.735  1.00  0.00     0.146 A 
ENDBRANCH  16  20
ENDBRANCH   1  14
TORSDOF 6
ENDMDL
MODEL 2
REMARK VINA RESULT:      -7.6      3.037      4.013
REMARK  6 active torsions:
REMARK  status: ('A' for Active; 'I' for Inactive)
REMARK    1  A    between atoms: C_4  and  O_5 
REMARK    2  A    between atoms: O_5  and  C_6 
REMARK    3  A    between atoms: C_6  and  C_7 
REMARK    4  A    between atoms: C_10  and  C_11 
REMARK    5  A    between atoms: C_11  and  N_12 
REMARK       I    between atoms: N_12  and  C_13 
REMARK       I    between atoms: C_13  and  N_14 
REMARK    6  A    between atoms: N_14  and  C_15 
ROOT
HETATM    1  C   UNL     1      42.838 -16.792   2.767  1.00  0.00     0.165 C 
ENDROOT
BRANCH   1   2
HETATM    2  C   UNL     1      43.381 -18.199   2.867  1.00  0.00    -0.007 A 
HETATM    3  C   UNL     1      44.063 -18.679   4.001  1.00  0.00     0.077 A 
HETATM    4  C   UNL     1      44.470 -20.020   4.051  1.00  0.00     0.044 A 
HETATM    5  C   UNL     1      44.234 -20.888   2.977  1.00  0.00    -0.059 A 
HETATM    6  C   UNL     1      44.653 -22.327   3.042  1.00  0.00     0.048 C 
HETATM    7  C   UNL     1      43.557 -20.410   1.854  1.00  0.00     0.007 A 
HETATM    8  C   UNL     1      43.132 -19.083   1.802  1.00  0.00     0.012 A 
BRANCH   3   9
HETATM    9  O   UNL     1      44.274 -17.773   5.012  1.00  0.00    -0.350 OA
BRANCH   9  10
HETATM   10  C   UNL     1      44.648 -18.303   6.285  1.00  0.00     0.180 C 
BRANCH  10  11
HETATM   11  C   UNL     1      43.439 -18.265   7.170  1.00  0.00     0.010 A 
HETATM   12  C   UNL     1      43.377 -17.299   8.326  1.00  0.00     0.007 A 
HETATM   13  C   UNL     1      42.493 -17.092   7.128  1.00  0.00     0.007 A 
ENDBRANCH  10  11
ENDBRANCH   9  10
ENDBRANCH   3   9
ENDBRANCH   1   2
BRANCH   1  14
HETATM   14  N   UNL     1      42.885 -16.254   1.426  1.00  0.00    -0.339 N 
HETATM   15  C   UNL     1      41.726 -16.080   0.706  1.00  0.00     0.321 C 
HETATM   16  N   UNL     1      41.955 -15.383  -0.458  1.00  0.00    -0.307 N 
HETATM   17  O   UNL     1      40.648 -16.520   1.085  1.00  0.00    -0.247 OA
HETATM   18  H   UNL     1      42.877 -14.990  -0.554  1.00  0.00     0.170 HD
HETATM   19  H   UNL     1      43.659 -15.627   1.257  1.00  0.00     0.164 HD
BRANCH  16  20
HETATM   20  C   UNL     1      41.021 -15.110  -1.484  1.00  0.00     0.059 A 
HETATM   21  C   UNL     1      40.136 -14.023  -1.345  1.00  0.00    -0.032 A 
HETATM   22  C   UNL     1      40.105 -13.156  -0.118  1.00  0.00     0.050 C 
HETATM   23  C   UNL     1      39.237 -13.744  -2.385  1.00  0.00     0.028 A 
HETATM   24  C   UNL     1      39.242 -14.545  -3.515  1.00  0.00     0.117 A 
HETATM   25  N   UNL     1      40.068 -15.592  -3.679  1.00  0.00    -0.271 NA
HETATM   26  C   UNL     1      40.934 -15.851  -2.664  1.00  0.00     0.146 A 
ENDBRANCH  16  20
ENDBRANCH   1  14
TORSDOF 6
ENDMDL
MODEL 3
REMARK VINA RESULT:      -7.3      3.637      5.651
REMARK  6 active torsions:
REMARK  status: ('A' for Active; 'I' for Inactive)
REMARK    1  A    between atoms: C_4  and  O_5 
REMARK    2  A    between atoms: O_5  and  C_6 
REMARK    3  A    between atoms: C_6  and  C_7 
REMARK    4  A    between atoms: C_10  and  C_11 
REMARK    5  A    between atoms: C_11  and  N_12 
REMARK       I    between atoms: N_12  and  C_13 
REMARK       I    between atoms: C_13  and  N_14 
REMARK    6  A    between atoms: N_14  and  C_15 
ROOT
HETATM    1  C   UNL     1      40.349 -17.018   2.031  1.00  0.00     0.165 C 
ENDROOT
BRANCH   1   2
HETATM    2  C   UNL     1      41.353 -17.080   3.160  1.00  0.00    -0.007 A 
HETATM    3  C   UNL     1      42.482 -17.921   3.136  1.00  0.00     0.077 A 
HETATM    4  C   UNL     1      43.411 -17.867   4.186  1.00  0.00     0.044 A 
HETATM    5  C   UNL     1      43.220 -17.007   5.276  1.00  0.00    -0.059 A 
HETATM    6  C   UNL     1      44.226 -16.937   6.387  1.00  0.00     0.048 C 
HETATM    7  C   UNL     1      42.101 -16.174   5.296  1.00  0.00     0.007 A 
HETATM    8  C   UNL     1      41.181 -16.207   4.248  1.00  0.00     0.012 A 
BRANCH   3   9
HETATM    9  O   UNL     1      42.601 -18.748   2.046  1.00  0.00    -0.350 OA
BRANCH   9  10
HETATM   10  C   UNL     1      43.807 -19.507   1.941  1.00  0.00     0.180 C 
BRANCH  10  11
HETATM   11  C   UNL     1      43.453 -20.954   2.107  1.00  0.00     0.010 A 
HETATM   12  C   UNL     1      44.152 -22.005   1.282  1.00  0.00     0.007 A 
HETATM   13  C   UNL     1      44.418 -21.912   2.758  1.00  0.00     0.007 A 
ENDBRANCH  10  11
ENDBRANCH   9  10
ENDBRANCH   3   9
ENDBRANCH   1   2
BRANCH   1  14
HETATM   14  N   UNL     1      40.942 -16.678   0.756  1.00  0.00    -0.339 N 
HETATM   15  C   UNL     1      40.793 -15.413   0.238  1.00  0.00     0.321 C 
HETATM   16  N   UNL     1      41.583 -15.227  -0.874  1.00  0.00    -0.307 N 
HETATM   17  O   UNL     1      40.030 -14.589   0.727  1.00  0.00    -0.247 OA
HETATM   18  H   UNL     1      42.240 -15.965  -1.067  1.00  0.00     0.170 HD
HETATM   19  H   UNL     1      41.781 -17.196   0.537  1.00  0.00     0.164 HD
BRANCH  16  20
HETATM   20  C   UNL     1      41.612 -14.093  -1.717  1.00  0.00     0.059 A 
HETATM   21  C   UNL     1      40.911 -14.118  -2.939  1.00  0.00    -0.032 A 
HETATM   22  C   UNL     1      40.165 -15.330  -3.418  1.00  0.00     0.050 C 
HETATM   23  C   UNL     1      40.921 -12.973  -3.749  1.00  0.00     0.028 A 
HETATM   24  C   UNL     1      41.620 -11.854  -3.329  1.00  0.00     0.117 A 
HETATM   25  N   UNL     1      42.303 -11.796  -2.172  1.00  0.00    -0.271 NA
HETATM   26  C   UNL     1      42.285 -12.911  -1.396  1.00  0.00     0.146 A 
ENDBRANCH  16  20
ENDBRANCH   1  14
TORSDOF 6
ENDMDL
MODEL 4
REMARK VINA RESULT:      -7.2      2.687      3.662
REMARK  6 active torsions:
REMARK  status: ('A' for Active; 'I' for Inactive)
REMARK    1  A    between atoms: C_4  and  O_5 
REMARK    2  A    between atoms: O_5  and  C_6 
REMARK    3  A    between atoms: C_6  and  C_7 
REMARK    4  A    between atoms: C_10  and  C_11 
REMARK    5  A    between atoms: C_11  and  N_12 
REMARK       I    between atoms: N_12  and  C_13 
REMARK       I    between atoms: C_13  and  N_14 
REMARK    6  A    between atoms: N_14  and  C_15 
ROOT
HETATM    1  C   UNL     1      42.416 -16.567   3.059  1.00  0.00     0.165 C 
ENDROOT
BRANCH   1   2
HETATM    2  C   UNL     1      43.038 -17.942   2.966  1.00  0.00    -0.007 A 
HETATM    3  C   UNL     1      43.916 -18.454   3.940  1.00  0.00     0.077 A 
HETATM    4  C   UNL     1      44.392 -19.768   3.825  1.00  0.00     0.044 A 
HETATM    5  C   UNL     1      44.031 -20.575   2.737  1.00  0.00    -0.059 A 
HETATM    6  C   UNL     1      44.527 -21.987   2.628  1.00  0.00     0.048 C 
HETATM    7  C   UNL     1      43.160 -20.065   1.774  1.00  0.00     0.007 A 
HETATM    8  C   UNL     1      42.666 -18.766   1.889  1.00  0.00     0.012 A 
BRANCH   3   9
HETATM    9  O   UNL     1      44.240 -17.606   4.972  1.00  0.00    -0.350 OA
BRANCH   9  10
HETATM   10  C   UNL     1      44.624 -18.212   6.207  1.00  0.00     0.180 C 
BRANCH  10  11
HETATM   11  C   UNL     1      43.422 -18.230   7.102  1.00  0.00     0.010 A 
HETATM   12  C   UNL     1      43.367 -17.337   8.315  1.00  0.00     0.007 A 
HETATM   13  C   UNL     1      42.474 -17.058   7.138  1.00  0.00     0.007 A 
ENDBRANCH  10  11
ENDBRANCH   9  10
ENDBRANCH   3   9
ENDBRANCH   1   2
BRANCH   1  14
HETATM   14  N   UNL     1      41.342 -16.360   2.113  1.00  0.00    -0.339 N 
HETATM   15  C   UNL     1      41.331 -15.242   1.310  1.00  0.00     0.321 C 
HETATM   16  N   UNL     1      40.347 -15.321   0.352  1.00  0.00    -0.307 N 
HETATM   17  O   UNL     1      42.109 -14.311   1.473  1.00  0.00    -0.247 OA
HETATM   18  H   UNL     1      39.879 -16.209   0.282  1.00  0.00     0.170 HD
HETATM   19  H   UNL     1      40.927 -17.212   1.764  1.00  0.00     0.164 HD
BRANCH  16  20
HETATM   20  C   UNL     1      39.981 -14.317  -0.575  1.00  0.00     0.059 A 
HETATM   21  C   UNL     1      40.231 -14.515  -1.947  1.00  0.00    -0.032 A 
HETATM   22  C   UNL     1      40.922 -15.740  -2.475  1.00  0.00     0.050 C 
HETATM   23  C   UNL     1      39.832 -13.525  -2.858  1.00  0.00     0.028 A 
HETATM   24  C   UNL     1      39.209 -12.383  -2.384  1.00  0.00     0.117 A 
HETATM   25  N   UNL     1      38.959 -12.159  -1.082  1.00  0.00    -0.271 NA
HETATM   26  C   UNL     1      39.351 -13.125  -0.211  1.00  0.00     0.146 A 
ENDBRANCH  16  20
ENDBRANCH   1  14
TORSDOF 6
ENDMDL
MODEL 5
REMARK VINA RESULT:      -7.1      3.084      7.298
REMARK  6 active torsions:
REMARK  status: ('A' for Active; 'I' for Inactive)
REMARK    1  A    between atoms: C_4  and  O_5 
REMARK    2  A    between atoms: O_5  and  C_6 
REMARK    3  A    between atoms: C_6  and  C_7 
REMARK    4  A    between atoms: C_10  and  C_11 
REMARK    5  A    between atoms: C_11  and  N_12 
REMARK       I    between atoms: N_12  and  C_13 
REMARK       I    between atoms: C_13  and  N_14 
REMARK    6  A    between atoms: N_14  and  C_15 
ROOT
HETATM    1  C   UNL     1      42.657 -16.821   7.077  1.00  0.00     0.165 C 
ENDROOT
BRANCH   1   2
HETATM    2  C   UNL     1      42.374 -15.554   6.302  1.00  0.00    -0.007 A 
HETATM    3  C   UNL     1      43.346 -14.562   6.073  1.00  0.00     0.077 A 
HETATM    4  C   UNL     1      43.031 -13.449   5.280  1.00  0.00     0.044 A 
HETATM    5  C   UNL     1      41.751 -13.292   4.732  1.00  0.00    -0.059 A 
HETATM    6  C   UNL     1      41.423 -12.111   3.866  1.00  0.00     0.048 C 
HETATM    7  C   UNL     1      40.789 -14.278   4.959  1.00  0.00     0.007 A 
HETATM    8  C   UNL     1      41.099 -15.396   5.732  1.00  0.00     0.012 A 
BRANCH   3   9
HETATM    9  O   UNL     1      44.576 -14.771   6.650  1.00  0.00    -0.350 OA
BRANCH   9  10
HETATM   10  C   UNL     1      45.347 -13.610   6.963  1.00  0.00     0.180 C 
BRANCH  10  11
HETATM   11  C   UNL     1      45.012 -13.201   8.365  1.00  0.00     0.010 A 
HETATM   12  C   UNL     1      45.677 -11.998   8.984  1.00  0.00     0.007 A 
HETATM   13  C   UNL     1      44.216 -11.949   8.632  1.00  0.00     0.007 A 
ENDBRANCH  10  11
ENDBRANCH   9  10
ENDBRANCH   3   9
ENDBRANCH   1   2
BRANCH   1  14
HETATM   14  N   UNL     1      43.646 -17.667   6.447  1.00  0.00    -0.339 N 
HETATM   15  C   UNL     1      43.273 -18.566   5.474  1.00  0.00     0.321 C 
HETATM   16  N   UNL     1      44.369 -19.132   4.865  1.00  0.00    -0.307 N 
HETATM   17  O   UNL     1      42.100 -18.811   5.224  1.00  0.00    -0.247 OA
HETATM   18  H   UNL     1      45.258 -18.727   5.107  1.00  0.00     0.170 HD
HETATM   19  H   UNL     1      44.572 -17.263   6.404  1.00  0.00     0.164 HD
BRANCH  16  20
HETATM   20  C   UNL     1      44.365 -20.164   3.897  1.00  0.00     0.059 A 
HETATM   21  C   UNL     1      44.087 -19.852   2.552  1.00  0.00    -0.032 A 
HETATM   22  C   UNL     1      43.740 -18.463   2.098  1.00  0.00     0.050 C 
HETATM   23  C   UNL     1      44.119 -20.880   1.598  1.00  0.00     0.028 A 
HETATM   24  C   UNL     1      44.419 -22.170   2.004  1.00  0.00     0.117 A 
HETATM   25  N   UNL     1      44.685 -22.504   3.279  1.00  0.00    -0.271 NA
HETATM   26  C   UNL     1      44.650 -21.499   4.193  1.00  0.00     0.146 A 
ENDBRANCH  16  20
ENDBRANCH   1  14
TORSDOF 6
ENDMDL
MODEL 6
REMARK VINA RESULT:      -7.0      2.447      3.523
REMARK  6 active torsions:
REMARK  status: ('A' for Active; 'I' for Inactive)
REMARK    1  A    between atoms: C_4  and  O_5 
REMARK    2  A    between atoms: O_5  and  C_6 
REMARK    3  A    between atoms: C_6  and  C_7 
REMARK    4  A    between atoms: C_10  and  C_11 
REMARK    5  A    between atoms: C_11  and  N_12 
REMARK       I    between atoms: N_12  and  C_13 
REMARK       I    between atoms: C_13  and  N_14 
REMARK    6  A    between atoms: N_14  and  C_15 
ROOT
HETATM    1  C   UNL     1      41.210 -16.486   3.957  1.00  0.00     0.165 C 
ENDROOT
BRANCH   1   2
HETATM    2  C   UNL     1      42.210 -17.581   3.660  1.00  0.00    -0.007 A 
HETATM    3  C   UNL     1      43.049 -18.139   4.643  1.00  0.00     0.077 A 
HETATM    4  C   UNL     1      43.896 -19.206   4.310  1.00  0.00     0.044 A 
HETATM    5  C   UNL     1      43.945 -19.709   3.003  1.00  0.00    -0.059 A 
HETATM    6  C   UNL     1      44.838 -20.863   2.654  1.00  0.00     0.048 C 
HETATM    7  C   UNL     1      43.111 -19.154   2.030  1.00  0.00     0.007 A 
HETATM    8  C   UNL     1      42.252 -18.105   2.357  1.00  0.00     0.012 A 
BRANCH   3   9
HETATM    9  O   UNL     1      42.961 -17.591   5.900  1.00  0.00    -0.350 OA
BRANCH   9  10
HETATM   10  C   UNL     1      44.141 -16.972   6.417  1.00  0.00     0.180 C 
BRANCH  10  11
HETATM   11  C   UNL     1      43.772 -15.593   6.873  1.00  0.00     0.010 A 
HETATM   12  C   UNL     1      44.808 -14.498   6.892  1.00  0.00     0.007 A 
HETATM   13  C   UNL     1      43.689 -14.454   5.889  1.00  0.00     0.007 A 
ENDBRANCH  10  11
ENDBRANCH   9  10
ENDBRANCH   3   9
ENDBRANCH   1   2
BRANCH   1  14
HETATM   14  N   UNL     1      40.208 -16.332   2.926  1.00  0.00    -0.339 N 
HETATM   15  C   UNL     1      39.972 -15.099   2.365  1.00  0.00     0.321 C 
HETATM   16  N   UNL     1      39.132 -15.191   1.279  1.00  0.00    -0.307 N 
HETATM   17  O   UNL     1      40.458 -14.070   2.816  1.00  0.00    -0.247 OA
HETATM   18  H   UNL     1      38.923 -16.126   0.970  1.00  0.00     0.170 HD
HETATM   19  H   UNL     1      40.064 -17.158   2.361  1.00  0.00     0.164 HD
BRANCH  16  20
HETATM   20  C   UNL     1      38.597 -14.122   0.524  1.00  0.00     0.059 A 
HETATM   21  C   UNL     1      39.159 -13.806  -0.727  1.00  0.00    -0.032 A 
HETATM   22  C   UNL     1      40.350 -14.532  -1.285  1.00  0.00     0.050 C 
HETATM   23  C   UNL     1      38.596 -12.764  -1.480  1.00  0.00     0.028 A 
HETATM   24  C   UNL     1      37.509 -12.074  -0.970  1.00  0.00     0.117 A 
HETATM   25  N   UNL     1      36.950 -12.345   0.222  1.00  0.00    -0.271 NA
HETATM   26  C   UNL     1      37.504 -13.357   0.940  1.00  0.00     0.146 A 
ENDBRANCH  16  20
ENDBRANCH   1  14
TORSDOF 6
ENDMDL
MODEL 7
REMARK VINA RESULT:      -7.0      3.357      5.543
REMARK  6 active torsions:
REMARK  status: ('A' for Active; 'I' for Inactive)
REMARK    1  A    between atoms: C_4  and  O_5 
REMARK    2  A    between atoms: O_5  and  C_6 
REMARK    3  A    between atoms: C_6  and  C_7 
REMARK    4  A    between atoms: C_10  and  C_11 
REMARK    5  A    between atoms: C_11  and  N_12 
REMARK       I    between atoms: N_12  and  C_13 
REMARK       I    between atoms: C_13  and  N_14 
REMARK    6  A    between atoms: N_14  and  C_15 
ROOT
HETATM    1  C   UNL     1      41.068 -16.839   3.029  1.00  0.00     0.165 C 
ENDROOT
BRANCH   1   2
HETATM    2  C   UNL     1      41.967 -16.304   4.121  1.00  0.00    -0.007 A 
HETATM    3  C   UNL     1      42.768 -17.132   4.930  1.00  0.00     0.077 A 
HETATM    4  C   UNL     1      43.635 -16.557   5.871  1.00  0.00     0.044 A 
HETATM    5  C   UNL     1      43.698 -15.168   6.041  1.00  0.00    -0.059 A 
HETATM    6  C   UNL     1      44.641 -14.555   7.034  1.00  0.00     0.048 C 
HETATM    7  C   UNL     1      42.904 -14.349   5.237  1.00  0.00     0.007 A 
HETATM    8  C   UNL     1      42.052 -14.910   4.286  1.00  0.00     0.012 A 
BRANCH   3   9
HETATM    9  O   UNL     1      42.647 -18.485   4.721  1.00  0.00    -0.350 OA
BRANCH   9  10
HETATM   10  C   UNL     1      43.860 -19.225   4.573  1.00  0.00     0.180 C 
BRANCH  10  11
HETATM   11  C   UNL     1      44.175 -19.299   3.109  1.00  0.00     0.010 A 
HETATM   12  C   UNL     1      44.425 -20.634   2.454  1.00  0.00     0.007 A 
HETATM   13  C   UNL     1      43.173 -19.864   2.135  1.00  0.00     0.007 A 
ENDBRANCH  10  11
ENDBRANCH   9  10
ENDBRANCH   3   9
ENDBRANCH   1   2
BRANCH   1  14
HETATM   14  N   UNL     1      41.601 -16.637   1.700  1.00  0.00    -0.339 N 
HETATM   15  C   UNL     1      40.978 -15.776   0.827  1.00  0.00     0.321 C 
HETATM   16  N   UNL     1      41.735 -15.571  -0.304  1.00  0.00    -0.307 N 
HETATM   17  O   UNL     1      39.880 -15.286   1.060  1.00  0.00    -0.247 OA
HETATM   18  H   UNL     1      42.665 -15.953  -0.279  1.00  0.00     0.170 HD
HETATM   19  H   UNL     1      42.601 -16.758   1.631  1.00  0.00     0.164 HD
BRANCH  16  20
HETATM   20  C   UNL     1      41.366 -14.830  -1.451  1.00  0.00     0.059 A 
HETATM   21  C   UNL     1      41.528 -13.431  -1.455  1.00  0.00    -0.032 A 
HETATM   22  C   UNL     1      42.035 -12.672  -0.262  1.00  0.00     0.050 C 
HETATM   23  C   UNL     1      41.189 -12.713  -2.612  1.00  0.00     0.028 A 
HETATM   24  C   UNL     1      40.703 -13.398  -3.714  1.00  0.00     0.117 A 
HETATM   25  N   UNL     1      40.533 -14.731  -3.744  1.00  0.00    -0.271 NA
HETATM   26  C   UNL     1      40.864 -15.414  -2.617  1.00  0.00     0.146 A 
ENDBRANCH  16  20
ENDBRANCH   1  14
TORSDOF 6
ENDMDL
MODEL 8
REMARK VINA RESULT:      -6.9      2.895      4.908
REMARK  6 active torsions:
REMARK  status: ('A' for Active; 'I' for Inactive)
REMARK    1  A    between atoms: C_4  and  O_5 
REMARK    2  A    between atoms: O_5  and  C_6 
REMARK    3  A    between atoms: C_6  and  C_7 
REMARK    4  A    between atoms: C_10  and  C_11 
REMARK    5  A    between atoms: C_11  and  N_12 
REMARK       I    between atoms: N_12  and  C_13 
REMARK       I    between atoms: C_13  and  N_14 
REMARK    6  A    between atoms: N_14  and  C_15 
ROOT
HETATM    1  C   UNL     1      43.136 -15.387   2.592  1.00  0.00     0.165 C 
ENDROOT
BRANCH   1   2
HETATM    2  C   UNL     1      43.194 -16.267   3.820  1.00  0.00    -0.007 A 
HETATM    3  C   UNL     1      43.487 -17.642   3.765  1.00  0.00     0.077 A 
HETATM    4  C   UNL     1      43.599 -18.377   4.955  1.00  0.00     0.044 A 
HETATM    5  C   UNL     1      43.394 -17.771   6.201  1.00  0.00    -0.059 A 
HETATM    6  C   UNL     1      43.535 -18.556   7.472  1.00  0.00     0.048 C 
HETATM    7  C   UNL     1      43.105 -16.407   6.253  1.00  0.00     0.007 A 
HETATM    8  C   UNL     1      43.009 -15.663   5.077  1.00  0.00     0.012 A 
BRANCH   3   9
HETATM    9  O   UNL     1      43.662 -18.177   2.512  1.00  0.00    -0.350 OA
BRANCH   9  10
HETATM   10  C   UNL     1      43.089 -19.464   2.274  1.00  0.00     0.180 C 
BRANCH  10  11
HETATM   11  C   UNL     1      44.213 -20.432   2.060  1.00  0.00     0.010 A 
HETATM   12  C   UNL     1      44.368 -21.626   2.968  1.00  0.00     0.007 A 
HETATM   13  C   UNL     1      43.942 -21.821   1.540  1.00  0.00     0.007 A 
ENDBRANCH  10  11
ENDBRANCH   9  10
ENDBRANCH   3   9
ENDBRANCH   1   2
BRANCH   1  14
HETATM   14  N   UNL     1      41.970 -15.627   1.771  1.00  0.00    -0.339 N 
HETATM   15  C   UNL     1      41.551 -14.679   0.867  1.00  0.00     0.321 C 
HETATM   16  N   UNL     1      40.555 -15.166   0.051  1.00  0.00    -0.307 N 
HETATM   17  O   UNL     1      42.023 -13.550   0.835  1.00  0.00    -0.247 OA
HETATM   18  H   UNL     1      40.372 -16.153   0.132  1.00  0.00     0.170 HD
HETATM   19  H   UNL     1      41.801 -16.602   1.565  1.00  0.00     0.164 HD
BRANCH  16  20
HETATM   20  C   UNL     1      39.823 -14.445  -0.920  1.00  0.00     0.059 A 
HETATM   21  C   UNL     1      38.582 -13.876  -0.572  1.00  0.00    -0.032 A 
HETATM   22  C   UNL     1      37.968 -14.044   0.788  1.00  0.00     0.050 C 
HETATM   23  C   UNL     1      37.883 -13.135  -1.537  1.00  0.00     0.028 A 
HETATM   24  C   UNL     1      38.429 -12.987  -2.801  1.00  0.00     0.117 A 
HETATM   25  N   UNL     1      39.607 -13.519  -3.169  1.00  0.00    -0.271 NA
HETATM   26  C   UNL     1      40.274 -14.235  -2.225  1.00  0.00     0.146 A 
ENDBRANCH  16  20
ENDBRANCH   1  14
TORSDOF 6
ENDMDL
MODEL 9
REMARK VINA RESULT:      -6.8      3.895      5.002
REMARK  6 active torsions:
REMARK  status: ('A' for Active; 'I' for Inactive)
REMARK    1  A    between atoms: C_4  and  O_5 
REMARK    2  A    between atoms: O_5  and  C_6 
REMARK    3  A    between atoms: C_6  and  C_7 
REMARK    4  A    between atoms: C_10  and  C_11 
REMARK    5  A    between atoms: C_11  and  N_12 
REMARK       I    between atoms: N_12  and  C_13 
REMARK       I    between atoms: C_13  and  N_14 
REMARK    6  A    between atoms: N_14  and  C_15 
ROOT
HETATM    1  C   UNL     1      40.718 -16.855   1.761  1.00  0.00     0.165 C 
ENDROOT
BRANCH   1   2
HETATM    2  C   UNL     1      41.812 -17.604   2.488  1.00  0.00    -0.007 A 
HETATM    3  C   UNL     1      41.976 -17.557   3.886  1.00  0.00     0.077 A 
HETATM    4  C   UNL     1      42.966 -18.340   4.497  1.00  0.00     0.044 A 
HETATM    5  C   UNL     1      43.818 -19.150   3.736  1.00  0.00    -0.059 A 
HETATM    6  C   UNL     1      44.863 -20.002   4.394  1.00  0.00     0.048 C 
HETATM    7  C   UNL     1      43.654 -19.196   2.350  1.00  0.00     0.007 A 
HETATM    8  C   UNL     1      42.660 -18.435   1.735  1.00  0.00     0.012 A 
BRANCH   3   9
HETATM    9  O   UNL     1      41.116 -16.732   4.571  1.00  0.00    -0.350 OA
BRANCH   9  10
HETATM   10  C   UNL     1      41.704 -15.798   5.477  1.00  0.00     0.180 C 
BRANCH  10  11
HETATM   11  C   UNL     1      42.318 -14.698   4.666  1.00  0.00     0.010 A 
HETATM   12  C   UNL     1      42.408 -13.301   5.228  1.00  0.00     0.007 A 
HETATM   13  C   UNL     1      43.657 -14.118   5.047  1.00  0.00     0.007 A 
ENDBRANCH  10  11
ENDBRANCH   9  10
ENDBRANCH   3   9
ENDBRANCH   1   2
BRANCH   1  14
HETATM   14  N   UNL     1      41.061 -16.526   0.396  1.00  0.00    -0.339 N 
HETATM   15  C   UNL     1      41.048 -15.217  -0.027  1.00  0.00     0.321 C 
HETATM   16  N   UNL     1      41.586 -15.089  -1.287  1.00  0.00    -0.307 N 
HETATM   17  O   UNL     1      40.592 -14.311   0.660  1.00  0.00    -0.247 OA
HETATM   18  H   UNL     1      42.025 -15.915  -1.657  1.00  0.00     0.170 HD
HETATM   19  H   UNL     1      41.711 -17.168  -0.036  1.00  0.00     0.164 HD
BRANCH  16  20
HETATM   20  C   UNL     1      41.644 -13.914  -2.072  1.00  0.00     0.059 A 
HETATM   21  C   UNL     1      40.744 -13.750  -3.143  1.00  0.00    -0.032 A 
HETATM   22  C   UNL     1      39.744 -14.803  -3.528  1.00  0.00     0.050 C 
HETATM   23  C   UNL     1      40.791 -12.564  -3.891  1.00  0.00     0.028 A 
HETATM   24  C   UNL     1      41.720 -11.592  -3.559  1.00  0.00     0.117 A 
HETATM   25  N   UNL     1      42.596 -11.716  -2.547  1.00  0.00    -0.271 NA
HETATM   26  C   UNL     1      42.540 -12.870  -1.830  1.00  0.00     0.146 A 
ENDBRANCH  16  20
ENDBRANCH   1  14
TORSDOF 6
ENDMDL
MODEL 10
REMARK VINA RESULT:      -6.7      2.236      7.829
REMARK  6 active torsions:
REMARK  status: ('A' for Active; 'I' for Inactive)
REMARK    1  A    between atoms: C_4  and  O_5 
REMARK    2  A    between atoms: O_5  and  C_6 
REMARK    3  A    between atoms: C_6  and  C_7 
REMARK    4  A    between atoms: C_10  and  C_11 
REMARK    5  A    between atoms: C_11  and  N_12 
REMARK       I    between atoms: N_12  and  C_13 
REMARK       I    between atoms: C_13  and  N_14 
REMARK    6  A    between atoms: N_14  and  C_15 
ROOT
HETATM    1  C   UNL     1      42.428 -15.528   6.023  1.00  0.00     0.165 C 
ENDROOT
BRANCH   1   2
HETATM    2  C   UNL     1      41.905 -14.337   5.252  1.00  0.00    -0.007 A 
HETATM    3  C   UNL     1      41.117 -14.462   4.092  1.00  0.00     0.077 A 
HETATM    4  C   UNL     1      40.602 -13.312   3.475  1.00  0.00     0.044 A 
HETATM    5  C   UNL     1      40.883 -12.035   3.978  1.00  0.00    -0.059 A 
HETATM    6  C   UNL     1      40.314 -10.808   3.327  1.00  0.00     0.048 C 
HETATM    7  C   UNL     1      41.663 -11.915   5.129  1.00  0.00     0.007 A 
HETATM    8  C   UNL     1      42.164 -13.053   5.760  1.00  0.00     0.012 A 
BRANCH   3   9
HETATM    9  O   UNL     1      40.891 -15.741   3.644  1.00  0.00    -0.350 OA
BRANCH   9  10
HETATM   10  C   UNL     1      40.410 -15.880   2.307  1.00  0.00     0.180 C 
BRANCH  10  11
HETATM   11  C   UNL     1      41.595 -15.864   1.390  1.00  0.00     0.010 A 
HETATM   12  C   UNL     1      41.478 -16.412  -0.010  1.00  0.00     0.007 A 
HETATM   13  C   UNL     1      41.636 -14.933   0.205  1.00  0.00     0.007 A 
ENDBRANCH  10  11
ENDBRANCH   9  10
ENDBRANCH   3   9
ENDBRANCH   1   2
BRANCH   1  14
HETATM   14  N   UNL     1      43.367 -16.329   5.269  1.00  0.00    -0.339 N 
HETATM   15  C   UNL     1      43.186 -17.688   5.156  1.00  0.00     0.321 C 
HETATM   16  N   UNL     1      44.062 -18.240   4.249  1.00  0.00    -0.307 N 
HETATM   17  O   UNL     1      42.348 -18.294   5.812  1.00  0.00    -0.247 OA
HETATM   18  H   UNL     1      44.600 -17.581   3.710  1.00  0.00     0.170 HD
HETATM   19  H   UNL     1      43.819 -15.836   4.512  1.00  0.00     0.164 HD
BRANCH  16  20
HETATM   20  C   UNL     1      44.228 -19.613   3.955  1.00  0.00     0.059 A 
HETATM   21  C   UNL     1      43.896 -20.093   2.674  1.00  0.00    -0.032 A 
HETATM   22  C   UNL     1      43.317 -19.211   1.604  1.00  0.00     0.050 C 
HETATM   23  C   UNL     1      44.098 -21.451   2.386  1.00  0.00     0.028 A 
HETATM   24  C   UNL     1      44.614 -22.281   3.368  1.00  0.00     0.117 A 
HETATM   25  N   UNL     1      44.938 -21.857   4.602  1.00  0.00    -0.271 NA
HETATM   26  C   UNL     1      44.737 -20.540   4.868  1.00  0.00     0.146 A 
ENDBRANCH  16  20
ENDBRANCH   1  14
TORSDOF 6
ENDMDL
