MODEL 1
REMARK VINA RESULT:      -8.9      0.000      0.000
REMARK  7 active torsions:
REMARK  status: ('A' for Active; 'I' for Inactive)
REMARK    1  A    between atoms: C_2  and  N_3 
REMARK    2  A    between atoms: C_2  and  C_25 
REMARK       I    between atoms: N_3  and  C_4 
REMARK    3  A    between atoms: C_4  and  C_5 
REMARK    4  A    between atoms: C_8  and  C_9 
REMARK       I    between atoms: C_9  and  N_10 
REMARK    5  A    between atoms: N_10  and  C_11 
REMARK    6  A    between atoms: N_19  and  C_20 
REMARK    7  A    between atoms: C_33  and  O_34 
ROOT
HETATM    1  C   UNL     1      42.384 -13.217   5.754  1.00  0.00     0.098 A 
HETATM    2  C   UNL     1      41.645 -13.410   4.468  1.00  0.00     0.206 A 
HETATM    3  O   UNL     1      41.907 -14.363   3.731  1.00  0.00    -0.286 OA
HETATM    4  C   UNL     1      40.574 -12.437   4.099  1.00  0.00     0.098 A 
HETATM    5  C   UNL     1      40.370 -11.414   4.947  1.00  0.00     0.112 A 
HETATM    6  N   UNL     1      41.093 -11.221   6.108  1.00  0.00    -0.360 N 
HETATM    7  C   UNL     1      42.046 -12.145   6.491  1.00  0.00     0.112 A 
ENDROOT
BRANCH   1   8
HETATM    8  C   UNL     1      43.456 -14.129   6.250  1.00  0.00     0.257 C 
HETATM    9  N   UNL     1      43.017 -15.367   6.628  1.00  0.00    -0.348 N 
HETATM   10  H   UNL     1      42.020 -15.566   6.555  1.00  0.00     0.163 HD
HETATM   11  O   UNL     1      44.632 -13.785   6.299  1.00  0.00    -0.267 OA
BRANCH   9  12
HETATM   12  C   UNL     1      43.872 -16.432   7.120  1.00  0.00     0.114 C 
HETATM   13  C   UNL     1      43.305 -17.058   8.394  1.00  0.00     0.037 C 
BRANCH  12  14
HETATM   14  C   UNL     1      44.056 -17.456   6.011  1.00  0.00    -0.035 A 
HETATM   15  C   UNL     1      44.390 -18.793   6.301  1.00  0.00     0.021 A 
HETATM   16  C   UNL     1      44.454 -19.768   5.293  1.00  0.00    -0.025 A 
HETATM   17  C   UNL     1      44.199 -19.398   3.957  1.00  0.00    -0.023 A 
HETATM   18  C   UNL     1      44.748 -21.108   5.589  1.00  0.00     0.015 A 
HETATM   19  C   UNL     1      43.892 -18.060   3.664  1.00  0.00     0.013 A 
HETATM   20  C   UNL     1      44.244 -20.381   2.955  1.00  0.00     0.049 A 
HETATM   21  C   UNL     1      43.815 -17.103   4.679  1.00  0.00     0.010 A 
HETATM   22  C   UNL     1      44.525 -21.717   3.259  1.00  0.00     0.069 A 
HETATM   23  C   UNL     1      44.781 -22.076   4.580  1.00  0.00     0.037 A 
BRANCH  22  24
HETATM   24  O   UNL     1      44.518 -22.562   2.183  1.00  0.00    -0.356 OA
HETATM   25  C   UNL     1      43.898 -22.085   0.996  1.00  0.00     0.210 C 
ENDBRANCH  22  24
ENDBRANCH  12  14
ENDBRANCH   9  12
ENDBRANCH   1   8
BRANCH   4  26
HETATM   26  C   UNL     1      39.733 -12.541   2.872  1.00  0.00     0.257 C 
HETATM   27  N   UNL     1      40.381 -13.029   1.764  1.00  0.00    -0.352 N 
HETATM   28  H   UNL     1      41.389 -13.173   1.835  1.00  0.00     0.163 HD
HETATM   29  O   UNL     1      38.551 -12.211   2.870  1.00  0.00    -0.267 OA
BRANCH  27  30
HETATM   30  C   UNL     1      39.779 -13.089   0.440  1.00  0.00     0.084 C 
HETATM   31  C   UNL     1      40.207 -11.886  -0.413  1.00  0.00     0.025 C 
HETATM   32  C   UNL     1      41.676 -11.960  -0.832  1.00  0.00     0.002 C 
HETATM   33  C   UNL     1      41.997 -13.275  -1.535  1.00  0.00     0.000 C 
HETATM   34  C   UNL     1      41.602 -14.481  -0.690  1.00  0.00     0.002 C 
HETATM   35  C   UNL     1      40.137 -14.412  -0.252  1.00  0.00     0.025 C 
ENDBRANCH  27  30
ENDBRANCH   4  26
BRANCH   6  36
HETATM   36  C   UNL     1      40.699 -10.152   7.035  1.00  0.00     0.089 A 
HETATM   37  C   UNL     1      39.475  -9.304   6.804  1.00  0.00     0.028 A 
HETATM   38  C   UNL     1      39.494 -10.292   7.930  1.00  0.00     0.028 A 
ENDBRANCH   6  36
TORSDOF 7
ENDMDL
MODEL 2
REMARK VINA RESULT:      -8.9      3.418      8.510
REMARK  7 active torsions:
REMARK  status: ('A' for Active; 'I' for Inactive)
REMARK    1  A    between atoms: C_2  and  N_3 
REMARK    2  A    between atoms: C_2  and  C_25 
REMARK       I    between atoms: N_3  and  C_4 
REMARK    3  A    between atoms: C_4  and  C_5 
REMARK    4  A    between atoms: C_8  and  C_9 
REMARK       I    between atoms: C_9  and  N_10 
REMARK    5  A    between atoms: N_10  and  C_11 
REMARK    6  A    between atoms: N_19  and  C_20 
REMARK    7  A    between atoms: C_33  and  O_34 
ROOT
HETATM    1  C   UNL     1      43.512 -15.140   5.603  1.00  0.00     0.098 A 
HETATM    2  C   UNL     1      43.075 -14.115   4.606  1.00  0.00     0.206 A 
HETATM    3  O   UNL     1      43.181 -12.912   4.854  1.00  0.00    -0.286 OA
HETATM    4  C   UNL     1      42.521 -14.573   3.296  1.00  0.00     0.098 A 
HETATM    5  C   UNL     1      42.418 -15.901   3.117  1.00  0.00     0.112 A 
HETATM    6  N   UNL     1      42.780 -16.836   4.067  1.00  0.00    -0.360 N 
HETATM    7  C   UNL     1      43.348 -16.429   5.258  1.00  0.00     0.112 A 
ENDROOT
BRANCH   1   8
HETATM    8  C   UNL     1      44.104 -14.815   6.934  1.00  0.00     0.257 C 
HETATM    9  N   UNL     1      44.730 -13.601   6.995  1.00  0.00    -0.348 N 
HETATM   10  H   UNL     1      44.754 -13.031   6.151  1.00  0.00     0.163 HD
HETATM   11  O   UNL     1      44.019 -15.581   7.889  1.00  0.00    -0.267 OA
BRANCH   9  12
HETATM   12  C   UNL     1      45.359 -13.056   8.184  1.00  0.00     0.114 C 
HETATM   13  C   UNL     1      46.674 -12.354   7.846  1.00  0.00     0.037 C 
BRANCH  12  14
HETATM   14  C   UNL     1      44.371 -12.123   8.869  1.00  0.00    -0.035 A 
HETATM   15  C   UNL     1      44.574 -11.694  10.195  1.00  0.00     0.021 A 
HETATM   16  C   UNL     1      43.728 -10.749  10.797  1.00  0.00    -0.025 A 
HETATM   17  C   UNL     1      42.639 -10.233  10.065  1.00  0.00    -0.023 A 
HETATM   18  C   UNL     1      43.953 -10.293  12.104  1.00  0.00     0.015 A 
HETATM   19  C   UNL     1      42.421 -10.680   8.753  1.00  0.00     0.013 A 
HETATM   20  C   UNL     1      41.807  -9.272  10.665  1.00  0.00     0.049 A 
HETATM   21  C   UNL     1      43.281 -11.608   8.160  1.00  0.00     0.010 A 
HETATM   22  C   UNL     1      42.046  -8.813  11.964  1.00  0.00     0.069 A 
HETATM   23  C   UNL     1      43.120  -9.330  12.684  1.00  0.00     0.037 A 
BRANCH  22  24
HETATM   24  O   UNL     1      41.163  -7.866  12.406  1.00  0.00    -0.356 OA
HETATM   25  C   UNL     1      40.987  -7.759  13.813  1.00  0.00     0.210 C 
ENDBRANCH  22  24
ENDBRANCH  12  14
ENDBRANCH   9  12
ENDBRANCH   1   8
BRANCH   4  26
HETATM   26  C   UNL     1      42.094 -13.658   2.200  1.00  0.00     0.257 C 
HETATM   27  N   UNL     1      40.833 -13.891   1.708  1.00  0.00    -0.352 N 
HETATM   28  H   UNL     1      40.343 -14.720   2.044  1.00  0.00     0.163 HD
HETATM   29  O   UNL     1      42.827 -12.767   1.780  1.00  0.00    -0.267 OA
BRANCH  27  30
HETATM   30  C   UNL     1      40.277 -13.196   0.555  1.00  0.00     0.084 C 
HETATM   31  C   UNL     1      39.185 -14.038  -0.119  1.00  0.00     0.025 C 
HETATM   32  C   UNL     1      37.912 -14.128   0.722  1.00  0.00     0.002 C 
HETATM   33  C   UNL     1      37.387 -12.746   1.101  1.00  0.00     0.000 C 
HETATM   34  C   UNL     1      38.452 -11.905   1.796  1.00  0.00     0.002 C 
HETATM   35  C   UNL     1      39.737 -11.820   0.969  1.00  0.00     0.025 C 
ENDBRANCH  27  30
ENDBRANCH   4  26
BRANCH   6  36
HETATM   36  C   UNL     1      42.758 -18.264   3.720  1.00  0.00     0.089 A 
HETATM   37  C   UNL     1      42.864 -18.743   2.296  1.00  0.00     0.028 A 
HETATM   38  C   UNL     1      43.998 -18.977   3.246  1.00  0.00     0.028 A 
ENDBRANCH   6  36
TORSDOF 7
ENDMDL
MODEL 3
REMARK VINA RESULT:      -8.8      2.757      6.324
REMARK  7 active torsions:
REMARK  status: ('A' for Active; 'I' for Inactive)
REMARK    1  A    between atoms: C_2  and  N_3 
REMARK    2  A    between atoms: C_2  and  C_25 
REMARK       I    between atoms: N_3  and  C_4 
REMARK    3  A    between atoms: C_4  and  C_5 
REMARK    4  A    between atoms: C_8  and  C_9 
REMARK       I    between atoms: C_9  and  N_10 
REMARK    5  A    between atoms: N_10  and  C_11 
REMARK    6  A    between atoms: N_19  and  C_20 
REMARK    7  A    between atoms: C_33  and  O_34 
ROOT
HETATM    1  C   UNL     1      41.302 -13.070   5.101  1.00  0.00     0.098 A 
HETATM    2  C   UNL     1      42.412 -13.370   6.057  1.00  0.00     0.206 A 
HETATM    3  O   UNL     1      43.006 -14.450   6.011  1.00  0.00    -0.286 OA
HETATM    4  C   UNL     1      42.801 -12.333   7.059  1.00  0.00     0.098 A 
HETATM    5  C   UNL     1      42.086 -11.194   7.056  1.00  0.00     0.112 A 
HETATM    6  N   UNL     1      41.031 -10.950   6.199  1.00  0.00    -0.360 N 
HETATM    7  C   UNL     1      40.699 -11.875   5.229  1.00  0.00     0.112 A 
ENDROOT
BRANCH   1   8
HETATM    8  C   UNL     1      40.835 -14.008   4.038  1.00  0.00     0.257 C 
HETATM    9  N   UNL     1      41.820 -14.451   3.200  1.00  0.00    -0.348 N 
HETATM   10  H   UNL     1      42.768 -14.111   3.352  1.00  0.00     0.163 HD
HETATM   11  O   UNL     1      39.661 -14.352   3.943  1.00  0.00    -0.267 OA
BRANCH   9  12
HETATM   12  C   UNL     1      41.616 -15.385   2.108  1.00  0.00     0.114 C 
HETATM   13  C   UNL     1      42.024 -14.772   0.768  1.00  0.00     0.037 C 
BRANCH  12  14
HETATM   14  C   UNL     1      42.386 -16.661   2.412  1.00  0.00    -0.035 A 
HETATM   15  C   UNL     1      42.992 -16.864   3.667  1.00  0.00     0.021 A 
HETATM   16  C   UNL     1      43.610 -18.082   3.994  1.00  0.00    -0.025 A 
HETATM   17  C   UNL     1      43.644 -19.117   3.038  1.00  0.00    -0.023 A 
HETATM   18  C   UNL     1      44.180 -18.297   5.258  1.00  0.00     0.015 A 
HETATM   19  C   UNL     1      43.064 -18.905   1.778  1.00  0.00     0.013 A 
HETATM   20  C   UNL     1      44.246 -20.341   3.377  1.00  0.00     0.049 A 
HETATM   21  C   UNL     1      42.436 -17.695   1.471  1.00  0.00     0.010 A 
HETATM   22  C   UNL     1      44.799 -20.553   4.643  1.00  0.00     0.069 A 
HETATM   23  C   UNL     1      44.768 -19.524   5.582  1.00  0.00     0.037 A 
BRANCH  22  24
HETATM   24  O   UNL     1      45.333 -21.798   4.833  1.00  0.00    -0.356 OA
HETATM   25  C   UNL     1      44.755 -22.864   4.091  1.00  0.00     0.210 C 
ENDBRANCH  22  24
ENDBRANCH  12  14
ENDBRANCH   9  12
ENDBRANCH   1   8
BRANCH   4  26
HETATM   26  C   UNL     1      43.917 -12.486   8.034  1.00  0.00     0.257 C 
HETATM   27  N   UNL     1      43.628 -12.084   9.315  1.00  0.00    -0.352 N 
HETATM   28  H   UNL     1      42.732 -11.621   9.472  1.00  0.00     0.163 HD
HETATM   29  O   UNL     1      45.009 -12.939   7.702  1.00  0.00    -0.267 OA
BRANCH  27  30
HETATM   30  C   UNL     1      44.614 -12.032  10.386  1.00  0.00     0.084 C 
HETATM   31  C   UNL     1      45.073 -10.589  10.639  1.00  0.00     0.025 C 
HETATM   32  C   UNL     1      43.987  -9.735  11.294  1.00  0.00     0.002 C 
HETATM   33  C   UNL     1      43.460 -10.378  12.574  1.00  0.00     0.000 C 
HETATM   34  C   UNL     1      42.975 -11.804  12.335  1.00  0.00     0.002 C 
HETATM   35  C   UNL     1      44.050 -12.664  11.666  1.00  0.00     0.025 C 
ENDBRANCH  27  30
ENDBRANCH   4  26
BRANCH   6  36
HETATM   36  C   UNL     1      40.405  -9.621   6.184  1.00  0.00     0.089 A 
HETATM   37  C   UNL     1      39.045  -9.384   5.580  1.00  0.00     0.028 A 
HETATM   38  C   UNL     1      39.226  -9.297   7.065  1.00  0.00     0.028 A 
ENDBRANCH   6  36
TORSDOF 7
ENDMDL
MODEL 4
REMARK VINA RESULT:      -8.8      2.911      8.620
REMARK  7 active torsions:
REMARK  status: ('A' for Active; 'I' for Inactive)
REMARK    1  A    between atoms: C_2  and  N_3 
REMARK    2  A    between atoms: C_2  and  C_25 
REMARK       I    between atoms: N_3  and  C_4 
REMARK    3  A    between atoms: C_4  and  C_5 
REMARK    4  A    between atoms: C_8  and  C_9 
REMARK       I    between atoms: C_9  and  N_10 
REMARK    5  A    between atoms: N_10  and  C_11 
REMARK    6  A    between atoms: N_19  and  C_20 
REMARK    7  A    between atoms: C_33  and  O_34 
ROOT
HETATM    1  C   UNL     1      41.786 -14.363   5.434  1.00  0.00     0.098 A 
HETATM    2  C   UNL     1      42.724 -13.506   6.224  1.00  0.00     0.206 A 
HETATM    3  O   UNL     1      42.438 -12.334   6.480  1.00  0.00    -0.286 OA
HETATM    4  C   UNL     1      44.006 -14.098   6.710  1.00  0.00     0.098 A 
HETATM    5  C   UNL     1      44.249 -15.374   6.366  1.00  0.00     0.112 A 
HETATM    6  N   UNL     1      43.397 -16.139   5.594  1.00  0.00    -0.360 N 
HETATM    7  C   UNL     1      42.182 -15.623   5.188  1.00  0.00     0.112 A 
ENDROOT
BRANCH   1   8
HETATM    8  C   UNL     1      40.466 -13.901   4.913  1.00  0.00     0.257 C 
HETATM    9  N   UNL     1      40.535 -12.839   4.056  1.00  0.00    -0.348 N 
HETATM   10  H   UNL     1      41.453 -12.446   3.852  1.00  0.00     0.163 HD
HETATM   11  O   UNL     1      39.414 -14.447   5.229  1.00  0.00    -0.267 OA
BRANCH   9  12
HETATM   12  C   UNL     1      39.391 -12.228   3.404  1.00  0.00     0.114 C 
HETATM   13  C   UNL     1      39.444 -10.704   3.498  1.00  0.00     0.037 C 
BRANCH  12  14
HETATM   14  C   UNL     1      39.342 -12.712   1.963  1.00  0.00    -0.035 A 
HETATM   15  C   UNL     1      40.510 -12.797   1.182  1.00  0.00     0.021 A 
HETATM   16  C   UNL     1      40.491 -13.345  -0.111  1.00  0.00    -0.025 A 
HETATM   17  C   UNL     1      39.270 -13.801  -0.648  1.00  0.00    -0.023 A 
HETATM   18  C   UNL     1      41.663 -13.465  -0.872  1.00  0.00     0.015 A 
HETATM   19  C   UNL     1      38.100 -13.692   0.119  1.00  0.00     0.013 A 
HETATM   20  C   UNL     1      39.259 -14.367  -1.934  1.00  0.00     0.049 A 
HETATM   21  C   UNL     1      38.137 -13.161   1.411  1.00  0.00     0.010 A 
HETATM   22  C   UNL     1      40.434 -14.496  -2.682  1.00  0.00     0.069 A 
HETATM   23  C   UNL     1      41.636 -14.038  -2.148  1.00  0.00     0.037 A 
BRANCH  22  24
HETATM   24  O   UNL     1      40.269 -15.081  -3.908  1.00  0.00    -0.356 OA
HETATM   25  C   UNL     1      39.085 -15.843  -4.102  1.00  0.00     0.210 C 
ENDBRANCH  22  24
ENDBRANCH  12  14
ENDBRANCH   9  12
ENDBRANCH   1   8
BRANCH   4  26
HETATM   26  C   UNL     1      45.003 -13.368   7.545  1.00  0.00     0.257 C 
HETATM   27  N   UNL     1      44.539 -12.945   8.766  1.00  0.00    -0.352 N 
HETATM   28  H   UNL     1      43.544 -13.061   8.956  1.00  0.00     0.163 HD
HETATM   29  O   UNL     1      46.150 -13.169   7.154  1.00  0.00    -0.267 OA
BRANCH  27  30
HETATM   30  C   UNL     1      45.310 -12.108   9.674  1.00  0.00     0.084 C 
HETATM   31  C   UNL     1      44.847 -10.646   9.601  1.00  0.00     0.025 C 
HETATM   32  C   UNL     1      43.466 -10.438  10.223  1.00  0.00     0.002 C 
HETATM   33  C   UNL     1      43.407 -10.963  11.655  1.00  0.00     0.000 C 
HETATM   34  C   UNL     1      43.840 -12.422  11.742  1.00  0.00     0.002 C 
HETATM   35  C   UNL     1      45.215 -12.646  11.109  1.00  0.00     0.025 C 
ENDBRANCH  27  30
ENDBRANCH   4  26
BRANCH   6  36
HETATM   36  C   UNL     1      43.690 -17.564   5.391  1.00  0.00     0.089 A 
HETATM   37  C   UNL     1      42.695 -18.502   4.757  1.00  0.00     0.028 A 
HETATM   38  C   UNL     1      43.941 -18.126   4.015  1.00  0.00     0.028 A 
ENDBRANCH   6  36
TORSDOF 7
ENDMDL
MODEL 5
REMARK VINA RESULT:      -8.7      1.781      2.526
REMARK  7 active torsions:
REMARK  status: ('A' for Active; 'I' for Inactive)
REMARK    1  A    between atoms: C_2  and  N_3 
REMARK    2  A    between atoms: C_2  and  C_25 
REMARK       I    between atoms: N_3  and  C_4 
REMARK    3  A    between atoms: C_4  and  C_5 
REMARK    4  A    between atoms: C_8  and  C_9 
REMARK       I    between atoms: C_9  and  N_10 
REMARK    5  A    between atoms: N_10  and  C_11 
REMARK    6  A    between atoms: N_19  and  C_20 
REMARK    7  A    between atoms: C_33  and  O_34 
ROOT
HETATM    1  C   UNL     1      41.508 -13.376   3.490  1.00  0.00     0.098 A 
HETATM    2  C   UNL     1      40.949 -13.879   2.198  1.00  0.00     0.206 A 
HETATM    3  O   UNL     1      41.578 -14.691   1.515  1.00  0.00    -0.286 OA
HETATM    4  C   UNL     1      39.608 -13.394   1.754  1.00  0.00     0.098 A 
HETATM    5  C   UNL     1      39.002 -12.491   2.545  1.00  0.00     0.112 A 
HETATM    6  N   UNL     1      39.552 -11.997   3.712  1.00  0.00    -0.360 N 
HETATM    7  C   UNL     1      40.764 -12.481   4.164  1.00  0.00     0.112 A 
ENDROOT
BRANCH   1   8
HETATM    8  C   UNL     1      42.822 -13.800   4.057  1.00  0.00     0.257 C 
HETATM    9  N   UNL     1      42.731 -14.646   5.127  1.00  0.00    -0.348 N 
HETATM   10  H   UNL     1      41.802 -14.908   5.454  1.00  0.00     0.163 HD
HETATM   11  O   UNL     1      43.888 -13.420   3.585  1.00  0.00    -0.267 OA
BRANCH   9  12
HETATM   12  C   UNL     1      43.867 -15.212   5.831  1.00  0.00     0.114 C 
HETATM   13  C   UNL     1      43.727 -15.040   7.343  1.00  0.00     0.037 C 
BRANCH  12  14
HETATM   14  C   UNL     1      44.006 -16.673   5.431  1.00  0.00    -0.035 A 
HETATM   15  C   UNL     1      43.553 -17.131   4.179  1.00  0.00     0.021 A 
HETATM   16  C   UNL     1      43.774 -18.452   3.758  1.00  0.00    -0.025 A 
HETATM   17  C   UNL     1      44.447 -19.346   4.615  1.00  0.00    -0.023 A 
HETATM   18  C   UNL     1      43.357 -18.897   2.494  1.00  0.00     0.015 A 
HETATM   19  C   UNL     1      44.876 -18.897   5.874  1.00  0.00     0.013 A 
HETATM   20  C   UNL     1      44.685 -20.661   4.181  1.00  0.00     0.049 A 
HETATM   21  C   UNL     1      44.664 -17.574   6.273  1.00  0.00     0.010 A 
HETATM   22  C   UNL     1      44.278 -21.094   2.915  1.00  0.00     0.069 A 
HETATM   23  C   UNL     1      43.608 -20.208   2.074  1.00  0.00     0.037 A 
BRANCH  22  24
HETATM   24  O   UNL     1      44.593 -22.393   2.626  1.00  0.00    -0.356 OA
HETATM   25  C   UNL     1      44.825 -23.259   3.730  1.00  0.00     0.210 C 
ENDBRANCH  22  24
ENDBRANCH  12  14
ENDBRANCH   9  12
ENDBRANCH   1   8
BRANCH   4  26
HETATM   26  C   UNL     1      38.918 -13.851   0.515  1.00  0.00     0.257 C 
HETATM   27  N   UNL     1      39.713 -13.907  -0.604  1.00  0.00    -0.352 N 
HETATM   28  H   UNL     1      40.659 -13.535  -0.527  1.00  0.00     0.163 HD
HETATM   29  O   UNL     1      37.728 -14.151   0.511  1.00  0.00    -0.267 OA
BRANCH  27  30
HETATM   30  C   UNL     1      39.207 -14.204  -1.937  1.00  0.00     0.084 C 
HETATM   31  C   UNL     1      38.824 -12.915  -2.679  1.00  0.00     0.025 C 
HETATM   32  C   UNL     1      40.044 -12.087  -3.082  1.00  0.00     0.002 C 
HETATM   33  C   UNL     1      41.043 -12.910  -3.890  1.00  0.00     0.000 C 
HETATM   34  C   UNL     1      41.455 -14.182  -3.156  1.00  0.00     0.002 C 
HETATM   35  C   UNL     1      40.240 -15.013  -2.735  1.00  0.00     0.025 C 
ENDBRANCH  27  30
ENDBRANCH   4  26
BRANCH   6  36
HETATM   36  C   UNL     1      38.750 -11.120   4.574  1.00  0.00     0.089 A 
HETATM   37  C   UNL     1      39.327 -10.453   5.796  1.00  0.00     0.028 A 
HETATM   38  C   UNL     1      38.966  -9.629   4.598  1.00  0.00     0.028 A 
ENDBRANCH   6  36
TORSDOF 7
ENDMDL
MODEL 6
REMARK VINA RESULT:      -8.7      3.303      7.165
REMARK  7 active torsions:
REMARK  status: ('A' for Active; 'I' for Inactive)
REMARK    1  A    between atoms: C_2  and  N_3 
REMARK    2  A    between atoms: C_2  and  C_25 
REMARK       I    between atoms: N_3  and  C_4 
REMARK    3  A    between atoms: C_4  and  C_5 
REMARK    4  A    between atoms: C_8  and  C_9 
REMARK       I    between atoms: C_9  and  N_10 
REMARK    5  A    between atoms: N_10  and  C_11 
REMARK    6  A    between atoms: N_19  and  C_20 
REMARK    7  A    between atoms: C_33  and  O_34 
ROOT
HETATM    1  C   UNL     1      41.915 -12.434   6.138  1.00  0.00     0.098 A 
HETATM    2  C   UNL     1      41.357 -11.320   6.965  1.00  0.00     0.206 A 
HETATM    3  O   UNL     1      40.273 -10.807   6.678  1.00  0.00    -0.286 OA
HETATM    4  C   UNL     1      42.127 -10.849   8.155  1.00  0.00     0.098 A 
HETATM    5  C   UNL     1      43.310 -11.446   8.382  1.00  0.00     0.112 A 
HETATM    6  N   UNL     1      43.837 -12.440   7.581  1.00  0.00    -0.360 N 
HETATM    7  C   UNL     1      43.109 -12.926   6.512  1.00  0.00     0.112 A 
ENDROOT
BRANCH   1   8
HETATM    8  C   UNL     1      41.235 -13.013   4.943  1.00  0.00     0.257 C 
HETATM    9  N   UNL     1      42.066 -13.276   3.889  1.00  0.00    -0.348 N 
HETATM   10  H   UNL     1      43.055 -13.055   3.992  1.00  0.00     0.163 HD
HETATM   11  O   UNL     1      40.029 -13.238   4.925  1.00  0.00    -0.267 OA
BRANCH   9  12
HETATM   12  C   UNL     1      41.642 -13.860   2.630  1.00  0.00     0.114 C 
HETATM   13  C   UNL     1      41.959 -12.937   1.454  1.00  0.00     0.037 C 
BRANCH  12  14
HETATM   14  C   UNL     1      42.302 -15.223   2.483  1.00  0.00    -0.035 A 
HETATM   15  C   UNL     1      42.795 -15.918   3.603  1.00  0.00     0.021 A 
HETATM   16  C   UNL     1      43.306 -17.221   3.491  1.00  0.00    -0.025 A 
HETATM   17  C   UNL     1      43.345 -17.841   2.226  1.00  0.00    -0.023 A 
HETATM   18  C   UNL     1      43.761 -17.928   4.615  1.00  0.00     0.015 A 
HETATM   19  C   UNL     1      42.878 -17.138   1.104  1.00  0.00     0.013 A 
HETATM   20  C   UNL     1      43.838 -19.152   2.122  1.00  0.00     0.049 A 
HETATM   21  C   UNL     1      42.356 -15.848   1.233  1.00  0.00     0.010 A 
HETATM   22  C   UNL     1      44.277 -19.855   3.248  1.00  0.00     0.069 A 
HETATM   23  C   UNL     1      44.241 -19.236   4.495  1.00  0.00     0.037 A 
BRANCH  22  24
HETATM   24  O   UNL     1      44.713 -21.127   2.994  1.00  0.00    -0.356 OA
HETATM   25  C   UNL     1      44.217 -21.753   1.818  1.00  0.00     0.210 C 
ENDBRANCH  22  24
ENDBRANCH  12  14
ENDBRANCH   9  12
ENDBRANCH   1   8
BRANCH   4  26
HETATM   26  C   UNL     1      41.662  -9.783   9.087  1.00  0.00     0.257 C 
HETATM   27  N   UNL     1      41.947 -10.005  10.411  1.00  0.00    -0.352 N 
HETATM   28  H   UNL     1      42.345 -10.911  10.661  1.00  0.00     0.163 HD
HETATM   29  O   UNL     1      41.070  -8.786   8.684  1.00  0.00    -0.267 OA
BRANCH  27  30
HETATM   30  C   UNL     1      41.470  -9.153  11.492  1.00  0.00     0.084 C 
HETATM   31  C   UNL     1      40.486  -9.910  12.395  1.00  0.00     0.025 C 
HETATM   32  C   UNL     1      41.173 -10.982  13.242  1.00  0.00     0.002 C 
HETATM   33  C   UNL     1      42.330 -10.404  14.052  1.00  0.00     0.000 C 
HETATM   34  C   UNL     1      43.332  -9.670  13.167  1.00  0.00     0.002 C 
HETATM   35  C   UNL     1      42.653  -8.605  12.303  1.00  0.00     0.025 C 
ENDBRANCH  27  30
ENDBRANCH   4  26
BRANCH   6  36
HETATM   36  C   UNL     1      45.070 -13.123   7.993  1.00  0.00     0.089 A 
HETATM   37  C   UNL     1      46.219 -13.344   7.043  1.00  0.00     0.028 A 
HETATM   38  C   UNL     1      46.364 -12.370   8.172  1.00  0.00     0.028 A 
ENDBRANCH   6  36
TORSDOF 7
ENDMDL
MODEL 7
REMARK VINA RESULT:      -8.5      3.373      8.360
REMARK  7 active torsions:
REMARK  status: ('A' for Active; 'I' for Inactive)
REMARK    1  A    between atoms: C_2  and  N_3 
REMARK    2  A    between atoms: C_2  and  C_25 
REMARK       I    between atoms: N_3  and  C_4 
REMARK    3  A    between atoms: C_4  and  C_5 
REMARK    4  A    between atoms: C_8  and  C_9 
REMARK       I    between atoms: C_9  and  N_10 
REMARK    5  A    between atoms: N_10  and  C_11 
REMARK    6  A    between atoms: N_19  and  C_20 
REMARK    7  A    between atoms: C_33  and  O_34 
ROOT
HETATM    1  C   UNL     1      43.124 -15.414   5.775  1.00  0.00     0.098 A 
HETATM    2  C   UNL     1      42.216 -14.469   5.054  1.00  0.00     0.206 A 
HETATM    3  O   UNL     1      42.063 -13.314   5.458  1.00  0.00    -0.286 OA
HETATM    4  C   UNL     1      41.510 -14.943   3.827  1.00  0.00     0.098 A 
HETATM    5  C   UNL     1      41.714 -16.223   3.470  1.00  0.00     0.112 A 
HETATM    6  N   UNL     1      42.517 -17.099   4.173  1.00  0.00    -0.360 N 
HETATM    7  C   UNL     1      43.222 -16.658   5.276  1.00  0.00     0.112 A 
ENDROOT
BRANCH   1   8
HETATM    8  C   UNL     1      43.906 -15.058   6.995  1.00  0.00     0.257 C 
HETATM    9  N   UNL     1      44.360 -13.769   7.022  1.00  0.00    -0.348 N 
HETATM   10  H   UNL     1      44.147 -13.169   6.227  1.00  0.00     0.163 HD
HETATM   11  O   UNL     1      44.108 -15.864   7.898  1.00  0.00    -0.267 OA
BRANCH   9  12
HETATM   12  C   UNL     1      45.121 -13.184   8.111  1.00  0.00     0.114 C 
HETATM   13  C   UNL     1      46.408 -12.534   7.604  1.00  0.00     0.037 C 
BRANCH  12  14
HETATM   14  C   UNL     1      44.231 -12.195   8.846  1.00  0.00    -0.035 A 
HETATM   15  C   UNL     1      44.494 -11.830  10.181  1.00  0.00     0.021 A 
HETATM   16  C   UNL     1      43.743 -10.837  10.831  1.00  0.00    -0.025 A 
HETATM   17  C   UNL     1      42.689 -10.206  10.141  1.00  0.00    -0.023 A 
HETATM   18  C   UNL     1      44.032 -10.447  12.148  1.00  0.00     0.015 A 
HETATM   19  C   UNL     1      42.409 -10.588   8.820  1.00  0.00     0.013 A 
HETATM   20  C   UNL     1      41.954  -9.199  10.789  1.00  0.00     0.049 A 
HETATM   21  C   UNL     1      43.176 -11.565   8.178  1.00  0.00     0.010 A 
HETATM   22  C   UNL     1      42.256  -8.806  12.097  1.00  0.00     0.069 A 
HETATM   23  C   UNL     1      43.295  -9.437  12.776  1.00  0.00     0.037 A 
BRANCH  22  24
HETATM   24  O   UNL     1      41.466  -7.803  12.589  1.00  0.00    -0.356 OA
HETATM   25  C   UNL     1      41.502  -7.587  13.993  1.00  0.00     0.210 C 
ENDBRANCH  22  24
ENDBRANCH  12  14
ENDBRANCH   9  12
ENDBRANCH   1   8
BRANCH   4  26
HETATM   26  C   UNL     1      40.617 -14.091   2.991  1.00  0.00     0.257 C 
HETATM   27  N   UNL     1      41.118 -13.761   1.756  1.00  0.00    -0.352 N 
HETATM   28  H   UNL     1      42.083 -14.024   1.555  1.00  0.00     0.163 HD
HETATM   29  O   UNL     1      39.517 -13.720   3.392  1.00  0.00    -0.267 OA
BRANCH  27  30
HETATM   30  C   UNL     1      40.463 -12.836   0.841  1.00  0.00     0.084 C 
HETATM   31  C   UNL     1      41.496 -11.987   0.086  1.00  0.00     0.025 C 
HETATM   32  C   UNL     1      42.282 -12.800  -0.942  1.00  0.00     0.002 C 
HETATM   33  C   UNL     1      41.357 -13.531  -1.911  1.00  0.00     0.000 C 
HETATM   34  C   UNL     1      40.341 -14.400  -1.178  1.00  0.00     0.002 C 
HETATM   35  C   UNL     1      39.557 -13.600  -0.135  1.00  0.00     0.025 C 
ENDBRANCH  27  30
ENDBRANCH   4  26
BRANCH   6  36
HETATM   36  C   UNL     1      42.784 -18.434   3.623  1.00  0.00     0.089 A 
HETATM   37  C   UNL     1      42.762 -18.708   2.142  1.00  0.00     0.028 A 
HETATM   38  C   UNL     1      44.062 -18.739   2.885  1.00  0.00     0.028 A 
ENDBRANCH   6  36
TORSDOF 7
ENDMDL
MODEL 8
REMARK VINA RESULT:      -8.5      3.654      8.989
REMARK  7 active torsions:
REMARK  status: ('A' for Active; 'I' for Inactive)
REMARK    1  A    between atoms: C_2  and  N_3 
REMARK    2  A    between atoms: C_2  and  C_25 
REMARK       I    between atoms: N_3  and  C_4 
REMARK    3  A    between atoms: C_4  and  C_5 
REMARK    4  A    between atoms: C_8  and  C_9 
REMARK       I    between atoms: C_9  and  N_10 
REMARK    5  A    between atoms: N_10  and  C_11 
REMARK    6  A    between atoms: N_19  and  C_20 
REMARK    7  A    between atoms: C_33  and  O_34 
ROOT
HETATM    1  C   UNL     1      43.217 -14.723   6.041  1.00  0.00     0.098 A 
HETATM    2  C   UNL     1      42.163 -13.807   5.505  1.00  0.00     0.206 A 
HETATM    3  O   UNL     1      41.847 -12.786   6.120  1.00  0.00    -0.286 OA
HETATM    4  C   UNL     1      41.510 -14.141   4.205  1.00  0.00     0.098 A 
HETATM    5  C   UNL     1      41.896 -15.285   3.612  1.00  0.00     0.112 A 
HETATM    6  N   UNL     1      42.835 -16.147   4.143  1.00  0.00    -0.360 N 
HETATM    7  C   UNL     1      43.490 -15.821   5.315  1.00  0.00     0.112 A 
ENDROOT
BRANCH   1   8
HETATM    8  C   UNL     1      43.962 -14.491   7.312  1.00  0.00     0.257 C 
HETATM    9  N   UNL     1      44.184 -13.175   7.608  1.00  0.00    -0.348 N 
HETATM   10  H   UNL     1      43.844 -12.473   6.953  1.00  0.00     0.163 HD
HETATM   11  O   UNL     1      44.331 -15.416   8.030  1.00  0.00    -0.267 OA
BRANCH   9  12
HETATM   12  C   UNL     1      44.864 -12.699   8.798  1.00  0.00     0.114 C 
HETATM   13  C   UNL     1      46.230 -12.103   8.458  1.00  0.00     0.037 C 
BRANCH  12  14
HETATM   14  C   UNL     1      43.962 -11.698   9.503  1.00  0.00    -0.035 A 
HETATM   15  C   UNL     1      44.178 -11.343  10.848  1.00  0.00     0.021 A 
HETATM   16  C   UNL     1      43.420 -10.341  11.474  1.00  0.00    -0.025 A 
HETATM   17  C   UNL     1      42.404  -9.689  10.746  1.00  0.00    -0.023 A 
HETATM   18  C   UNL     1      43.663  -9.961  12.803  1.00  0.00     0.015 A 
HETATM   19  C   UNL     1      42.170 -10.061   9.413  1.00  0.00     0.013 A 
HETATM   20  C   UNL     1      41.660  -8.673  11.370  1.00  0.00     0.049 A 
HETATM   21  C   UNL     1      42.944 -11.048   8.797  1.00  0.00     0.010 A 
HETATM   22  C   UNL     1      41.917  -8.290  12.690  1.00  0.00     0.069 A 
HETATM   23  C   UNL     1      42.919  -8.942  13.406  1.00  0.00     0.037 A 
BRANCH  22  24
HETATM   24  O   UNL     1      41.126  -7.276  13.155  1.00  0.00    -0.356 OA
HETATM   25  C   UNL     1      39.879  -7.647  13.731  1.00  0.00     0.210 C 
ENDBRANCH  22  24
ENDBRANCH  12  14
ENDBRANCH   9  12
ENDBRANCH   1   8
BRANCH   4  26
HETATM   26  C   UNL     1      40.482 -13.291   3.539  1.00  0.00     0.257 C 
HETATM   27  N   UNL     1      40.635 -11.940   3.730  1.00  0.00    -0.352 N 
HETATM   28  H   UNL     1      41.355 -11.637   4.386  1.00  0.00     0.163 HD
HETATM   29  O   UNL     1      39.573 -13.778   2.874  1.00  0.00    -0.267 OA
BRANCH  27  30
HETATM   30  C   UNL     1      39.671 -10.948   3.275  1.00  0.00     0.084 C 
HETATM   31  C   UNL     1      38.666 -10.609   4.385  1.00  0.00     0.025 C 
HETATM   32  C   UNL     1      39.298  -9.802   5.520  1.00  0.00     0.002 C 
HETATM   33  C   UNL     1      39.990  -8.545   5.001  1.00  0.00     0.000 C 
HETATM   34  C   UNL     1      41.011  -8.867   3.915  1.00  0.00     0.002 C 
HETATM   35  C   UNL     1      40.393  -9.686   2.780  1.00  0.00     0.025 C 
ENDBRANCH  27  30
ENDBRANCH   4  26
BRANCH   6  36
HETATM   36  C   UNL     1      43.288 -17.299   3.351  1.00  0.00     0.089 A 
HETATM   37  C   UNL     1      44.185 -18.363   3.927  1.00  0.00     0.028 A 
HETATM   38  C   UNL     1      42.758 -18.686   3.608  1.00  0.00     0.028 A 
ENDBRANCH   6  36
TORSDOF 7
ENDMDL
MODEL 9
REMARK VINA RESULT:      -8.5      2.967      6.873
REMARK  7 active torsions:
REMARK  status: ('A' for Active; 'I' for Inactive)
REMARK    1  A    between atoms: C_2  and  N_3 
REMARK    2  A    between atoms: C_2  and  C_25 
REMARK       I    between atoms: N_3  and  C_4 
REMARK    3  A    between atoms: C_4  and  C_5 
REMARK    4  A    between atoms: C_8  and  C_9 
REMARK       I    between atoms: C_9  and  N_10 
REMARK    5  A    between atoms: N_10  and  C_11 
REMARK    6  A    between atoms: N_19  and  C_20 
REMARK    7  A    between atoms: C_33  and  O_34 
ROOT
HETATM    1  C   UNL     1      40.743 -11.250   5.670  1.00  0.00     0.098 A 
HETATM    2  C   UNL     1      41.720 -11.644   6.732  1.00  0.00     0.206 A 
HETATM    3  O   UNL     1      42.328 -12.715   6.660  1.00  0.00    -0.286 OA
HETATM    4  C   UNL     1      41.960 -10.711   7.873  1.00  0.00     0.098 A 
HETATM    5  C   UNL     1      41.238  -9.576   7.886  1.00  0.00     0.112 A 
HETATM    6  N   UNL     1      40.303  -9.248   6.924  1.00  0.00    -0.360 N 
HETATM    7  C   UNL     1      40.114 -10.074   5.833  1.00  0.00     0.112 A 
ENDROOT
BRANCH   1   8
HETATM    8  C   UNL     1      40.432 -12.078   4.469  1.00  0.00     0.257 C 
HETATM    9  N   UNL     1      41.512 -12.719   3.927  1.00  0.00    -0.348 N 
HETATM   10  H   UNL     1      42.421 -12.580   4.364  1.00  0.00     0.163 HD
HETATM   11  O   UNL     1      39.294 -12.175   4.020  1.00  0.00    -0.267 OA
BRANCH   9  12
HETATM   12  C   UNL     1      41.457 -13.598   2.773  1.00  0.00     0.114 C 
HETATM   13  C   UNL     1      42.163 -12.978   1.567  1.00  0.00     0.037 C 
BRANCH  12  14
HETATM   14  C   UNL     1      42.055 -14.942   3.159  1.00  0.00    -0.035 A 
HETATM   15  C   UNL     1      41.972 -16.051   2.296  1.00  0.00     0.021 A 
HETATM   16  C   UNL     1      42.615 -17.263   2.596  1.00  0.00    -0.025 A 
HETATM   17  C   UNL     1      43.343 -17.379   3.798  1.00  0.00    -0.023 A 
HETATM   18  C   UNL     1      42.564 -18.355   1.717  1.00  0.00     0.015 A 
HETATM   19  C   UNL     1      43.403 -16.282   4.671  1.00  0.00     0.013 A 
HETATM   20  C   UNL     1      44.001 -18.587   4.084  1.00  0.00     0.049 A 
HETATM   21  C   UNL     1      42.773 -15.076   4.352  1.00  0.00     0.010 A 
HETATM   22  C   UNL     1      43.957 -19.667   3.196  1.00  0.00     0.069 A 
HETATM   23  C   UNL     1      43.232 -19.548   2.013  1.00  0.00     0.037 A 
BRANCH  22  24
HETATM   24  O   UNL     1      44.660 -20.768   3.602  1.00  0.00    -0.356 OA
HETATM   25  C   UNL     1      44.465 -21.964   2.858  1.00  0.00     0.210 C 
ENDBRANCH  22  24
ENDBRANCH  12  14
ENDBRANCH   9  12
ENDBRANCH   1   8
BRANCH   4  26
HETATM   26  C   UNL     1      42.939 -10.960   8.969  1.00  0.00     0.257 C 
HETATM   27  N   UNL     1      42.387 -11.096  10.219  1.00  0.00    -0.352 N 
HETATM   28  H   UNL     1      41.389 -10.909  10.316  1.00  0.00     0.163 HD
HETATM   29  O   UNL     1      44.145 -11.036   8.753  1.00  0.00    -0.267 OA
BRANCH  27  30
HETATM   30  C   UNL     1      43.175 -11.216  11.438  1.00  0.00     0.084 C 
HETATM   31  C   UNL     1      43.821  -9.874  11.810  1.00  0.00     0.025 C 
HETATM   32  C   UNL     1      42.800  -8.850  12.304  1.00  0.00     0.002 C 
HETATM   33  C   UNL     1      41.965  -9.397  13.459  1.00  0.00     0.000 C 
HETATM   34  C   UNL     1      41.295 -10.718  13.098  1.00  0.00     0.002 C 
HETATM   35  C   UNL     1      42.306 -11.747  12.588  1.00  0.00     0.025 C 
ENDBRANCH  27  30
ENDBRANCH   4  26
BRANCH   6  36
HETATM   36  C   UNL     1      39.669  -7.924   6.955  1.00  0.00     0.089 A 
HETATM   37  C   UNL     1      38.303  -7.676   6.371  1.00  0.00     0.028 A 
HETATM   38  C   UNL     1      38.496  -7.634   7.855  1.00  0.00     0.028 A 
ENDBRANCH   6  36
TORSDOF 7
ENDMDL
MODEL 10
REMARK VINA RESULT:      -8.4      3.397      5.553
REMARK  7 active torsions:
REMARK  status: ('A' for Active; 'I' for Inactive)
REMARK    1  A    between atoms: C_2  and  N_3 
REMARK    2  A    between atoms: C_2  and  C_25 
REMARK       I    between atoms: N_3  and  C_4 
REMARK    3  A    between atoms: C_4  and  C_5 
REMARK    4  A    between atoms: C_8  and  C_9 
REMARK       I    between atoms: C_9  and  N_10 
REMARK    5  A    between atoms: N_10  and  C_11 
REMARK    6  A    between atoms: N_19  and  C_20 
REMARK    7  A    between atoms: C_33  and  O_34 
ROOT
HETATM    1  C   UNL     1      39.070 -13.016   2.889  1.00  0.00     0.098 A 
HETATM    2  C   UNL     1      38.248 -11.825   2.512  1.00  0.00     0.206 A 
HETATM    3  O   UNL     1      37.638 -11.796   1.441  1.00  0.00    -0.286 OA
HETATM    4  C   UNL     1      38.165 -10.676   3.463  1.00  0.00     0.098 A 
HETATM    5  C   UNL     1      38.880 -10.779   4.597  1.00  0.00     0.112 A 
HETATM    6  N   UNL     1      39.674 -11.864   4.910  1.00  0.00    -0.360 N 
HETATM    7  C   UNL     1      39.713 -12.959   4.068  1.00  0.00     0.112 A 
ENDROOT
BRANCH   1   8
HETATM    8  C   UNL     1      39.214 -14.236   2.043  1.00  0.00     0.257 C 
HETATM    9  N   UNL     1      40.506 -14.634   1.837  1.00  0.00    -0.348 N 
HETATM   10  H   UNL     1      41.251 -14.080   2.255  1.00  0.00     0.163 HD
HETATM   11  O   UNL     1      38.243 -14.830   1.584  1.00  0.00    -0.267 OA
BRANCH   9  12
HETATM   12  C   UNL     1      40.897 -15.803   1.069  1.00  0.00     0.114 C 
HETATM   13  C   UNL     1      41.698 -15.410  -0.172  1.00  0.00     0.037 C 
BRANCH  12  14
HETATM   14  C   UNL     1      41.674 -16.741   1.980  1.00  0.00    -0.035 A 
HETATM   15  C   UNL     1      42.132 -17.990   1.519  1.00  0.00     0.021 A 
HETATM   16  C   UNL     1      42.942 -18.814   2.316  1.00  0.00    -0.025 A 
HETATM   17  C   UNL     1      43.289 -18.392   3.616  1.00  0.00    -0.023 A 
HETATM   18  C   UNL     1      43.429 -20.042   1.841  1.00  0.00     0.015 A 
HETATM   19  C   UNL     1      42.811 -17.158   4.085  1.00  0.00     0.013 A 
HETATM   20  C   UNL     1      44.117 -19.210   4.402  1.00  0.00     0.049 A 
HETATM   21  C   UNL     1      42.020 -16.340   3.275  1.00  0.00     0.010 A 
HETATM   22  C   UNL     1      44.610 -20.426   3.917  1.00  0.00     0.069 A 
HETATM   23  C   UNL     1      44.259 -20.841   2.635  1.00  0.00     0.037 A 
BRANCH  22  24
HETATM   24  O   UNL     1      45.416 -21.104   4.789  1.00  0.00    -0.356 OA
HETATM   25  C   UNL     1      45.025 -22.428   5.129  1.00  0.00     0.210 C 
ENDBRANCH  22  24
ENDBRANCH  12  14
ENDBRANCH   9  12
ENDBRANCH   1   8
BRANCH   4  26
HETATM   26  C   UNL     1      37.346  -9.452   3.230  1.00  0.00     0.257 C 
HETATM   27  N   UNL     1      36.002  -9.599   3.474  1.00  0.00    -0.352 N 
HETATM   28  H   UNL     1      35.662 -10.538   3.682  1.00  0.00     0.163 HD
HETATM   29  O   UNL     1      37.850  -8.400   2.849  1.00  0.00    -0.267 OA
BRANCH  27  30
HETATM   30  C   UNL     1      35.015  -8.568   3.187  1.00  0.00     0.084 C 
HETATM   31  C   UNL     1      33.984  -9.063   2.163  1.00  0.00     0.025 C 
HETATM   32  C   UNL     1      33.043 -10.119   2.743  1.00  0.00     0.002 C 
HETATM   33  C   UNL     1      32.360  -9.628   4.016  1.00  0.00     0.000 C 
HETATM   34  C   UNL     1      33.371  -9.156   5.056  1.00  0.00     0.002 C 
HETATM   35  C   UNL     1      34.328  -8.109   4.482  1.00  0.00     0.025 C 
ENDBRANCH  27  30
ENDBRANCH   4  26
BRANCH   6  36
HETATM   36  C   UNL     1      40.304 -11.941   6.234  1.00  0.00     0.089 A 
HETATM   37  C   UNL     1      40.153 -10.844   7.256  1.00  0.00     0.028 A 
HETATM   38  C   UNL     1      39.487 -12.166   7.481  1.00  0.00     0.028 A 
ENDBRANCH   6  36
TORSDOF 7
ENDMDL
