MODEL 1
REMARK VINA RESULT:      -8.9      0.000      0.000
REMARK  7 active torsions:
REMARK  status: ('A' for Active; 'I' for Inactive)
REMARK    1  A    between atoms: O_1  and  C_2 
REMARK    2  A    between atoms: C_2  and  C_3 
REMARK    3  A    between atoms: C_3  and  C_4 
REMARK    4  A    between atoms: C_4  and  N_5 
REMARK    5  A    between atoms: C_4  and  C_21 
REMARK       I    between atoms: N_5  and  C_6 
REMARK       I    between atoms: C_6  and  N_8 
REMARK    6  A    between atoms: N_8  and  C_9 
REMARK    7  A    between atoms: C_12  and  C_15 
ROOT
HETATM    1  N   UNL     1      44.238 -13.405   8.519  1.00  0.00    -0.334 N 
HETATM    2  C   UNL     1      44.445 -14.138   7.367  1.00  0.00     0.321 C 
HETATM    3  O   UNL     1      45.093 -13.720   6.418  1.00  0.00    -0.247 OA
HETATM    4  N   UNL     1      43.892 -15.395   7.498  1.00  0.00    -0.309 N 
HETATM    5  H   UNL     1      43.348 -13.567   8.965  1.00  0.00     0.165 HD
HETATM    6  H   UNL     1      43.725 -15.686   8.449  1.00  0.00     0.170 HD
ENDROOT
BRANCH   1   7
HETATM    7  C   UNL     1      44.802 -12.068   8.665  1.00  0.00     0.121 C 
BRANCH   7   8
HETATM    8  C   UNL     1      46.261 -12.149   9.139  1.00  0.00     0.056 C 
BRANCH   8   9
HETATM    9  C   UNL     1      47.213 -11.471   8.161  1.00  0.00     0.166 C 
BRANCH   9  10
HETATM   10  O   UNL     1      47.695 -12.445   7.244  1.00  0.00    -0.401 OA
HETATM   11  H   UNL     1      48.477 -12.857   7.651  1.00  0.00     0.209 HD
ENDBRANCH   9  10
ENDBRANCH   8   9
ENDBRANCH   7   8
BRANCH   7  12
HETATM   12  C   UNL     1      43.959 -11.221   9.605  1.00  0.00    -0.032 A 
HETATM   13  C   UNL     1      42.704 -10.751   9.182  1.00  0.00     0.009 A 
HETATM   14  C   UNL     1      41.917  -9.950  10.014  1.00  0.00     0.004 A 
HETATM   15  C   UNL     1      42.370  -9.618  11.288  1.00  0.00     0.042 A 
HETATM   16  C   UNL     1      43.604 -10.090  11.717  1.00  0.00     0.117 A 
HETATM   17  F   UNL     1      44.040  -9.777  12.945  1.00  0.00    -0.206 F 
HETATM   18  C   UNL     1      44.399 -10.883  10.894  1.00  0.00     0.051 A 
ENDBRANCH   7  12
ENDBRANCH   1   7
BRANCH   4  19
HETATM   19  C   UNL     1      43.866 -16.403   6.516  1.00  0.00     0.036 A 
HETATM   20  C   UNL     1      44.728 -17.492   6.677  1.00  0.00     0.030 A 
HETATM   21  C   UNL     1      44.772 -18.515   5.720  1.00  0.00     0.014 A 
HETATM   22  C   UNL     1      43.940 -18.485   4.592  1.00  0.00    -0.023 A 
HETATM   23  C   UNL     1      43.051 -17.408   4.463  1.00  0.00     0.014 A 
HETATM   24  C   UNL     1      43.017 -16.376   5.412  1.00  0.00     0.030 A 
BRANCH  22  25
HETATM   25  C   UNL     1      44.012 -19.545   3.594  1.00  0.00     0.010 A 
HETATM   26  C   UNL     1      44.773 -20.741   3.563  1.00  0.00     0.152 A 
HETATM   27  N   UNL     1      44.580 -21.458   2.453  1.00  0.00    -0.187 NA
HETATM   28  N   UNL     1      43.697 -20.725   1.759  1.00  0.00    -0.289 N 
HETATM   29  H   UNL     1      43.391 -21.069   0.856  1.00  0.00     0.188 HD
HETATM   30  C   UNL     1      43.327 -19.575   2.395  1.00  0.00     0.123 A 
ENDBRANCH  22  25
ENDBRANCH   4  19
TORSDOF 7
ENDMDL
MODEL 2
REMARK VINA RESULT:      -8.0      7.298     10.730
REMARK  7 active torsions:
REMARK  status: ('A' for Active; 'I' for Inactive)
REMARK    1  A    between atoms: O_1  and  C_2 
REMARK    2  A    between atoms: C_2  and  C_3 
REMARK    3  A    between atoms: C_3  and  C_4 
REMARK    4  A    between atoms: C_4  and  N_5 
REMARK    5  A    between atoms: C_4  and  C_21 
REMARK       I    between atoms: N_5  and  C_6 
REMARK       I    between atoms: C_6  and  N_8 
REMARK    6  A    between atoms: N_8  and  C_9 
REMARK    7  A    between atoms: C_12  and  C_15 
ROOT
HETATM    1  N   UNL     1      42.698 -17.249   1.880  1.00  0.00    -0.334 N 
HETATM    2  C   UNL     1      41.557 -16.795   1.248  1.00  0.00     0.321 C 
HETATM    3  O   UNL     1      40.432 -16.975   1.693  1.00  0.00    -0.247 OA
HETATM    4  N   UNL     1      41.892 -16.067   0.126  1.00  0.00    -0.309 N 
HETATM    5  H   UNL     1      43.444 -17.519   1.256  1.00  0.00     0.165 HD
HETATM    6  H   UNL     1      42.839 -15.721   0.115  1.00  0.00     0.170 HD
ENDROOT
BRANCH   1   7
HETATM    7  C   UNL     1      42.615 -17.976   3.141  1.00  0.00     0.121 C 
BRANCH   7   8
HETATM    8  C   UNL     1      43.129 -17.106   4.297  1.00  0.00     0.056 C 
BRANCH   8   9
HETATM    9  C   UNL     1      41.986 -16.538   5.131  1.00  0.00     0.166 C 
BRANCH   9  10
HETATM   10  O   UNL     1      40.755 -17.015   4.602  1.00  0.00    -0.401 OA
HETATM   11  H   UNL     1      40.825 -17.984   4.546  1.00  0.00     0.209 HD
ENDBRANCH   9  10
ENDBRANCH   8   9
ENDBRANCH   7   8
BRANCH   7  12
HETATM   12  C   UNL     1      43.368 -19.294   3.061  1.00  0.00    -0.032 A 
HETATM   13  C   UNL     1      44.272 -19.643   4.080  1.00  0.00     0.009 A 
HETATM   14  C   UNL     1      44.997 -20.836   4.022  1.00  0.00     0.004 A 
HETATM   15  C   UNL     1      44.819 -21.705   2.948  1.00  0.00     0.042 A 
HETATM   16  C   UNL     1      43.918 -21.372   1.944  1.00  0.00     0.117 A 
HETATM   17  F   UNL     1      43.741 -22.208   0.912  1.00  0.00    -0.206 F 
HETATM   18  C   UNL     1      43.196 -20.182   1.988  1.00  0.00     0.051 A 
ENDBRANCH   7  12
ENDBRANCH   1   7
BRANCH   4  19
HETATM   19  C   UNL     1      40.997 -15.485  -0.791  1.00  0.00     0.036 A 
HETATM   20  C   UNL     1      40.127 -14.500  -0.316  1.00  0.00     0.030 A 
HETATM   21  C   UNL     1      39.191 -13.902  -1.172  1.00  0.00     0.014 A 
HETATM   22  C   UNL     1      39.119 -14.258  -2.526  1.00  0.00    -0.023 A 
HETATM   23  C   UNL     1      40.025 -15.218  -2.999  1.00  0.00     0.014 A 
HETATM   24  C   UNL     1      40.952 -15.828  -2.141  1.00  0.00     0.030 A 
BRANCH  22  25
HETATM   25  C   UNL     1      38.128 -13.643  -3.399  1.00  0.00     0.010 A 
HETATM   26  C   UNL     1      37.827 -12.279  -3.647  1.00  0.00     0.152 A 
HETATM   27  N   UNL     1      36.821 -12.111  -4.509  1.00  0.00    -0.187 NA
HETATM   28  N   UNL     1      36.464 -13.366  -4.819  1.00  0.00    -0.289 N 
HETATM   29  H   UNL     1      35.699 -13.502  -5.470  1.00  0.00     0.188 HD
HETATM   30  C   UNL     1      37.211 -14.315  -4.183  1.00  0.00     0.123 A 
ENDBRANCH  22  25
ENDBRANCH   4  19
TORSDOF 7
ENDMDL
MODEL 3
REMARK VINA RESULT:      -7.8      7.178     10.200
REMARK  7 active torsions:
REMARK  status: ('A' for Active; 'I' for Inactive)
REMARK    1  A    between atoms: O_1  and  C_2 
REMARK    2  A    between atoms: C_2  and  C_3 
REMARK    3  A    between atoms: C_3  and  C_4 
REMARK    4  A    between atoms: C_4  and  N_5 
REMARK    5  A    between atoms: C_4  and  C_21 
REMARK       I    between atoms: N_5  and  C_6 
REMARK       I    between atoms: C_6  and  N_8 
REMARK    6  A    between atoms: N_8  and  C_9 
REMARK    7  A    between atoms: C_12  and  C_15 
ROOT
HETATM    1  N   UNL     1      41.677 -15.737  -1.314  1.00  0.00    -0.334 N 
HETATM    2  C   UNL     1      41.528 -15.901   0.049  1.00  0.00     0.321 C 
HETATM    3  O   UNL     1      40.536 -15.530   0.661  1.00  0.00    -0.247 OA
HETATM    4  N   UNL     1      42.602 -16.597   0.564  1.00  0.00    -0.309 N 
HETATM    5  H   UNL     1      42.627 -15.579  -1.615  1.00  0.00     0.165 HD
HETATM    6  H   UNL     1      43.127 -17.126  -0.115  1.00  0.00     0.170 HD
ENDROOT
BRANCH   1   7
HETATM    7  C   UNL     1      40.632 -15.105  -2.109  1.00  0.00     0.121 C 
BRANCH   7   8
HETATM    8  C   UNL     1      40.418 -15.871  -3.423  1.00  0.00     0.056 C 
BRANCH   8   9
HETATM    9  C   UNL     1      38.982 -15.756  -3.919  1.00  0.00     0.166 C 
BRANCH   9  10
HETATM   10  O   UNL     1      38.848 -16.521  -5.110  1.00  0.00    -0.401 OA
HETATM   11  H   UNL     1      37.968 -16.325  -5.478  1.00  0.00     0.209 HD
ENDBRANCH   9  10
ENDBRANCH   8   9
ENDBRANCH   7   8
BRANCH   7  12
HETATM   12  C   UNL     1      40.952 -13.641  -2.365  1.00  0.00    -0.032 A 
HETATM   13  C   UNL     1      40.469 -12.657  -1.484  1.00  0.00     0.009 A 
HETATM   14  C   UNL     1      40.727 -11.302  -1.707  1.00  0.00     0.004 A 
HETATM   15  C   UNL     1      41.482 -10.911  -2.809  1.00  0.00     0.042 A 
HETATM   16  C   UNL     1      41.972 -11.879  -3.677  1.00  0.00     0.117 A 
HETATM   17  F   UNL     1      42.704 -11.506  -4.736  1.00  0.00    -0.206 F 
HETATM   18  C   UNL     1      41.716 -13.232  -3.469  1.00  0.00     0.051 A 
ENDBRANCH   7  12
ENDBRANCH   1   7
BRANCH   4  19
HETATM   19  C   UNL     1      42.820 -16.915   1.918  1.00  0.00     0.036 A 
HETATM   20  C   UNL     1      42.872 -18.267   2.270  1.00  0.00     0.030 A 
HETATM   21  C   UNL     1      43.056 -18.650   3.605  1.00  0.00     0.014 A 
HETATM   22  C   UNL     1      43.217 -17.693   4.616  1.00  0.00    -0.023 A 
HETATM   23  C   UNL     1      43.203 -16.341   4.245  1.00  0.00     0.014 A 
HETATM   24  C   UNL     1      43.003 -15.956   2.911  1.00  0.00     0.030 A 
BRANCH  22  25
HETATM   25  C   UNL     1      43.387 -18.106   6.003  1.00  0.00     0.010 A 
HETATM   26  C   UNL     1      43.816 -19.338   6.559  1.00  0.00     0.152 A 
HETATM   27  N   UNL     1      43.822 -19.338   7.895  1.00  0.00    -0.187 NA
HETATM   28  N   UNL     1      43.394 -18.107   8.208  1.00  0.00    -0.289 N 
HETATM   29  H   UNL     1      43.308 -17.862   9.188  1.00  0.00     0.188 HD
HETATM   30  C   UNL     1      43.120 -17.334   7.116  1.00  0.00     0.123 A 
ENDBRANCH  22  25
ENDBRANCH   4  19
TORSDOF 7
ENDMDL
MODEL 4
REMARK VINA RESULT:      -7.8      6.772      9.347
REMARK  7 active torsions:
REMARK  status: ('A' for Active; 'I' for Inactive)
REMARK    1  A    between atoms: O_1  and  C_2 
REMARK    2  A    between atoms: C_2  and  C_3 
REMARK    3  A    between atoms: C_3  and  C_4 
REMARK    4  A    between atoms: C_4  and  N_5 
REMARK    5  A    between atoms: C_4  and  C_21 
REMARK       I    between atoms: N_5  and  C_6 
REMARK       I    between atoms: C_6  and  N_8 
REMARK    6  A    between atoms: N_8  and  C_9 
REMARK    7  A    between atoms: C_12  and  C_15 
ROOT
HETATM    1  N   UNL     1      41.875 -14.639  -0.840  1.00  0.00    -0.334 N 
HETATM    2  C   UNL     1      41.679 -15.108   0.444  1.00  0.00     0.321 C 
HETATM    3  O   UNL     1      40.718 -14.791   1.131  1.00  0.00    -0.247 OA
HETATM    4  N   UNL     1      42.663 -16.017   0.773  1.00  0.00    -0.309 N 
HETATM    5  H   UNL     1      42.843 -14.514  -1.098  1.00  0.00     0.165 HD
HETATM    6  H   UNL     1      43.145 -16.421  -0.015  1.00  0.00     0.170 HD
ENDROOT
BRANCH   1   7
HETATM    7  C   UNL     1      40.919 -13.727  -1.456  1.00  0.00     0.121 C 
BRANCH   7   8
HETATM    8  C   UNL     1      40.168 -14.427  -2.599  1.00  0.00     0.056 C 
BRANCH   8   9
HETATM    9  C   UNL     1      40.887 -15.689  -3.059  1.00  0.00     0.166 C 
BRANCH   9  10
HETATM   10  O   UNL     1      42.141 -15.321  -3.622  1.00  0.00    -0.401 OA
HETATM   11  H   UNL     1      42.732 -15.102  -2.881  1.00  0.00     0.209 HD
ENDBRANCH   9  10
ENDBRANCH   8   9
ENDBRANCH   7   8
BRANCH   7  12
HETATM   12  C   UNL     1      41.607 -12.459  -1.938  1.00  0.00    -0.032 A 
HETATM   13  C   UNL     1      41.290 -11.933  -3.203  1.00  0.00     0.009 A 
HETATM   14  C   UNL     1      41.923 -10.783  -3.683  1.00  0.00     0.004 A 
HETATM   15  C   UNL     1      42.875 -10.136  -2.899  1.00  0.00     0.042 A 
HETATM   16  C   UNL     1      43.183 -10.645  -1.643  1.00  0.00     0.117 A 
HETATM   17  F   UNL     1      44.094 -10.021  -0.885  1.00  0.00    -0.206 F 
HETATM   18  C   UNL     1      42.564 -11.793  -1.158  1.00  0.00     0.051 A 
ENDBRANCH   7  12
ENDBRANCH   1   7
BRANCH   4  19
HETATM   19  C   UNL     1      42.816 -16.671   2.010  1.00  0.00     0.036 A 
HETATM   20  C   UNL     1      43.132 -15.891   3.125  1.00  0.00     0.030 A 
HETATM   21  C   UNL     1      43.328 -16.485   4.380  1.00  0.00     0.014 A 
HETATM   22  C   UNL     1      43.189 -17.869   4.553  1.00  0.00    -0.023 A 
HETATM   23  C   UNL     1      42.832 -18.636   3.435  1.00  0.00     0.014 A 
HETATM   24  C   UNL     1      42.651 -18.044   2.176  1.00  0.00     0.030 A 
BRANCH  22  25
HETATM   25  C   UNL     1      43.415 -18.475   5.859  1.00  0.00     0.010 A 
HETATM   26  C   UNL     1      43.751 -19.805   6.219  1.00  0.00     0.152 A 
HETATM   27  N   UNL     1      43.854 -19.982   7.539  1.00  0.00    -0.187 NA
HETATM   28  N   UNL     1      43.580 -18.768   8.038  1.00  0.00    -0.289 N 
HETATM   29  H   UNL     1      43.591 -18.647   9.044  1.00  0.00     0.188 HD
HETATM   30  C   UNL     1      43.310 -17.835   7.078  1.00  0.00     0.123 A 
ENDBRANCH  22  25
ENDBRANCH   4  19
TORSDOF 7
ENDMDL
MODEL 5
REMARK VINA RESULT:      -7.7      7.171      8.581
REMARK  7 active torsions:
REMARK  status: ('A' for Active; 'I' for Inactive)
REMARK    1  A    between atoms: O_1  and  C_2 
REMARK    2  A    between atoms: C_2  and  C_3 
REMARK    3  A    between atoms: C_3  and  C_4 
REMARK    4  A    between atoms: C_4  and  N_5 
REMARK    5  A    between atoms: C_4  and  C_21 
REMARK       I    between atoms: N_5  and  C_6 
REMARK       I    between atoms: C_6  and  N_8 
REMARK    6  A    between atoms: N_8  and  C_9 
REMARK    7  A    between atoms: C_12  and  C_15 
ROOT
HETATM    1  N   UNL     1      41.716 -14.466  -0.120  1.00  0.00    -0.334 N 
HETATM    2  C   UNL     1      41.792 -15.765   0.342  1.00  0.00     0.321 C 
HETATM    3  O   UNL     1      40.992 -16.635   0.026  1.00  0.00    -0.247 OA
HETATM    4  N   UNL     1      42.919 -15.927   1.121  1.00  0.00    -0.309 N 
HETATM    5  H   UNL     1      42.032 -13.768   0.536  1.00  0.00     0.165 HD
HETATM    6  H   UNL     1      43.634 -15.230   0.979  1.00  0.00     0.170 HD
ENDROOT
BRANCH   1   7
HETATM    7  C   UNL     1      40.657 -14.061  -1.037  1.00  0.00     0.121 C 
BRANCH   7   8
HETATM    8  C   UNL     1      41.230 -13.197  -2.171  1.00  0.00     0.056 C 
BRANCH   8   9
HETATM    9  C   UNL     1      41.244 -13.943  -3.500  1.00  0.00     0.166 C 
BRANCH   9  10
HETATM   10  O   UNL     1      42.064 -15.097  -3.366  1.00  0.00    -0.401 OA
HETATM   11  H   UNL     1      42.808 -14.854  -2.788  1.00  0.00     0.209 HD
ENDBRANCH   9  10
ENDBRANCH   8   9
ENDBRANCH   7   8
BRANCH   7  12
HETATM   12  C   UNL     1      39.543 -13.339  -0.297  1.00  0.00    -0.032 A 
HETATM   13  C   UNL     1      38.370 -14.035   0.045  1.00  0.00     0.009 A 
HETATM   14  C   UNL     1      37.318 -13.392   0.704  1.00  0.00     0.004 A 
HETATM   15  C   UNL     1      37.429 -12.046   1.040  1.00  0.00     0.042 A 
HETATM   16  C   UNL     1      38.591 -11.356   0.716  1.00  0.00     0.117 A 
HETATM   17  F   UNL     1      38.703 -10.062   1.043  1.00  0.00    -0.206 F 
HETATM   18  C   UNL     1      39.642 -11.984   0.053  1.00  0.00     0.051 A 
ENDBRANCH   7  12
ENDBRANCH   1   7
BRANCH   4  19
HETATM   19  C   UNL     1      43.306 -17.099   1.798  1.00  0.00     0.036 A 
HETATM   20  C   UNL     1      43.644 -18.215   1.027  1.00  0.00     0.030 A 
HETATM   21  C   UNL     1      44.010 -19.421   1.641  1.00  0.00     0.014 A 
HETATM   22  C   UNL     1      44.069 -19.533   3.036  1.00  0.00    -0.023 A 
HETATM   23  C   UNL     1      43.766 -18.395   3.797  1.00  0.00     0.014 A 
HETATM   24  C   UNL     1      43.386 -17.192   3.186  1.00  0.00     0.030 A 
BRANCH  22  25
HETATM   25  C   UNL     1      44.431 -20.800   3.660  1.00  0.00     0.010 A 
HETATM   26  C   UNL     1      44.898 -21.090   4.967  1.00  0.00     0.152 A 
HETATM   27  N   UNL     1      45.145 -22.389   5.160  1.00  0.00    -0.187 NA
HETATM   28  N   UNL     1      44.843 -22.942   3.977  1.00  0.00    -0.289 N 
HETATM   29  H   UNL     1      44.956 -23.944   3.871  1.00  0.00     0.188 HD
HETATM   30  C   UNL     1      44.413 -22.038   3.049  1.00  0.00     0.123 A 
ENDBRANCH  22  25
ENDBRANCH   4  19
TORSDOF 7
ENDMDL
MODEL 6
REMARK VINA RESULT:      -7.6      6.015      9.117
REMARK  7 active torsions:
REMARK  status: ('A' for Active; 'I' for Inactive)
REMARK    1  A    between atoms: O_1  and  C_2 
REMARK    2  A    between atoms: C_2  and  C_3 
REMARK    3  A    between atoms: C_3  and  C_4 
REMARK    4  A    between atoms: C_4  and  N_5 
REMARK    5  A    between atoms: C_4  and  C_21 
REMARK       I    between atoms: N_5  and  C_6 
REMARK       I    between atoms: C_6  and  N_8 
REMARK    6  A    between atoms: N_8  and  C_9 
REMARK    7  A    between atoms: C_12  and  C_15 
ROOT
HETATM    1  N   UNL     1      43.595 -17.025   4.379  1.00  0.00    -0.334 N 
HETATM    2  C   UNL     1      42.554 -16.851   3.488  1.00  0.00     0.321 C 
HETATM    3  O   UNL     1      41.466 -17.396   3.618  1.00  0.00    -0.247 OA
HETATM    4  N   UNL     1      42.906 -15.936   2.518  1.00  0.00    -0.309 N 
HETATM    5  H   UNL     1      44.513 -16.997   3.961  1.00  0.00     0.165 HD
HETATM    6  H   UNL     1      43.675 -15.333   2.766  1.00  0.00     0.170 HD
ENDROOT
BRANCH   1   7
HETATM    7  C   UNL     1      43.441 -17.882   5.548  1.00  0.00     0.121 C 
BRANCH   7   8
HETATM    8  C   UNL     1      44.190 -17.288   6.751  1.00  0.00     0.056 C 
BRANCH   8   9
HETATM    9  C   UNL     1      43.246 -16.961   7.901  1.00  0.00     0.166 C 
BRANCH   9  10
HETATM   10  O   UNL     1      43.619 -17.738   9.033  1.00  0.00    -0.401 OA
HETATM   11  H   UNL     1      44.565 -17.575   9.192  1.00  0.00     0.209 HD
ENDBRANCH   9  10
ENDBRANCH   8   9
ENDBRANCH   7   8
BRANCH   7  12
HETATM   12  C   UNL     1      43.904 -19.299   5.250  1.00  0.00    -0.032 A 
HETATM   13  C   UNL     1      43.950 -20.249   6.286  1.00  0.00     0.009 A 
HETATM   14  C   UNL     1      44.393 -21.552   6.048  1.00  0.00     0.004 A 
HETATM   15  C   UNL     1      44.787 -21.929   4.766  1.00  0.00     0.042 A 
HETATM   16  C   UNL     1      44.732 -20.998   3.736  1.00  0.00     0.117 A 
HETATM   17  F   UNL     1      45.104 -21.359   2.501  1.00  0.00    -0.206 F 
HETATM   18  C   UNL     1      44.298 -19.695   3.963  1.00  0.00     0.051 A 
ENDBRANCH   7  12
ENDBRANCH   1   7
BRANCH   4  19
HETATM   19  C   UNL     1      42.120 -15.537   1.420  1.00  0.00     0.036 A 
HETATM   20  C   UNL     1      41.465 -14.305   1.501  1.00  0.00     0.030 A 
HETATM   21  C   UNL     1      40.644 -13.863   0.454  1.00  0.00     0.014 A 
HETATM   22  C   UNL     1      40.478 -14.631  -0.706  1.00  0.00    -0.023 A 
HETATM   23  C   UNL     1      41.172 -15.846  -0.792  1.00  0.00     0.014 A 
HETATM   24  C   UNL     1      41.982 -16.297   0.261  1.00  0.00     0.030 A 
BRANCH  22  25
HETATM   25  C   UNL     1      39.605 -14.169  -1.778  1.00  0.00     0.010 A 
HETATM   26  C   UNL     1      38.250 -13.752  -1.756  1.00  0.00     0.152 A 
HETATM   27  N   UNL     1      37.784 -13.416  -2.963  1.00  0.00    -0.187 NA
HETATM   28  N   UNL     1      38.835 -13.619  -3.770  1.00  0.00    -0.289 N 
HETATM   29  H   UNL     1      38.725 -13.434  -4.760  1.00  0.00     0.188 HD
HETATM   30  C   UNL     1      39.944 -14.069  -3.113  1.00  0.00     0.123 A 
ENDBRANCH  22  25
ENDBRANCH   4  19
TORSDOF 7
ENDMDL
MODEL 7
REMARK VINA RESULT:      -7.6      7.380     10.753
REMARK  7 active torsions:
REMARK  status: ('A' for Active; 'I' for Inactive)
REMARK    1  A    between atoms: O_1  and  C_2 
REMARK    2  A    between atoms: C_2  and  C_3 
REMARK    3  A    between atoms: C_3  and  C_4 
REMARK    4  A    between atoms: C_4  and  N_5 
REMARK    5  A    between atoms: C_4  and  C_21 
REMARK       I    between atoms: N_5  and  C_6 
REMARK       I    between atoms: C_6  and  N_8 
REMARK    6  A    between atoms: N_8  and  C_9 
REMARK    7  A    between atoms: C_12  and  C_15 
ROOT
HETATM    1  N   UNL     1      42.765 -17.240   1.870  1.00  0.00    -0.334 N 
HETATM    2  C   UNL     1      41.733 -16.483   1.351  1.00  0.00     0.321 C 
HETATM    3  O   UNL     1      40.628 -16.415   1.870  1.00  0.00    -0.247 OA
HETATM    4  N   UNL     1      42.166 -15.785   0.243  1.00  0.00    -0.309 N 
HETATM    5  H   UNL     1      43.381 -17.639   1.178  1.00  0.00     0.165 HD
HETATM    6  H   UNL     1      43.167 -15.678   0.177  1.00  0.00     0.170 HD
ENDROOT
BRANCH   1   7
HETATM    7  C   UNL     1      42.584 -18.007   3.097  1.00  0.00     0.121 C 
BRANCH   7   8
HETATM    8  C   UNL     1      43.014 -17.178   4.317  1.00  0.00     0.056 C 
BRANCH   8   9
HETATM    9  C   UNL     1      41.914 -17.105   5.368  1.00  0.00     0.166 C 
BRANCH   9  10
HETATM   10  O   UNL     1      40.653 -17.112   4.711  1.00  0.00    -0.401 OA
HETATM   11  H   UNL     1      40.381 -18.042   4.624  1.00  0.00     0.209 HD
ENDBRANCH   9  10
ENDBRANCH   8   9
ENDBRANCH   7   8
BRANCH   7  12
HETATM   12  C   UNL     1      43.335 -19.327   3.029  1.00  0.00    -0.032 A 
HETATM   13  C   UNL     1      44.220 -19.679   4.064  1.00  0.00     0.009 A 
HETATM   14  C   UNL     1      44.942 -20.874   4.018  1.00  0.00     0.004 A 
HETATM   15  C   UNL     1      44.781 -21.742   2.941  1.00  0.00     0.042 A 
HETATM   16  C   UNL     1      43.898 -21.406   1.922  1.00  0.00     0.117 A 
HETATM   17  F   UNL     1      43.736 -22.242   0.888  1.00  0.00    -0.206 F 
HETATM   18  C   UNL     1      43.179 -20.214   1.954  1.00  0.00     0.051 A 
ENDBRANCH   7  12
ENDBRANCH   1   7
BRANCH   4  19
HETATM   19  C   UNL     1      41.386 -14.944  -0.574  1.00  0.00     0.036 A 
HETATM   20  C   UNL     1      40.893 -15.474  -1.769  1.00  0.00     0.030 A 
HETATM   21  C   UNL     1      40.134 -14.680  -2.641  1.00  0.00     0.014 A 
HETATM   22  C   UNL     1      39.832 -13.348  -2.327  1.00  0.00    -0.023 A 
HETATM   23  C   UNL     1      40.299 -12.841  -1.106  1.00  0.00     0.014 A 
HETATM   24  C   UNL     1      41.071 -13.629  -0.240  1.00  0.00     0.030 A 
BRANCH  22  25
HETATM   25  C   UNL     1      39.060 -12.529  -3.253  1.00  0.00     0.010 A 
HETATM   26  C   UNL     1      37.667 -12.489  -3.517  1.00  0.00     0.152 A 
HETATM   27  N   UNL     1      37.337 -11.606  -4.465  1.00  0.00    -0.187 NA
HETATM   28  N   UNL     1      38.516 -11.076  -4.819  1.00  0.00    -0.289 N 
HETATM   29  H   UNL     1      38.527 -10.366  -5.544  1.00  0.00     0.188 HD
HETATM   30  C   UNL     1      39.574 -11.592  -4.128  1.00  0.00     0.123 A 
ENDBRANCH  22  25
ENDBRANCH   4  19
TORSDOF 7
ENDMDL
MODEL 8
REMARK VINA RESULT:      -7.5      7.226      9.316
REMARK  7 active torsions:
REMARK  status: ('A' for Active; 'I' for Inactive)
REMARK    1  A    between atoms: O_1  and  C_2 
REMARK    2  A    between atoms: C_2  and  C_3 
REMARK    3  A    between atoms: C_3  and  C_4 
REMARK    4  A    between atoms: C_4  and  N_5 
REMARK    5  A    between atoms: C_4  and  C_21 
REMARK       I    between atoms: N_5  and  C_6 
REMARK       I    between atoms: C_6  and  N_8 
REMARK    6  A    between atoms: N_8  and  C_9 
REMARK    7  A    between atoms: C_12  and  C_15 
ROOT
HETATM    1  N   UNL     1      41.942 -14.723  -0.721  1.00  0.00    -0.334 N 
HETATM    2  C   UNL     1      41.851 -15.481   0.430  1.00  0.00     0.321 C 
HETATM    3  O   UNL     1      40.862 -15.483   1.151  1.00  0.00    -0.247 OA
HETATM    4  N   UNL     1      42.979 -16.260   0.577  1.00  0.00    -0.309 N 
HETATM    5  H   UNL     1      42.870 -14.386  -0.929  1.00  0.00     0.165 HD
HETATM    6  H   UNL     1      43.508 -16.400  -0.270  1.00  0.00     0.170 HD
ENDROOT
BRANCH   1   7
HETATM    7  C   UNL     1      40.835 -13.876  -1.147  1.00  0.00     0.121 C 
BRANCH   7   8
HETATM    8  C   UNL     1      40.039 -14.556  -2.271  1.00  0.00     0.056 C 
BRANCH   8   9
HETATM    9  C   UNL     1      40.832 -15.679  -2.927  1.00  0.00     0.166 C 
BRANCH   9  10
HETATM   10  O   UNL     1      41.952 -15.115  -3.598  1.00  0.00    -0.401 OA
HETATM   11  H   UNL     1      41.937 -15.452  -4.511  1.00  0.00     0.209 HD
ENDBRANCH   9  10
ENDBRANCH   8   9
ENDBRANCH   7   8
BRANCH   7  12
HETATM   12  C   UNL     1      41.332 -12.503  -1.571  1.00  0.00    -0.032 A 
HETATM   13  C   UNL     1      42.615 -12.077  -1.185  1.00  0.00     0.009 A 
HETATM   14  C   UNL     1      43.090 -10.811  -1.540  1.00  0.00     0.004 A 
HETATM   15  C   UNL     1      42.292  -9.957  -2.296  1.00  0.00     0.042 A 
HETATM   16  C   UNL     1      41.028 -10.377  -2.691  1.00  0.00     0.117 A 
HETATM   17  F   UNL     1      40.260  -9.559  -3.423  1.00  0.00    -0.206 F 
HETATM   18  C   UNL     1      40.542 -11.633  -2.338  1.00  0.00     0.051 A 
ENDBRANCH   7  12
ENDBRANCH   1   7
BRANCH   4  19
HETATM   19  C   UNL     1      43.263 -17.127   1.650  1.00  0.00     0.036 A 
HETATM   20  C   UNL     1      43.572 -18.456   1.348  1.00  0.00     0.030 A 
HETATM   21  C   UNL     1      43.835 -19.377   2.372  1.00  0.00     0.014 A 
HETATM   22  C   UNL     1      43.818 -18.986   3.717  1.00  0.00    -0.023 A 
HETATM   23  C   UNL     1      43.547 -17.640   4.004  1.00  0.00     0.014 A 
HETATM   24  C   UNL     1      43.268 -16.721   2.982  1.00  0.00     0.030 A 
BRANCH  22  25
HETATM   25  C   UNL     1      44.074 -19.958   4.772  1.00  0.00     0.010 A 
HETATM   26  C   UNL     1      44.671 -21.243   4.725  1.00  0.00     0.152 A 
HETATM   27  N   UNL     1      44.709 -21.850   5.915  1.00  0.00    -0.187 NA
HETATM   28  N   UNL     1      44.131 -20.961   6.735  1.00  0.00    -0.289 N 
HETATM   29  H   UNL     1      44.037 -21.200   7.716  1.00  0.00     0.188 HD
HETATM   30  C   UNL     1      43.734 -19.817   6.103  1.00  0.00     0.123 A 
ENDBRANCH  22  25
ENDBRANCH   4  19
TORSDOF 7
ENDMDL
MODEL 9
REMARK VINA RESULT:      -7.4      7.240      9.917
REMARK  7 active torsions:
REMARK  status: ('A' for Active; 'I' for Inactive)
REMARK    1  A    between atoms: O_1  and  C_2 
REMARK    2  A    between atoms: C_2  and  C_3 
REMARK    3  A    between atoms: C_3  and  C_4 
REMARK    4  A    between atoms: C_4  and  N_5 
REMARK    5  A    between atoms: C_4  and  C_21 
REMARK       I    between atoms: N_5  and  C_6 
REMARK       I    between atoms: C_6  and  N_8 
REMARK    6  A    between atoms: N_8  and  C_9 
REMARK    7  A    between atoms: C_12  and  C_15 
ROOT
HETATM    1  N   UNL     1      42.489 -15.677   2.563  1.00  0.00    -0.334 N 
HETATM    2  C   UNL     1      41.293 -15.589   1.878  1.00  0.00     0.321 C 
HETATM    3  O   UNL     1      40.244 -16.049   2.306  1.00  0.00    -0.247 OA
HETATM    4  N   UNL     1      41.461 -14.855   0.722  1.00  0.00    -0.309 N 
HETATM    5  H   UNL     1      43.304 -15.762   1.974  1.00  0.00     0.165 HD
HETATM    6  H   UNL     1      42.276 -14.262   0.713  1.00  0.00     0.170 HD
ENDROOT
BRANCH   1   7
HETATM    7  C   UNL     1      42.559 -16.332   3.863  1.00  0.00     0.121 C 
BRANCH   7   8
HETATM    8  C   UNL     1      43.270 -15.430   4.882  1.00  0.00     0.056 C 
BRANCH   8   9
HETATM    9  C   UNL     1      43.199 -13.961   4.485  1.00  0.00     0.166 C 
BRANCH   9  10
HETATM   10  O   UNL     1      44.270 -13.676   3.594  1.00  0.00    -0.401 OA
HETATM   11  H   UNL     1      43.990 -12.926   3.041  1.00  0.00     0.209 HD
ENDBRANCH   9  10
ENDBRANCH   8   9
ENDBRANCH   7   8
BRANCH   7  12
HETATM   12  C   UNL     1      43.237 -17.689   3.754  1.00  0.00    -0.032 A 
HETATM   13  C   UNL     1      44.032 -18.157   4.815  1.00  0.00     0.009 A 
HETATM   14  C   UNL     1      44.687 -19.389   4.734  1.00  0.00     0.004 A 
HETATM   15  C   UNL     1      44.547 -20.176   3.594  1.00  0.00     0.042 A 
HETATM   16  C   UNL     1      43.752 -19.725   2.548  1.00  0.00     0.117 A 
HETATM   17  F   UNL     1      43.611 -20.483   1.452  1.00  0.00    -0.206 F 
HETATM   18  C   UNL     1      43.101 -18.496   2.615  1.00  0.00     0.051 A 
ENDBRANCH   7  12
ENDBRANCH   1   7
BRANCH   4  19
HETATM   19  C   UNL     1      40.477 -14.591  -0.250  1.00  0.00     0.036 A 
HETATM   20  C   UNL     1      40.728 -15.006  -1.561  1.00  0.00     0.030 A 
HETATM   21  C   UNL     1      39.803 -14.747  -2.581  1.00  0.00     0.014 A 
HETATM   22  C   UNL     1      38.595 -14.088  -2.311  1.00  0.00    -0.023 A 
HETATM   23  C   UNL     1      38.337 -13.713  -0.984  1.00  0.00     0.014 A 
HETATM   24  C   UNL     1      39.269 -13.958   0.035  1.00  0.00     0.030 A 
BRANCH  22  25
HETATM   25  C   UNL     1      37.651 -13.807  -3.385  1.00  0.00     0.010 A 
HETATM   26  C   UNL     1      37.062 -12.589  -3.807  1.00  0.00     0.152 A 
HETATM   27  N   UNL     1      36.216 -12.741  -4.830  1.00  0.00    -0.187 NA
HETATM   28  N   UNL     1      36.253 -14.060  -5.071  1.00  0.00    -0.289 N 
HETATM   29  H   UNL     1      35.677 -14.429  -5.818  1.00  0.00     0.188 HD
HETATM   30  C   UNL     1      37.092 -14.740  -4.236  1.00  0.00     0.123 A 
ENDBRANCH  22  25
ENDBRANCH   4  19
TORSDOF 7
ENDMDL
MODEL 10
REMARK VINA RESULT:      -7.2      6.118      7.216
REMARK  7 active torsions:
REMARK  status: ('A' for Active; 'I' for Inactive)
REMARK    1  A    between atoms: O_1  and  C_2 
REMARK    2  A    between atoms: C_2  and  C_3 
REMARK    3  A    between atoms: C_3  and  C_4 
REMARK    4  A    between atoms: C_4  and  N_5 
REMARK    5  A    between atoms: C_4  and  C_21 
REMARK       I    between atoms: N_5  and  C_6 
REMARK       I    between atoms: C_6  and  N_8 
REMARK    6  A    between atoms: N_8  and  C_9 
REMARK    7  A    between atoms: C_12  and  C_15 
ROOT
HETATM    1  N   UNL     1      41.566 -14.087   1.084  1.00  0.00    -0.334 N 
HETATM    2  C   UNL     1      41.544 -15.406   1.492  1.00  0.00     0.321 C 
HETATM    3  O   UNL     1      40.513 -16.060   1.581  1.00  0.00    -0.247 OA
HETATM    4  N   UNL     1      42.829 -15.864   1.693  1.00  0.00    -0.309 N 
HETATM    5  H   UNL     1      42.285 -13.527   1.518  1.00  0.00     0.165 HD
HETATM    6  H   UNL     1      43.546 -15.323   1.234  1.00  0.00     0.170 HD
ENDROOT
BRANCH   1   7
HETATM    7  C   UNL     1      40.335 -13.395   0.724  1.00  0.00     0.121 C 
BRANCH   7   8
HETATM    8  C   UNL     1      40.445 -12.801  -0.687  1.00  0.00     0.056 C 
BRANCH   8   9
HETATM    9  C   UNL     1      40.398 -13.881  -1.762  1.00  0.00     0.166 C 
BRANCH   9  10
HETATM   10  O   UNL     1      39.685 -15.001  -1.253  1.00  0.00    -0.401 OA
HETATM   11  H   UNL     1      39.253 -15.432  -2.010  1.00  0.00     0.209 HD
ENDBRANCH   9  10
ENDBRANCH   8   9
ENDBRANCH   7   8
BRANCH   7  12
HETATM   12  C   UNL     1      39.989 -12.328   1.751  1.00  0.00    -0.032 A 
HETATM   13  C   UNL     1      40.357 -10.991   1.516  1.00  0.00     0.009 A 
HETATM   14  C   UNL     1      40.074  -9.993   2.452  1.00  0.00     0.004 A 
HETATM   15  C   UNL     1      39.410 -10.315   3.632  1.00  0.00     0.042 A 
HETATM   16  C   UNL     1      39.033 -11.632   3.864  1.00  0.00     0.117 A 
HETATM   17  F   UNL     1      38.388 -11.944   4.996  1.00  0.00    -0.206 F 
HETATM   18  C   UNL     1      39.315 -12.636   2.942  1.00  0.00     0.051 A 
ENDBRANCH   7  12
ENDBRANCH   1   7
BRANCH   4  19
HETATM   19  C   UNL     1      43.200 -17.143   2.151  1.00  0.00     0.036 A 
HETATM   20  C   UNL     1      43.492 -17.288   3.510  1.00  0.00     0.030 A 
HETATM   21  C   UNL     1      43.896 -18.528   4.025  1.00  0.00     0.014 A 
HETATM   22  C   UNL     1      43.993 -19.655   3.198  1.00  0.00    -0.023 A 
HETATM   23  C   UNL     1      43.658 -19.506   1.845  1.00  0.00     0.014 A 
HETATM   24  C   UNL     1      43.269 -18.262   1.326  1.00  0.00     0.030 A 
BRANCH  22  25
HETATM   25  C   UNL     1      44.434 -20.933   3.742  1.00  0.00     0.010 A 
HETATM   26  C   UNL     1      44.949 -21.270   5.020  1.00  0.00     0.152 A 
HETATM   27  N   UNL     1      45.265 -22.563   5.135  1.00  0.00    -0.187 NA
HETATM   28  N   UNL     1      44.961 -23.066   3.930  1.00  0.00    -0.289 N 
HETATM   29  H   UNL     1      45.121 -24.054   3.766  1.00  0.00     0.188 HD
HETATM   30  C   UNL     1      44.463 -22.136   3.064  1.00  0.00     0.123 A 
ENDBRANCH  22  25
ENDBRANCH   4  19
TORSDOF 7
ENDMDL
