MODEL 1
REMARK VINA RESULT:      -8.0      0.000      0.000
REMARK  4 active torsions:
REMARK  status: ('A' for Active; 'I' for Inactive)
REMARK    1  A    between atoms: C_2  and  N_3 
REMARK    2  A    between atoms: C_2  and  C_14 
REMARK    3  A    between atoms: N_3  and  C_6 
REMARK    4  A    between atoms: C_6  and  C_7 
ROOT
HETATM    1  C   UNL     1      44.241 -15.936   6.980  1.00  0.00     0.048 C 
HETATM    2  C   UNL     1      42.871 -16.599   7.000  1.00  0.00     0.251 C 
ENDROOT
BRANCH   2   3
HETATM    3  N   UNL     1      43.023 -18.071   6.697  1.00  0.00    -0.060 N 
HETATM    4  H   UNL     1      42.628 -18.577   7.508  1.00  0.00     0.278 HD
HETATM    5  H   UNL     1      42.369 -18.333   5.946  1.00  0.00     0.278 HD
BRANCH   3   6
HETATM    6  C   UNL     1      44.385 -18.577   6.413  1.00  0.00     0.271 C 
BRANCH   6   7
HETATM    7  C   UNL     1      44.398 -19.414   5.165  1.00  0.00    -0.033 A 
HETATM    8  C   UNL     1      44.025 -18.857   3.930  1.00  0.00     0.010 A 
HETATM    9  C   UNL     1      44.006 -19.646   2.776  1.00  0.00     0.024 A 
HETATM   10  C   UNL     1      44.356 -20.992   2.848  1.00  0.00     0.034 A 
HETATM   11 CL   UNL     1      44.333 -21.958   1.427  1.00  0.00    -0.084 Cl
HETATM   12  C   UNL     1      44.724 -21.558   4.066  1.00  0.00     0.024 A 
HETATM   13  C   UNL     1      44.741 -20.775   5.223  1.00  0.00     0.010 A 
ENDBRANCH   6   7
ENDBRANCH   3   6
ENDBRANCH   2   3
BRANCH   2  14
HETATM   14  C   UNL     1      41.934 -15.978   5.951  1.00  0.00     0.138 A 
HETATM   15  N   UNL     1      41.868 -16.543   4.785  1.00  0.00    -0.232 NA
HETATM   16  C   UNL     1      41.013 -15.963   3.826  1.00  0.00     0.074 A 
HETATM   17  C   UNL     1      40.241 -14.827   4.095  1.00  0.00     0.061 A 
HETATM   18  C   UNL     1      40.932 -16.536   2.556  1.00  0.00     0.032 A 
HETATM   19  C   UNL     1      40.347 -14.243   5.441  1.00  0.00     0.259 A 
HETATM   20  C   UNL     1      39.405 -14.263   3.128  1.00  0.00     0.019 A 
HETATM   21  O   UNL     1      39.715 -13.256   5.791  1.00  0.00    -0.267 OA
HETATM   22  N   UNL     1      41.211 -14.875   6.301  1.00  0.00    -0.309 N 
HETATM   23  H   UNL     1      41.256 -14.444   7.217  1.00  0.00     0.170 HD
HETATM   24  C   UNL     1      39.338 -14.847   1.865  1.00  0.00     0.001 A 
HETATM   25  C   UNL     1      40.098 -15.981   1.578  1.00  0.00     0.002 A 
ENDBRANCH   2  14
TORSDOF 4
ENDMDL
MODEL 2
REMARK VINA RESULT:      -7.9      4.531      5.918
REMARK  4 active torsions:
REMARK  status: ('A' for Active; 'I' for Inactive)
REMARK    1  A    between atoms: C_2  and  N_3 
REMARK    2  A    between atoms: C_2  and  C_14 
REMARK    3  A    between atoms: N_3  and  C_6 
REMARK    4  A    between atoms: C_6  and  C_7 
ROOT
HETATM    1  C   UNL     1      40.780 -15.978   1.742  1.00  0.00     0.048 C 
HETATM    2  C   UNL     1      41.336 -16.571   0.455  1.00  0.00     0.251 C 
ENDROOT
BRANCH   2   3
HETATM    3  N   UNL     1      42.749 -17.048   0.695  1.00  0.00    -0.060 N 
HETATM    4  H   UNL     1      42.741 -18.071   0.537  1.00  0.00     0.278 HD
HETATM    5  H   UNL     1      43.354 -16.722  -0.072  1.00  0.00     0.278 HD
BRANCH   3   6
HETATM    6  C   UNL     1      43.359 -16.757   2.012  1.00  0.00     0.271 C 
BRANCH   6   7
HETATM    7  C   UNL     1      43.744 -18.026   2.718  1.00  0.00    -0.033 A 
HETATM    8  C   UNL     1      43.995 -18.024   4.101  1.00  0.00     0.010 A 
HETATM    9  C   UNL     1      44.385 -19.199   4.751  1.00  0.00     0.024 A 
HETATM   10  C   UNL     1      44.528 -20.380   4.026  1.00  0.00     0.034 A 
HETATM   11 CL   UNL     1      45.006 -21.822   4.827  1.00  0.00    -0.084 Cl
HETATM   12  C   UNL     1      44.287 -20.395   2.654  1.00  0.00     0.024 A 
HETATM   13  C   UNL     1      43.901 -19.223   2.000  1.00  0.00     0.010 A 
ENDBRANCH   6   7
ENDBRANCH   3   6
ENDBRANCH   2   3
BRANCH   2  14
HETATM   14  C   UNL     1      41.358 -15.529  -0.676  1.00  0.00     0.138 A 
HETATM   15  N   UNL     1      41.904 -14.378  -0.431  1.00  0.00    -0.232 NA
HETATM   16  C   UNL     1      41.913 -13.425  -1.471  1.00  0.00     0.074 A 
HETATM   17  C   UNL     1      41.372 -13.687  -2.735  1.00  0.00     0.061 A 
HETATM   18  C   UNL     1      42.477 -12.171  -1.235  1.00  0.00     0.032 A 
HETATM   19  C   UNL     1      40.783 -15.016  -2.955  1.00  0.00     0.259 A 
HETATM   20  C   UNL     1      41.385 -12.727  -3.750  1.00  0.00     0.019 A 
HETATM   21  O   UNL     1      40.288 -15.358  -4.020  1.00  0.00    -0.267 OA
HETATM   22  N   UNL     1      40.816 -15.871  -1.880  1.00  0.00    -0.309 N 
HETATM   23  H   UNL     1      40.401 -16.775  -2.071  1.00  0.00     0.170 HD
HETATM   24  C   UNL     1      41.950 -11.478  -3.497  1.00  0.00     0.001 A 
HETATM   25  C   UNL     1      42.496 -11.200  -2.243  1.00  0.00     0.002 A 
ENDBRANCH   2  14
TORSDOF 4
ENDMDL
MODEL 3
REMARK VINA RESULT:      -7.8      2.928      6.380
REMARK  4 active torsions:
REMARK  status: ('A' for Active; 'I' for Inactive)
REMARK    1  A    between atoms: C_2  and  N_3 
REMARK    2  A    between atoms: C_2  and  C_14 
REMARK    3  A    between atoms: N_3  and  C_6 
REMARK    4  A    between atoms: C_6  and  C_7 
ROOT
HETATM    1  C   UNL     1      41.084 -15.549   5.784  1.00  0.00     0.048 C 
HETATM    2  C   UNL     1      41.528 -15.765   4.344  1.00  0.00     0.251 C 
ENDROOT
BRANCH   2   3
HETATM    3  N   UNL     1      40.312 -15.977   3.473  1.00  0.00    -0.060 N 
HETATM    4  H   UNL     1      40.561 -16.725   2.803  1.00  0.00     0.278 HD
HETATM    5  H   UNL     1      39.571 -16.429   4.027  1.00  0.00     0.278 HD
BRANCH   3   6
HETATM    6  C   UNL     1      39.782 -14.808   2.735  1.00  0.00     0.271 C 
BRANCH   6   7
HETATM    7  C   UNL     1      40.128 -14.894   1.274  1.00  0.00    -0.033 A 
HETATM    8  C   UNL     1      40.965 -15.918   0.799  1.00  0.00     0.010 A 
HETATM    9  C   UNL     1      41.312 -15.978  -0.553  1.00  0.00     0.024 A 
HETATM   10  C   UNL     1      40.828 -15.017  -1.438  1.00  0.00     0.034 A 
HETATM   11 CL   UNL     1      41.256 -15.093  -3.100  1.00  0.00    -0.084 Cl
HETATM   12  C   UNL     1      40.002 -13.994  -0.980  1.00  0.00     0.024 A 
HETATM   13  C   UNL     1      39.655 -13.928   0.372  1.00  0.00     0.010 A 
ENDBRANCH   6   7
ENDBRANCH   3   6
ENDBRANCH   2   3
BRANCH   2  14
HETATM   14  C   UNL     1      42.439 -16.996   4.219  1.00  0.00     0.138 A 
HETATM   15  N   UNL     1      42.270 -17.776   3.197  1.00  0.00    -0.232 NA
HETATM   16  C   UNL     1      43.105 -18.908   3.093  1.00  0.00     0.074 A 
HETATM   17  C   UNL     1      44.097 -19.200   4.036  1.00  0.00     0.061 A 
HETATM   18  C   UNL     1      42.936 -19.777   2.014  1.00  0.00     0.032 A 
HETATM   19  C   UNL     1      44.251 -18.267   5.163  1.00  0.00     0.259 A 
HETATM   20  C   UNL     1      44.909 -20.330   3.919  1.00  0.00     0.019 A 
HETATM   21  O   UNL     1      45.088 -18.417   6.042  1.00  0.00    -0.267 OA
HETATM   22  N   UNL     1      43.387 -17.200   5.179  1.00  0.00    -0.309 N 
HETATM   23  H   UNL     1      43.524 -16.582   5.970  1.00  0.00     0.170 HD
HETATM   24  C   UNL     1      44.727 -21.189   2.837  1.00  0.00     0.001 A 
HETATM   25  C   UNL     1      43.744 -20.914   1.886  1.00  0.00     0.002 A 
ENDBRANCH   2  14
TORSDOF 4
ENDMDL
MODEL 4
REMARK VINA RESULT:      -7.7      3.919      7.581
REMARK  4 active torsions:
REMARK  status: ('A' for Active; 'I' for Inactive)
REMARK    1  A    between atoms: C_2  and  N_3 
REMARK    2  A    between atoms: C_2  and  C_14 
REMARK    3  A    between atoms: N_3  and  C_6 
REMARK    4  A    between atoms: C_6  and  C_7 
ROOT
HETATM    1  C   UNL     1      40.124 -16.218   1.965  1.00  0.00     0.048 C 
HETATM    2  C   UNL     1      41.618 -16.020   1.753  1.00  0.00     0.251 C 
ENDROOT
BRANCH   2   3
HETATM    3  N   UNL     1      41.916 -16.019   0.272  1.00  0.00    -0.060 N 
HETATM    4  H   UNL     1      42.882 -16.375   0.170  1.00  0.00     0.278 HD
HETATM    5  H   UNL     1      41.369 -16.762  -0.186  1.00  0.00     0.278 HD
BRANCH   3   6
HETATM    6  C   UNL     1      41.781 -14.737  -0.457  1.00  0.00     0.271 C 
BRANCH   6   7
HETATM    7  C   UNL     1      40.619 -14.780  -1.409  1.00  0.00    -0.033 A 
HETATM    8  C   UNL     1      40.699 -15.527  -2.597  1.00  0.00     0.010 A 
HETATM    9  C   UNL     1      39.629 -15.540  -3.497  1.00  0.00     0.024 A 
HETATM   10  C   UNL     1      38.478 -14.807  -3.219  1.00  0.00     0.034 A 
HETATM   11 CL   UNL     1      37.165 -14.825  -4.327  1.00  0.00    -0.084 Cl
HETATM   12  C   UNL     1      38.387 -14.059  -2.048  1.00  0.00     0.024 A 
HETATM   13  C   UNL     1      39.455 -14.041  -1.147  1.00  0.00     0.010 A 
ENDBRANCH   6   7
ENDBRANCH   3   6
ENDBRANCH   2   3
BRANCH   2  14
HETATM   14  C   UNL     1      42.430 -17.144   2.414  1.00  0.00     0.138 A 
HETATM   15  N   UNL     1      42.554 -18.264   1.770  1.00  0.00    -0.232 NA
HETATM   16  C   UNL     1      43.294 -19.294   2.388  1.00  0.00     0.074 A 
HETATM   17  C   UNL     1      43.895 -19.140   3.642  1.00  0.00     0.061 A 
HETATM   18  C   UNL     1      43.432 -20.517   1.729  1.00  0.00     0.032 A 
HETATM   19  C   UNL     1      43.732 -17.841   4.314  1.00  0.00     0.259 A 
HETATM   20  C   UNL     1      44.618 -20.175   4.240  1.00  0.00     0.019 A 
HETATM   21  O   UNL     1      44.218 -17.591   5.408  1.00  0.00    -0.267 OA
HETATM   22  N   UNL     1      42.989 -16.906   3.635  1.00  0.00    -0.309 N 
HETATM   23  H   UNL     1      42.900 -16.026   4.130  1.00  0.00     0.170 HD
HETATM   24  C   UNL     1      44.744 -21.391   3.570  1.00  0.00     0.001 A 
HETATM   25  C   UNL     1      44.153 -21.562   2.317  1.00  0.00     0.002 A 
ENDBRANCH   2  14
TORSDOF 4
ENDMDL
MODEL 5
REMARK VINA RESULT:      -7.7      2.822      6.339
REMARK  4 active torsions:
REMARK  status: ('A' for Active; 'I' for Inactive)
REMARK    1  A    between atoms: C_2  and  N_3 
REMARK    2  A    between atoms: C_2  and  C_14 
REMARK    3  A    between atoms: N_3  and  C_6 
REMARK    4  A    between atoms: C_6  and  C_7 
ROOT
HETATM    1  C   UNL     1      43.413 -17.595   7.710  1.00  0.00     0.048 C 
HETATM    2  C   UNL     1      44.068 -17.069   6.441  1.00  0.00     0.251 C 
ENDROOT
BRANCH   2   3
HETATM    3  N   UNL     1      43.249 -15.923   5.895  1.00  0.00    -0.060 N 
HETATM    4  H   UNL     1      43.651 -15.060   6.300  1.00  0.00     0.278 HD
HETATM    5  H   UNL     1      43.457 -15.803   4.894  1.00  0.00     0.278 HD
BRANCH   3   6
HETATM    6  C   UNL     1      41.788 -15.947   6.132  1.00  0.00     0.271 C 
BRANCH   6   7
HETATM    7  C   UNL     1      41.035 -15.577   4.885  1.00  0.00    -0.033 A 
HETATM    8  C   UNL     1      41.054 -16.424   3.764  1.00  0.00     0.010 A 
HETATM    9  C   UNL     1      40.380 -16.064   2.593  1.00  0.00     0.024 A 
HETATM   10  C   UNL     1      39.686 -14.857   2.534  1.00  0.00     0.034 A 
HETATM   11 CL   UNL     1      38.859 -14.417   1.095  1.00  0.00    -0.084 Cl
HETATM   12  C   UNL     1      39.663 -14.006   3.636  1.00  0.00     0.024 A 
HETATM   13  C   UNL     1      40.338 -14.361   4.807  1.00  0.00     0.010 A 
ENDBRANCH   6   7
ENDBRANCH   3   6
ENDBRANCH   2   3
BRANCH   2  14
HETATM   14  C   UNL     1      44.157 -18.162   5.365  1.00  0.00     0.138 A 
HETATM   15  N   UNL     1      44.357 -19.384   5.754  1.00  0.00    -0.232 NA
HETATM   16  C   UNL     1      44.446 -20.380   4.760  1.00  0.00     0.074 A 
HETATM   17  C   UNL     1      44.315 -20.096   3.396  1.00  0.00     0.061 A 
HETATM   18  C   UNL     1      44.678 -21.702   5.145  1.00  0.00     0.032 A 
HETATM   19  C   UNL     1      44.073 -18.694   3.019  1.00  0.00     0.259 A 
HETATM   20  C   UNL     1      44.413 -21.096   2.426  1.00  0.00     0.019 A 
HETATM   21  O   UNL     1      43.936 -18.330   1.860  1.00  0.00    -0.267 OA
HETATM   22  N   UNL     1      44.009 -17.798   4.058  1.00  0.00    -0.309 N 
HETATM   23  H   UNL     1      43.842 -16.845   3.758  1.00  0.00     0.170 HD
HETATM   24  C   UNL     1      44.647 -22.410   2.827  1.00  0.00     0.001 A 
HETATM   25  C   UNL     1      44.779 -22.713   4.183  1.00  0.00     0.002 A 
ENDBRANCH   2  14
TORSDOF 4
ENDMDL
MODEL 6
REMARK VINA RESULT:      -7.7      4.012      7.479
REMARK  4 active torsions:
REMARK  status: ('A' for Active; 'I' for Inactive)
REMARK    1  A    between atoms: C_2  and  N_3 
REMARK    2  A    between atoms: C_2  and  C_14 
REMARK    3  A    between atoms: N_3  and  C_6 
REMARK    4  A    between atoms: C_6  and  C_7 
ROOT
HETATM    1  C   UNL     1      42.374 -15.612   2.712  1.00  0.00     0.048 C 
HETATM    2  C   UNL     1      43.344 -16.473   1.916  1.00  0.00     0.251 C 
ENDROOT
BRANCH   2   3
HETATM    3  N   UNL     1      42.697 -16.881   0.613  1.00  0.00    -0.060 N 
HETATM    4  H   UNL     1      43.350 -16.597  -0.137  1.00  0.00     0.278 HD
HETATM    5  H   UNL     1      42.714 -17.907   0.531  1.00  0.00     0.278 HD
BRANCH   3   6
HETATM    6  C   UNL     1      41.346 -16.350   0.321  1.00  0.00     0.271 C 
BRANCH   6   7
HETATM    7  C   UNL     1      41.398 -15.325  -0.777  1.00  0.00    -0.033 A 
HETATM    8  C   UNL     1      41.750 -13.994  -0.493  1.00  0.00     0.010 A 
HETATM    9  C   UNL     1      41.767 -13.034  -1.510  1.00  0.00     0.024 A 
HETATM   10  C   UNL     1      41.432 -13.396  -2.813  1.00  0.00     0.034 A 
HETATM   11 CL   UNL     1      41.454 -12.215  -4.060  1.00  0.00    -0.084 Cl
HETATM   12  C   UNL     1      41.077 -14.710  -3.108  1.00  0.00     0.024 A 
HETATM   13  C   UNL     1      41.055 -15.672  -2.094  1.00  0.00     0.010 A 
ENDBRANCH   6   7
ENDBRANCH   3   6
ENDBRANCH   2   3
BRANCH   2  14
HETATM   14  C   UNL     1      43.727 -17.744   2.690  1.00  0.00     0.138 A 
HETATM   15  N   UNL     1      43.763 -18.865   2.038  1.00  0.00    -0.232 NA
HETATM   16  C   UNL     1      44.108 -20.028   2.758  1.00  0.00     0.074 A 
HETATM   17  C   UNL     1      44.417 -20.004   4.122  1.00  0.00     0.061 A 
HETATM   18  C   UNL     1      44.139 -21.253   2.090  1.00  0.00     0.032 A 
HETATM   19  C   UNL     1      44.375 -18.700   4.801  1.00  0.00     0.259 A 
HETATM   20  C   UNL     1      44.750 -21.169   4.819  1.00  0.00     0.019 A 
HETATM   21  O   UNL     1      44.633 -18.557   5.988  1.00  0.00    -0.267 OA
HETATM   22  N   UNL     1      44.022 -17.629   4.017  1.00  0.00    -0.309 N 
HETATM   23  H   UNL     1      44.005 -16.750   4.521  1.00  0.00     0.170 HD
HETATM   24  C   UNL     1      44.774 -22.384   4.137  1.00  0.00     0.001 A 
HETATM   25  C   UNL     1      44.470 -22.427   2.776  1.00  0.00     0.002 A 
ENDBRANCH   2  14
TORSDOF 4
ENDMDL
MODEL 7
REMARK VINA RESULT:      -7.5      1.943      2.739
REMARK  4 active torsions:
REMARK  status: ('A' for Active; 'I' for Inactive)
REMARK    1  A    between atoms: C_2  and  N_3 
REMARK    2  A    between atoms: C_2  and  C_14 
REMARK    3  A    between atoms: N_3  and  C_6 
REMARK    4  A    between atoms: C_6  and  C_7 
ROOT
HETATM    1  C   UNL     1      40.698 -15.492   5.659  1.00  0.00     0.048 C 
HETATM    2  C   UNL     1      41.181 -16.304   4.466  1.00  0.00     0.251 C 
ENDROOT
BRANCH   2   3
HETATM    3  N   UNL     1      42.691 -16.343   4.467  1.00  0.00    -0.060 N 
HETATM    4  H   UNL     1      42.981 -16.414   3.476  1.00  0.00     0.278 HD
HETATM    5  H   UNL     1      43.056 -15.417   4.728  1.00  0.00     0.278 HD
BRANCH   3   6
HETATM    6  C   UNL     1      43.350 -17.412   5.252  1.00  0.00     0.271 C 
BRANCH   6   7
HETATM    7  C   UNL     1      43.716 -18.575   4.373  1.00  0.00    -0.033 A 
HETATM    8  C   UNL     1      43.335 -18.594   3.021  1.00  0.00     0.010 A 
HETATM    9  C   UNL     1      43.648 -19.691   2.213  1.00  0.00     0.024 A 
HETATM   10  C   UNL     1      44.339 -20.775   2.750  1.00  0.00     0.034 A 
HETATM   11 CL   UNL     1      44.723 -22.122   1.754  1.00  0.00    -0.084 Cl
HETATM   12  C   UNL     1      44.719 -20.772   4.090  1.00  0.00     0.024 A 
HETATM   13  C   UNL     1      44.405 -19.679   4.902  1.00  0.00     0.010 A 
ENDBRANCH   6   7
ENDBRANCH   3   6
ENDBRANCH   2   3
BRANCH   2  14
HETATM   14  C   UNL     1      40.710 -15.684   3.141  1.00  0.00     0.138 A 
HETATM   15  N   UNL     1      41.247 -16.117   2.042  1.00  0.00    -0.232 NA
HETATM   16  C   UNL     1      40.815 -15.537   0.831  1.00  0.00     0.074 A 
HETATM   17  C   UNL     1      39.836 -14.539   0.782  1.00  0.00     0.061 A 
HETATM   18  C   UNL     1      41.386 -15.969  -0.368  1.00  0.00     0.032 A 
HETATM   19  C   UNL     1      39.253 -14.103   2.060  1.00  0.00     0.259 A 
HETATM   20  C   UNL     1      39.426 -13.972  -0.428  1.00  0.00     0.019 A 
HETATM   21  O   UNL     1      38.386 -13.243   2.139  1.00  0.00    -0.267 OA
HETATM   22  N   UNL     1      39.743 -14.722   3.184  1.00  0.00    -0.309 N 
HETATM   23  H   UNL     1      39.318 -14.394   4.043  1.00  0.00     0.170 HD
HETATM   24  C   UNL     1      40.008 -14.413  -1.615  1.00  0.00     0.001 A 
HETATM   25  C   UNL     1      40.985 -15.409  -1.586  1.00  0.00     0.002 A 
ENDBRANCH   2  14
TORSDOF 4
ENDMDL
MODEL 8
REMARK VINA RESULT:      -7.5      3.452      4.615
REMARK  4 active torsions:
REMARK  status: ('A' for Active; 'I' for Inactive)
REMARK    1  A    between atoms: C_2  and  N_3 
REMARK    2  A    between atoms: C_2  and  C_14 
REMARK    3  A    between atoms: N_3  and  C_6 
REMARK    4  A    between atoms: C_6  and  C_7 
ROOT
HETATM    1  C   UNL     1      41.242 -15.911   3.378  1.00  0.00     0.048 C 
HETATM    2  C   UNL     1      41.605 -16.513   2.028  1.00  0.00     0.251 C 
ENDROOT
BRANCH   2   3
HETATM    3  N   UNL     1      42.989 -17.114   2.105  1.00  0.00    -0.060 N 
HETATM    4  H   UNL     1      43.636 -16.403   1.724  1.00  0.00     0.278 HD
HETATM    5  H   UNL     1      43.285 -17.163   3.090  1.00  0.00     0.278 HD
BRANCH   3   6
HETATM    6  C   UNL     1      43.216 -18.407   1.420  1.00  0.00     0.271 C 
BRANCH   6   7
HETATM    7  C   UNL     1      43.720 -19.444   2.383  1.00  0.00    -0.033 A 
HETATM    8  C   UNL     1      43.986 -19.105   3.721  1.00  0.00     0.010 A 
HETATM    9  C   UNL     1      44.485 -20.063   4.608  1.00  0.00     0.024 A 
HETATM   10  C   UNL     1      44.722 -21.363   4.166  1.00  0.00     0.034 A 
HETATM   11 CL   UNL     1      45.335 -22.538   5.259  1.00  0.00    -0.084 Cl
HETATM   12  C   UNL     1      44.467 -21.712   2.842  1.00  0.00     0.024 A 
HETATM   13  C   UNL     1      43.972 -20.756   1.951  1.00  0.00     0.010 A 
ENDBRANCH   6   7
ENDBRANCH   3   6
ENDBRANCH   2   3
BRANCH   2  14
HETATM   14  C   UNL     1      41.596 -15.447   0.921  1.00  0.00     0.138 A 
HETATM   15  N   UNL     1      41.165 -15.793  -0.252  1.00  0.00    -0.232 NA
HETATM   16  C   UNL     1      41.168 -14.811  -1.265  1.00  0.00     0.074 A 
HETATM   17  C   UNL     1      41.601 -13.501  -1.040  1.00  0.00     0.061 A 
HETATM   18  C   UNL     1      40.726 -15.157  -2.544  1.00  0.00     0.032 A 
HETATM   19  C   UNL     1      42.062 -13.165   0.316  1.00  0.00     0.259 A 
HETATM   20  C   UNL     1      41.602 -12.544  -2.059  1.00  0.00     0.019 A 
HETATM   21  O   UNL     1      42.456 -12.051   0.630  1.00  0.00    -0.267 OA
HETATM   22  N   UNL     1      42.028 -14.190   1.230  1.00  0.00    -0.309 N 
HETATM   23  H   UNL     1      42.353 -13.920   2.151  1.00  0.00     0.170 HD
HETATM   24  C   UNL     1      41.160 -12.906  -3.330  1.00  0.00     0.001 A 
HETATM   25  C   UNL     1      40.723 -14.208  -3.573  1.00  0.00     0.002 A 
ENDBRANCH   2  14
TORSDOF 4
ENDMDL
MODEL 9
REMARK VINA RESULT:      -7.1      3.690      7.351
REMARK  4 active torsions:
REMARK  status: ('A' for Active; 'I' for Inactive)
REMARK    1  A    between atoms: C_2  and  N_3 
REMARK    2  A    between atoms: C_2  and  C_14 
REMARK    3  A    between atoms: N_3  and  C_6 
REMARK    4  A    between atoms: C_6  and  C_7 
ROOT
HETATM    1  C   UNL     1      42.816 -15.249   4.517  1.00  0.00     0.048 C 
HETATM    2  C   UNL     1      43.070 -16.003   3.220  1.00  0.00     0.251 C 
ENDROOT
BRANCH   2   3
HETATM    3  N   UNL     1      41.797 -16.043   2.408  1.00  0.00    -0.060 N 
HETATM    4  H   UNL     1      41.595 -17.042   2.232  1.00  0.00     0.278 HD
HETATM    5  H   UNL     1      41.004 -15.770   3.005  1.00  0.00     0.278 HD
BRANCH   3   6
HETATM    6  C   UNL     1      41.775 -15.301   1.127  1.00  0.00     0.271 C 
BRANCH   6   7
HETATM    7  C   UNL     1      40.511 -14.500   0.992  1.00  0.00    -0.033 A 
HETATM    8  C   UNL     1      39.944 -13.869   2.112  1.00  0.00     0.010 A 
HETATM    9  C   UNL     1      38.751 -13.151   1.992  1.00  0.00     0.024 A 
HETATM   10  C   UNL     1      38.116 -13.060   0.755  1.00  0.00     0.034 A 
HETATM   11 CL   UNL     1      36.650 -12.177   0.609  1.00  0.00    -0.084 Cl
HETATM   12  C   UNL     1      38.664 -13.684  -0.363  1.00  0.00     0.024 A 
HETATM   13  C   UNL     1      39.855 -14.406  -0.247  1.00  0.00     0.010 A 
ENDBRANCH   6   7
ENDBRANCH   3   6
ENDBRANCH   2   3
BRANCH   2  14
HETATM   14  C   UNL     1      43.521 -17.447   3.493  1.00  0.00     0.138 A 
HETATM   15  N   UNL     1      43.403 -18.312   2.533  1.00  0.00    -0.232 NA
HETATM   16  C   UNL     1      43.812 -19.637   2.794  1.00  0.00     0.074 A 
HETATM   17  C   UNL     1      44.339 -20.032   4.028  1.00  0.00     0.061 A 
HETATM   18  C   UNL     1      43.682 -20.595   1.787  1.00  0.00     0.032 A 
HETATM   19  C   UNL     1      44.463 -19.001   5.070  1.00  0.00     0.259 A 
HETATM   20  C   UNL     1      44.732 -21.351   4.268  1.00  0.00     0.019 A 
HETATM   21  O   UNL     1      44.916 -19.229   6.183  1.00  0.00    -0.267 OA
HETATM   22  N   UNL     1      44.033 -17.744   4.722  1.00  0.00    -0.309 N 
HETATM   23  H   UNL     1      44.134 -17.063   5.466  1.00  0.00     0.170 HD
HETATM   24  C   UNL     1      44.594 -22.296   3.254  1.00  0.00     0.001 A 
HETATM   25  C   UNL     1      44.071 -21.920   2.016  1.00  0.00     0.002 A 
ENDBRANCH   2  14
TORSDOF 4
ENDMDL
MODEL 10
REMARK VINA RESULT:      -7.0      3.254      6.943
REMARK  4 active torsions:
REMARK  status: ('A' for Active; 'I' for Inactive)
REMARK    1  A    between atoms: C_2  and  N_3 
REMARK    2  A    between atoms: C_2  and  C_14 
REMARK    3  A    between atoms: N_3  and  C_6 
REMARK    4  A    between atoms: C_6  and  C_7 
ROOT
HETATM    1  C   UNL     1      40.588 -15.473   5.550  1.00  0.00     0.048 C 
HETATM    2  C   UNL     1      41.076 -15.430   4.109  1.00  0.00     0.251 C 
ENDROOT
BRANCH   2   3
HETATM    3  N   UNL     1      39.887 -15.488   3.178  1.00  0.00    -0.060 N 
HETATM    4  H   UNL     1      40.166 -16.097   2.389  1.00  0.00     0.278 HD
HETATM    5  H   UNL     1      39.138 -16.042   3.617  1.00  0.00     0.278 HD
BRANCH   3   6
HETATM    6  C   UNL     1      39.362 -14.208   2.653  1.00  0.00     0.271 C 
BRANCH   6   7
HETATM    7  C   UNL     1      39.422 -14.178   1.151  1.00  0.00    -0.033 A 
HETATM    8  C   UNL     1      38.279 -13.858   0.399  1.00  0.00     0.010 A 
HETATM    9  C   UNL     1      38.328 -13.862  -0.998  1.00  0.00     0.024 A 
HETATM   10  C   UNL     1      39.514 -14.189  -1.651  1.00  0.00     0.034 A 
HETATM   11 CL   UNL     1      39.571 -14.193  -3.368  1.00  0.00    -0.084 Cl
HETATM   12  C   UNL     1      40.653 -14.513  -0.918  1.00  0.00     0.024 A 
HETATM   13  C   UNL     1      40.608 -14.513   0.478  1.00  0.00     0.010 A 
ENDBRANCH   6   7
ENDBRANCH   3   6
ENDBRANCH   2   3
BRANCH   2  14
HETATM   14  C   UNL     1      42.000 -16.617   3.796  1.00  0.00     0.138 A 
HETATM   15  N   UNL     1      42.387 -17.363   4.785  1.00  0.00    -0.232 NA
HETATM   16  C   UNL     1      43.242 -18.446   4.490  1.00  0.00     0.074 A 
HETATM   17  C   UNL     1      43.665 -18.738   3.189  1.00  0.00     0.061 A 
HETATM   18  C   UNL     1      43.690 -19.258   5.534  1.00  0.00     0.032 A 
HETATM   19  C   UNL     1      43.178 -17.865   2.109  1.00  0.00     0.259 A 
HETATM   20  C   UNL     1      44.517 -19.812   2.919  1.00  0.00     0.019 A 
HETATM   21  O   UNL     1      43.475 -18.029   0.935  1.00  0.00    -0.267 OA
HETATM   22  N   UNL     1      42.356 -16.835   2.497  1.00  0.00    -0.309 N 
HETATM   23  H   UNL     1      42.043 -16.257   1.726  1.00  0.00     0.170 HD
HETATM   24  C   UNL     1      44.957 -20.611   3.973  1.00  0.00     0.001 A 
HETATM   25  C   UNL     1      44.545 -20.336   5.277  1.00  0.00     0.002 A 
ENDBRANCH   2  14
TORSDOF 4
ENDMDL
