MODEL 1
REMARK VINA RESULT:      -8.9      0.000      0.000
REMARK  3 active torsions:
REMARK  status: ('A' for Active; 'I' for Inactive)
REMARK    1  A    between atoms: C_8  and  C_9 
REMARK    2  A    between atoms: C_9  and  N_10 
REMARK    3  A    between atoms: C_14  and  C_15 
ROOT
HETATM    1  N   UNL     1      42.320 -16.891   3.359  1.00  0.00    -0.066 N 
HETATM    2  H   UNL     1      41.799 -17.559   3.943  1.00  0.00     0.280 HD
HETATM    3  C   UNL     1      41.808 -15.503   3.671  1.00  0.00     0.236 C 
HETATM    4  C   UNL     1      40.355 -15.362   3.242  1.00  0.00     0.037 C 
HETATM    5  C   UNL     1      40.163 -15.655   1.749  1.00  0.00     0.024 C 
HETATM    6  C   UNL     1      40.628 -17.110   1.539  1.00  0.00     0.037 C 
HETATM    7  C   UNL     1      42.093 -17.295   1.918  1.00  0.00     0.236 C 
ENDROOT
BRANCH   1   8
HETATM    8  C   UNL     1      43.774 -17.008   3.780  1.00  0.00     0.293 C 
BRANCH   8   9
HETATM    9  C   UNL     1      44.019 -18.116   4.719  1.00  0.00     0.061 A 
HETATM   10  N   UNL     1      44.226 -19.436   4.351  1.00  0.00    -0.307 N 
HETATM   11  C   UNL     1      44.246 -20.039   3.089  1.00  0.00     0.105 A 
HETATM   12  C   UNL     1      44.403 -20.150   5.533  1.00  0.00     0.133 A 
HETATM   13  C   UNL     1      44.444 -21.368   2.986  1.00  0.00    -0.046 A 
HETATM   14  C   UNL     1      44.483 -22.109   1.685  1.00  0.00     0.049 C 
HETATM   15  C   UNL     1      44.638 -22.135   4.213  1.00  0.00     0.012 A 
HETATM   16  C   UNL     1      44.619 -21.551   5.426  1.00  0.00     0.051 A 
HETATM   17  N   UNL     1      44.332 -19.364   6.584  1.00  0.00    -0.241 NA
HETATM   18  C   UNL     1      44.126 -18.108   6.096  1.00  0.00     0.146 A 
ENDBRANCH   8   9
ENDBRANCH   1   8
BRANCH   5  19
HETATM   19  C   UNL     1      40.849 -14.685   0.795  1.00  0.00    -0.024 A 
HETATM   20  C   UNL     1      41.050 -14.772  -0.635  1.00  0.00     0.018 A 
HETATM   21  C   UNL     1      41.678 -13.593  -1.031  1.00  0.00     0.138 A 
HETATM   22  C   UNL     1      40.781 -15.694  -1.667  1.00  0.00     0.017 A 
HETATM   23  N   UNL     1      42.012 -13.204  -2.273  1.00  0.00    -0.242 NA
HETATM   24  N   UNL     1      41.947 -12.854   0.081  1.00  0.00    -0.350 N 
HETATM   25  C   UNL     1      41.716 -14.118  -3.217  1.00  0.00     0.119 A 
HETATM   26  C   UNL     1      41.124 -15.347  -2.978  1.00  0.00     0.020 A 
HETATM   27  H   UNL     1      42.449 -11.977   0.058  1.00  0.00     0.166 HD
HETATM   28  C   UNL     1      41.468 -13.502   1.186  1.00  0.00     0.098 A 
ENDBRANCH   5  19
TORSDOF 3
ENDMDL
MODEL 2
REMARK VINA RESULT:      -8.6      2.521      6.301
REMARK  3 active torsions:
REMARK  status: ('A' for Active; 'I' for Inactive)
REMARK    1  A    between atoms: C_8  and  C_9 
REMARK    2  A    between atoms: C_9  and  N_10 
REMARK    3  A    between atoms: C_14  and  C_15 
ROOT
HETATM    1  N   UNL     1      40.915 -15.607   2.463  1.00  0.00    -0.066 N 
HETATM    2  H   UNL     1      40.424 -15.195   1.659  1.00  0.00     0.280 HD
HETATM    3  C   UNL     1      42.399 -15.392   2.262  1.00  0.00     0.236 C 
HETATM    4  C   UNL     1      42.891 -16.169   1.050  1.00  0.00     0.037 C 
HETATM    5  C   UNL     1      42.604 -17.670   1.172  1.00  0.00     0.024 C 
HETATM    6  C   UNL     1      41.072 -17.802   1.286  1.00  0.00     0.037 C 
HETATM    7  C   UNL     1      40.532 -17.072   2.511  1.00  0.00     0.236 C 
ENDROOT
BRANCH   1   8
HETATM    8  C   UNL     1      40.445 -14.837   3.684  1.00  0.00     0.293 C 
BRANCH   8   9
HETATM    9  C   UNL     1      41.545 -14.192   4.420  1.00  0.00     0.061 A 
HETATM   10  N   UNL     1      42.300 -14.801   5.411  1.00  0.00    -0.307 N 
HETATM   11  C   UNL     1      42.225 -16.088   5.953  1.00  0.00     0.105 A 
HETATM   12  C   UNL     1      43.214 -13.846   5.850  1.00  0.00     0.133 A 
HETATM   13  C   UNL     1      43.065 -16.446   6.944  1.00  0.00    -0.046 A 
HETATM   14  C   UNL     1      43.068 -17.796   7.593  1.00  0.00     0.049 C 
HETATM   15  C   UNL     1      44.037 -15.462   7.416  1.00  0.00     0.012 A 
HETATM   16  C   UNL     1      44.106 -14.224   6.891  1.00  0.00     0.051 A 
HETATM   17  N   UNL     1      43.080 -12.716   5.194  1.00  0.00    -0.241 NA
HETATM   18  C   UNL     1      42.079 -12.925   4.293  1.00  0.00     0.146 A 
ENDBRANCH   8   9
ENDBRANCH   1   8
BRANCH   5  19
HETATM   19  C   UNL     1      43.332 -18.390   2.301  1.00  0.00    -0.024 A 
HETATM   20  C   UNL     1      43.669 -19.788   2.448  1.00  0.00     0.018 A 
HETATM   21  C   UNL     1      44.390 -19.911   3.635  1.00  0.00     0.138 A 
HETATM   22  C   UNL     1      43.469 -20.986   1.732  1.00  0.00     0.017 A 
HETATM   23  N   UNL     1      44.957 -21.013   4.154  1.00  0.00    -0.242 NA
HETATM   24  N   UNL     1      44.421 -18.696   4.247  1.00  0.00    -0.350 N 
HETATM   25  C   UNL     1      44.745 -22.121   3.418  1.00  0.00     0.119 A 
HETATM   26  C   UNL     1      44.024 -22.166   2.237  1.00  0.00     0.020 A 
HETATM   27  H   UNL     1      44.841 -18.540   5.153  1.00  0.00     0.166 HD
HETATM   28  C   UNL     1      43.778 -17.775   3.466  1.00  0.00     0.098 A 
ENDBRANCH   5  19
TORSDOF 3
ENDMDL
MODEL 3
REMARK VINA RESULT:      -8.5      2.219      8.571
REMARK  3 active torsions:
REMARK  status: ('A' for Active; 'I' for Inactive)
REMARK    1  A    between atoms: C_8  and  C_9 
REMARK    2  A    between atoms: C_9  and  N_10 
REMARK    3  A    between atoms: C_14  and  C_15 
ROOT
HETATM    1  N   UNL     1      42.004 -16.360   0.506  1.00  0.00    -0.066 N 
HETATM    2  H   UNL     1      42.427 -16.675  -0.376  1.00  0.00     0.280 HD
HETATM    3  C   UNL     1      43.122 -15.915   1.424  1.00  0.00     0.236 C 
HETATM    4  C   UNL     1      44.003 -17.096   1.801  1.00  0.00     0.037 C 
HETATM    5  C   UNL     1      43.207 -18.220   2.473  1.00  0.00     0.024 C 
HETATM    6  C   UNL     1      42.152 -18.668   1.440  1.00  0.00     0.037 C 
HETATM    7  C   UNL     1      41.215 -17.528   1.059  1.00  0.00     0.236 C 
ENDROOT
BRANCH   1   8
HETATM    8  C   UNL     1      41.126 -15.172   0.154  1.00  0.00     0.293 C 
BRANCH   8   9
HETATM    9  C   UNL     1      41.251 -14.757  -1.254  1.00  0.00     0.061 A 
HETATM   10  N   UNL     1      41.766 -13.541  -1.678  1.00  0.00    -0.307 N 
HETATM   11  C   UNL     1      42.257 -12.454  -0.948  1.00  0.00     0.105 A 
HETATM   12  C   UNL     1      41.692 -13.548  -3.069  1.00  0.00     0.133 A 
HETATM   13  C   UNL     1      42.686 -11.353  -1.596  1.00  0.00    -0.046 A 
HETATM   14  C   UNL     1      43.229 -10.136  -0.911  1.00  0.00     0.049 C 
HETATM   15  C   UNL     1      42.623 -11.341  -3.056  1.00  0.00     0.012 A 
HETATM   16  C   UNL     1      42.150 -12.390  -3.754  1.00  0.00     0.051 A 
HETATM   17  N   UNL     1      41.187 -14.675  -3.517  1.00  0.00    -0.241 NA
HETATM   18  C   UNL     1      40.940 -15.437  -2.414  1.00  0.00     0.146 A 
ENDBRANCH   8   9
ENDBRANCH   1   8
BRANCH   5  19
HETATM   19  C   UNL     1      42.586 -17.872   3.820  1.00  0.00    -0.024 A 
HETATM   20  C   UNL     1      43.159 -17.911   5.147  1.00  0.00     0.018 A 
HETATM   21  C   UNL     1      42.188 -17.434   6.025  1.00  0.00     0.138 A 
HETATM   22  C   UNL     1      44.383 -18.283   5.738  1.00  0.00     0.017 A 
HETATM   23  N   UNL     1      42.288 -17.239   7.350  1.00  0.00    -0.242 NA
HETATM   24  N   UNL     1      41.046 -17.204   5.320  1.00  0.00    -0.350 N 
HETATM   25  C   UNL     1      43.484 -17.597   7.855  1.00  0.00     0.119 A 
HETATM   26  C   UNL     1      44.536 -18.116   7.119  1.00  0.00     0.020 A 
HETATM   27  H   UNL     1      40.180 -16.904   5.747  1.00  0.00     0.166 HD
HETATM   28  C   UNL     1      41.264 -17.475   3.997  1.00  0.00     0.098 A 
ENDBRANCH   5  19
TORSDOF 3
ENDMDL
MODEL 4
REMARK VINA RESULT:      -8.4      1.660      2.244
REMARK  3 active torsions:
REMARK  status: ('A' for Active; 'I' for Inactive)
REMARK    1  A    between atoms: C_8  and  C_9 
REMARK    2  A    between atoms: C_9  and  N_10 
REMARK    3  A    between atoms: C_14  and  C_15 
ROOT
HETATM    1  N   UNL     1      41.400 -15.633   2.937  1.00  0.00    -0.066 N 
HETATM    2  H   UNL     1      41.866 -15.297   3.790  1.00  0.00     0.280 HD
HETATM    3  C   UNL     1      42.176 -15.114   1.747  1.00  0.00     0.236 C 
HETATM    4  C   UNL     1      42.094 -13.597   1.678  1.00  0.00     0.037 C 
HETATM    5  C   UNL     1      40.645 -13.101   1.598  1.00  0.00     0.024 C 
HETATM    6  C   UNL     1      39.955 -13.600   2.884  1.00  0.00     0.037 C 
HETATM    7  C   UNL     1      39.975 -15.122   2.982  1.00  0.00     0.236 C 
ENDROOT
BRANCH   1   8
HETATM    8  C   UNL     1      41.481 -17.149   2.982  1.00  0.00     0.293 C 
BRANCH   8   9
HETATM    9  C   UNL     1      42.551 -17.646   3.863  1.00  0.00     0.061 A 
HETATM   10  N   UNL     1      43.305 -18.786   3.627  1.00  0.00    -0.307 N 
HETATM   11  C   UNL     1      43.254 -19.713   2.581  1.00  0.00     0.105 A 
HETATM   12  C   UNL     1      44.186 -18.901   4.699  1.00  0.00     0.133 A 
HETATM   13  C   UNL     1      44.087 -20.773   2.586  1.00  0.00    -0.046 A 
HETATM   14  C   UNL     1      44.114 -21.821   1.517  1.00  0.00     0.049 C 
HETATM   15  C   UNL     1      45.025 -20.910   3.698  1.00  0.00     0.012 A 
HETATM   16  C   UNL     1      45.070 -20.015   4.703  1.00  0.00     0.051 A 
HETATM   17  N   UNL     1      44.034 -17.915   5.554  1.00  0.00    -0.241 NA
HETATM   18  C   UNL     1      43.053 -17.122   5.037  1.00  0.00     0.146 A 
ENDBRANCH   8   9
ENDBRANCH   1   8
BRANCH   5  19
HETATM   19  C   UNL     1      39.881 -13.498   0.341  1.00  0.00    -0.024 A 
HETATM   20  C   UNL     1      40.350 -13.677  -1.015  1.00  0.00     0.018 A 
HETATM   21  C   UNL     1      39.260 -14.104  -1.771  1.00  0.00     0.138 A 
HETATM   22  C   UNL     1      41.563 -13.543  -1.721  1.00  0.00     0.017 A 
HETATM   23  N   UNL     1      39.230 -14.448  -3.069  1.00  0.00    -0.242 NA
HETATM   24  N   UNL     1      38.156 -14.098  -0.974  1.00  0.00    -0.350 N 
HETATM   25  C   UNL     1      40.420 -14.315  -3.685  1.00  0.00     0.119 A 
HETATM   26  C   UNL     1      41.585 -13.873  -3.080  1.00  0.00     0.020 A 
HETATM   27  H   UNL     1      37.227 -14.318  -1.308  1.00  0.00     0.166 HD
HETATM   28  C   UNL     1      38.509 -13.723   0.293  1.00  0.00     0.098 A 
ENDBRANCH   5  19
TORSDOF 3
ENDMDL
MODEL 5
REMARK VINA RESULT:      -8.3      2.322      3.299
REMARK  3 active torsions:
REMARK  status: ('A' for Active; 'I' for Inactive)
REMARK    1  A    between atoms: C_8  and  C_9 
REMARK    2  A    between atoms: C_9  and  N_10 
REMARK    3  A    between atoms: C_14  and  C_15 
ROOT
HETATM    1  N   UNL     1      40.995 -15.638   1.694  1.00  0.00    -0.066 N 
HETATM    2  H   UNL     1      41.344 -15.028   2.445  1.00  0.00     0.280 HD
HETATM    3  C   UNL     1      42.005 -15.615   0.569  1.00  0.00     0.236 C 
HETATM    4  C   UNL     1      42.084 -14.227  -0.048  1.00  0.00     0.037 C 
HETATM    5  C   UNL     1      40.725 -13.749  -0.571  1.00  0.00     0.024 C 
HETATM    6  C   UNL     1      39.785 -13.721   0.652  1.00  0.00     0.037 C 
HETATM    7  C   UNL     1      39.640 -15.101   1.284  1.00  0.00     0.236 C 
ENDROOT
BRANCH   1   8
HETATM    8  C   UNL     1      40.918 -17.034   2.287  1.00  0.00     0.293 C 
BRANCH   8   9
HETATM    9  C   UNL     1      41.979 -17.305   3.272  1.00  0.00     0.061 A 
HETATM   10  N   UNL     1      42.842 -18.389   3.228  1.00  0.00    -0.307 N 
HETATM   11  C   UNL     1      42.930 -19.449   2.320  1.00  0.00     0.105 A 
HETATM   12  C   UNL     1      43.672 -18.275   4.341  1.00  0.00     0.133 A 
HETATM   13  C   UNL     1      43.852 -20.415   2.507  1.00  0.00    -0.046 A 
HETATM   14  C   UNL     1      44.029 -21.590   1.596  1.00  0.00     0.049 C 
HETATM   15  C   UNL     1      44.737 -20.311   3.665  1.00  0.00     0.012 A 
HETATM   16  C   UNL     1      44.649 -19.289   4.536  1.00  0.00     0.051 A 
HETATM   17  N   UNL     1      43.387 -17.202   5.043  1.00  0.00    -0.241 NA
HETATM   18  C   UNL     1      42.369 -16.582   4.381  1.00  0.00     0.146 A 
ENDBRANCH   8   9
ENDBRANCH   1   8
BRANCH   5  19
HETATM   19  C   UNL     1      40.144 -14.554  -1.727  1.00  0.00    -0.024 A 
HETATM   20  C   UNL     1      38.939 -14.341  -2.497  1.00  0.00     0.018 A 
HETATM   21  C   UNL     1      38.903 -15.328  -3.480  1.00  0.00     0.138 A 
HETATM   22  C   UNL     1      37.859 -13.435  -2.506  1.00  0.00     0.017 A 
HETATM   23  N   UNL     1      38.000 -15.494  -4.461  1.00  0.00    -0.242 NA
HETATM   24  N   UNL     1      39.957 -16.167  -3.286  1.00  0.00    -0.350 N 
HETATM   25  C   UNL     1      37.002 -14.590  -4.427  1.00  0.00     0.119 A 
HETATM   26  C   UNL     1      36.881 -13.572  -3.496  1.00  0.00     0.020 A 
HETATM   27  H   UNL     1      40.117 -16.997  -3.840  1.00  0.00     0.166 HD
HETATM   28  C   UNL     1      40.704 -15.725  -2.228  1.00  0.00     0.098 A 
ENDBRANCH   5  19
TORSDOF 3
ENDMDL
MODEL 6
REMARK VINA RESULT:      -8.1      1.480      2.748
REMARK  3 active torsions:
REMARK  status: ('A' for Active; 'I' for Inactive)
REMARK    1  A    between atoms: C_8  and  C_9 
REMARK    2  A    between atoms: C_9  and  N_10 
REMARK    3  A    between atoms: C_14  and  C_15 
ROOT
HETATM    1  N   UNL     1      42.806 -15.758   4.822  1.00  0.00    -0.066 N 
HETATM    2  H   UNL     1      42.770 -15.460   5.806  1.00  0.00     0.280 HD
HETATM    3  C   UNL     1      43.278 -14.582   3.997  1.00  0.00     0.236 C 
HETATM    4  C   UNL     1      42.255 -13.457   4.038  1.00  0.00     0.037 C 
HETATM    5  C   UNL     1      40.878 -13.911   3.541  1.00  0.00     0.024 C 
HETATM    6  C   UNL     1      40.438 -15.047   4.486  1.00  0.00     0.037 C 
HETATM    7  C   UNL     1      41.412 -16.220   4.451  1.00  0.00     0.236 C 
ENDROOT
BRANCH   1   8
HETATM    8  C   UNL     1      43.831 -16.876   4.757  1.00  0.00     0.293 C 
BRANCH   8   9
HETATM    9  C   UNL     1      43.708 -17.705   3.546  1.00  0.00     0.061 A 
HETATM   10  N   UNL     1      43.972 -19.065   3.487  1.00  0.00    -0.307 N 
HETATM   11  C   UNL     1      44.407 -19.954   4.475  1.00  0.00     0.105 A 
HETATM   12  C   UNL     1      43.747 -19.451   2.168  1.00  0.00     0.133 A 
HETATM   13  C   UNL     1      44.623 -21.247   4.164  1.00  0.00    -0.046 A 
HETATM   14  C   UNL     1      45.088 -22.278   5.146  1.00  0.00     0.049 C 
HETATM   15  C   UNL     1      44.386 -21.675   2.788  1.00  0.00     0.012 A 
HETATM   16  C   UNL     1      43.967 -20.816   1.839  1.00  0.00     0.051 A 
HETATM   17  N   UNL     1      43.354 -18.437   1.431  1.00  0.00    -0.241 NA
HETATM   18  C   UNL     1      43.298 -17.365   2.272  1.00  0.00     0.146 A 
ENDBRANCH   8   9
ENDBRANCH   1   8
BRANCH   5  19
HETATM   19  C   UNL     1      40.809 -14.320   2.074  1.00  0.00    -0.024 A 
HETATM   20  C   UNL     1      41.324 -13.655   0.898  1.00  0.00     0.018 A 
HETATM   21  C   UNL     1      41.048 -14.481  -0.191  1.00  0.00     0.138 A 
HETATM   22  C   UNL     1      41.999 -12.456   0.594  1.00  0.00     0.017 A 
HETATM   23  N   UNL     1      41.387 -14.302  -1.478  1.00  0.00    -0.242 NA
HETATM   24  N   UNL     1      40.322 -15.545   0.250  1.00  0.00    -0.350 N 
HETATM   25  C   UNL     1      42.043 -13.148  -1.703  1.00  0.00     0.119 A 
HETATM   26  C   UNL     1      42.361 -12.211  -0.734  1.00  0.00     0.020 A 
HETATM   27  H   UNL     1      39.954 -16.260  -0.363  1.00  0.00     0.166 HD
HETATM   28  C   UNL     1      40.158 -15.456   1.605  1.00  0.00     0.098 A 
ENDBRANCH   5  19
TORSDOF 3
ENDMDL
MODEL 7
REMARK VINA RESULT:      -8.0      2.511      8.195
REMARK  3 active torsions:
REMARK  status: ('A' for Active; 'I' for Inactive)
REMARK    1  A    between atoms: C_8  and  C_9 
REMARK    2  A    between atoms: C_9  and  N_10 
REMARK    3  A    between atoms: C_14  and  C_15 
ROOT
HETATM    1  N   UNL     1      41.340 -16.246   2.998  1.00  0.00    -0.066 N 
HETATM    2  H   UNL     1      41.375 -15.330   3.462  1.00  0.00     0.280 HD
HETATM    3  C   UNL     1      41.341 -17.312   4.072  1.00  0.00     0.236 C 
HETATM    4  C   UNL     1      42.658 -17.298   4.833  1.00  0.00     0.037 C 
HETATM    5  C   UNL     1      43.862 -17.505   3.907  1.00  0.00     0.024 C 
HETATM    6  C   UNL     1      43.831 -16.334   2.904  1.00  0.00     0.037 C 
HETATM    7  C   UNL     1      42.545 -16.326   2.085  1.00  0.00     0.236 C 
ENDROOT
BRANCH   1   8
HETATM    8  C   UNL     1      40.025 -16.285   2.239  1.00  0.00     0.293 C 
BRANCH   8   9
HETATM    9  C   UNL     1      39.503 -14.946   1.916  1.00  0.00     0.061 A 
HETATM   10  N   UNL     1      39.375 -13.906   2.825  1.00  0.00    -0.307 N 
HETATM   11  C   UNL     1      39.667 -13.847   4.191  1.00  0.00     0.105 A 
HETATM   12  C   UNL     1      38.835 -12.833   2.118  1.00  0.00     0.133 A 
HETATM   13  C   UNL     1      39.427 -12.712   4.877  1.00  0.00    -0.046 A 
HETATM   14  C   UNL     1      39.703 -12.545   6.340  1.00  0.00     0.049 C 
HETATM   15  C   UNL     1      38.867 -11.572   4.155  1.00  0.00     0.012 A 
HETATM   16  C   UNL     1      38.588 -11.634   2.839  1.00  0.00     0.051 A 
HETATM   17  N   UNL     1      38.642 -13.139   0.855  1.00  0.00    -0.241 NA
HETATM   18  C   UNL     1      39.075 -14.423   0.712  1.00  0.00     0.146 A 
ENDBRANCH   8   9
ENDBRANCH   1   8
BRANCH   5  19
HETATM   19  C   UNL     1      43.934 -18.860   3.213  1.00  0.00    -0.024 A 
HETATM   20  C   UNL     1      44.303 -20.156   3.738  1.00  0.00     0.018 A 
HETATM   21  C   UNL     1      44.143 -21.075   2.704  1.00  0.00     0.138 A 
HETATM   22  C   UNL     1      44.752 -20.691   4.962  1.00  0.00     0.017 A 
HETATM   23  N   UNL     1      44.313 -22.407   2.740  1.00  0.00    -0.242 NA
HETATM   24  N   UNL     1      43.794 -20.397   1.576  1.00  0.00    -0.350 N 
HETATM   25  C   UNL     1      44.726 -22.861   3.938  1.00  0.00     0.119 A 
HETATM   26  C   UNL     1      44.962 -22.071   5.051  1.00  0.00     0.020 A 
HETATM   27  H   UNL     1      43.673 -20.841   0.675  1.00  0.00     0.166 HD
HETATM   28  C   UNL     1      43.678 -19.065   1.861  1.00  0.00     0.098 A 
ENDBRANCH   5  19
TORSDOF 3
ENDMDL
MODEL 8
REMARK VINA RESULT:      -8.0      2.178      8.684
REMARK  3 active torsions:
REMARK  status: ('A' for Active; 'I' for Inactive)
REMARK    1  A    between atoms: C_8  and  C_9 
REMARK    2  A    between atoms: C_9  and  N_10 
REMARK    3  A    between atoms: C_14  and  C_15 
ROOT
HETATM    1  N   UNL     1      41.161 -14.935   0.457  1.00  0.00    -0.066 N 
HETATM    2  H   UNL     1      40.507 -15.099  -0.319  1.00  0.00     0.280 HD
HETATM    3  C   UNL     1      42.035 -16.161   0.597  1.00  0.00     0.236 C 
HETATM    4  C   UNL     1      41.203 -17.362   1.021  1.00  0.00     0.037 C 
HETATM    5  C   UNL     1      40.458 -17.112   2.337  1.00  0.00     0.024 C 
HETATM    6  C   UNL     1      39.533 -15.905   2.079  1.00  0.00     0.037 C 
HETATM    7  C   UNL     1      40.324 -14.662   1.688  1.00  0.00     0.236 C 
ENDROOT
BRANCH   1   8
HETATM    8  C   UNL     1      42.010 -13.744   0.048  1.00  0.00     0.293 C 
BRANCH   8   9
HETATM    9  C   UNL     1      41.869 -13.393  -1.375  1.00  0.00     0.061 A 
HETATM   10  N   UNL     1      42.241 -12.178  -1.932  1.00  0.00    -0.307 N 
HETATM   11  C   UNL     1      42.793 -11.036  -1.344  1.00  0.00     0.105 A 
HETATM   12  C   UNL     1      41.929 -12.257  -3.287  1.00  0.00     0.133 A 
HETATM   13  C   UNL     1      43.046  -9.950  -2.101  1.00  0.00    -0.046 A 
HETATM   14  C   UNL     1      43.636  -8.679  -1.571  1.00  0.00     0.049 C 
HETATM   15  C   UNL     1      42.734 -10.013  -3.527  1.00  0.00     0.012 A 
HETATM   16  C   UNL     1      42.202 -11.115  -4.089  1.00  0.00     0.051 A 
HETATM   17  N   UNL     1      41.413 -13.426  -3.594  1.00  0.00    -0.241 NA
HETATM   18  C   UNL     1      41.399 -14.142  -2.435  1.00  0.00     0.146 A 
ENDBRANCH   8   9
ENDBRANCH   1   8
BRANCH   5  19
HETATM   19  C   UNL     1      41.339 -16.913   3.565  1.00  0.00    -0.024 A 
HETATM   20  C   UNL     1      42.485 -17.668   4.020  1.00  0.00     0.018 A 
HETATM   21  C   UNL     1      42.965 -17.031   5.163  1.00  0.00     0.138 A 
HETATM   22  C   UNL     1      43.200 -18.814   3.618  1.00  0.00     0.017 A 
HETATM   23  N   UNL     1      44.046 -17.341   5.897  1.00  0.00    -0.242 NA
HETATM   24  N   UNL     1      42.124 -16.005   5.469  1.00  0.00    -0.350 N 
HETATM   25  C   UNL     1      44.697 -18.435   5.456  1.00  0.00     0.119 A 
HETATM   26  C   UNL     1      44.326 -19.192   4.357  1.00  0.00     0.020 A 
HETATM   27  H   UNL     1      42.230 -15.424   6.290  1.00  0.00     0.166 HD
HETATM   28  C   UNL     1      41.135 -15.929   4.527  1.00  0.00     0.098 A 
ENDBRANCH   5  19
TORSDOF 3
ENDMDL
MODEL 9
REMARK VINA RESULT:      -8.0      0.859      2.015
REMARK  3 active torsions:
REMARK  status: ('A' for Active; 'I' for Inactive)
REMARK    1  A    between atoms: C_8  and  C_9 
REMARK    2  A    between atoms: C_9  and  N_10 
REMARK    3  A    between atoms: C_14  and  C_15 
ROOT
HETATM    1  N   UNL     1      42.125 -16.951   3.400  1.00  0.00    -0.066 N 
HETATM    2  H   UNL     1      41.568 -17.576   3.997  1.00  0.00     0.280 HD
HETATM    3  C   UNL     1      41.739 -15.527   3.731  1.00  0.00     0.236 C 
HETATM    4  C   UNL     1      40.291 -15.264   3.348  1.00  0.00     0.037 C 
HETATM    5  C   UNL     1      40.030 -15.531   1.862  1.00  0.00     0.024 C 
HETATM    6  C   UNL     1      40.365 -17.019   1.633  1.00  0.00     0.037 C 
HETATM    7  C   UNL     1      41.821 -17.327   1.965  1.00  0.00     0.236 C 
ENDROOT
BRANCH   1   8
HETATM    8  C   UNL     1      43.577 -17.191   3.774  1.00  0.00     0.293 C 
BRANCH   8   9
HETATM    9  C   UNL     1      44.030 -18.563   3.490  1.00  0.00     0.061 A 
HETATM   10  N   UNL     1      44.090 -19.586   4.423  1.00  0.00    -0.307 N 
HETATM   11  C   UNL     1      43.777 -19.598   5.786  1.00  0.00     0.105 A 
HETATM   12  C   UNL     1      44.581 -20.702   3.749  1.00  0.00     0.133 A 
HETATM   13  C   UNL     1      43.947 -20.728   6.501  1.00  0.00    -0.046 A 
HETATM   14  C   UNL     1      43.642 -20.846   7.963  1.00  0.00     0.049 C 
HETATM   15  C   UNL     1      44.454 -21.912   5.813  1.00  0.00     0.012 A 
HETATM   16  C   UNL     1      44.754 -21.896   4.500  1.00  0.00     0.051 A 
HETATM   17  N   UNL     1      44.807 -20.437   2.483  1.00  0.00    -0.241 NA
HETATM   18  C   UNL     1      44.445 -19.135   2.304  1.00  0.00     0.146 A 
ENDBRANCH   8   9
ENDBRANCH   1   8
BRANCH   5  19
HETATM   19  C   UNL     1      40.764 -14.617   0.889  1.00  0.00    -0.024 A 
HETATM   20  C   UNL     1      40.991 -14.759  -0.532  1.00  0.00     0.018 A 
HETATM   21  C   UNL     1      41.662 -13.614  -0.955  1.00  0.00     0.138 A 
HETATM   22  C   UNL     1      40.715 -15.708  -1.537  1.00  0.00     0.017 A 
HETATM   23  N   UNL     1      42.033 -13.279  -2.202  1.00  0.00    -0.242 NA
HETATM   24  N   UNL     1      41.931 -12.845   0.136  1.00  0.00    -0.350 N 
HETATM   25  C   UNL     1      41.729 -14.215  -3.120  1.00  0.00     0.119 A 
HETATM   26  C   UNL     1      41.095 -15.417  -2.852  1.00  0.00     0.020 A 
HETATM   27  H   UNL     1      42.460 -11.984   0.094  1.00  0.00     0.166 HD
HETATM   28  C   UNL     1      41.410 -13.440   1.253  1.00  0.00     0.098 A 
ENDBRANCH   5  19
TORSDOF 3
ENDMDL
MODEL 10
REMARK VINA RESULT:      -8.0      3.217      7.951
REMARK  3 active torsions:
REMARK  status: ('A' for Active; 'I' for Inactive)
REMARK    1  A    between atoms: C_8  and  C_9 
REMARK    2  A    between atoms: C_9  and  N_10 
REMARK    3  A    between atoms: C_14  and  C_15 
ROOT
HETATM    1  N   UNL     1      42.045 -14.481   6.268  1.00  0.00    -0.066 N 
HETATM    2  H   UNL     1      41.828 -14.242   7.244  1.00  0.00     0.280 HD
HETATM    3  C   UNL     1      40.862 -15.232   5.699  1.00  0.00     0.236 C 
HETATM    4  C   UNL     1      40.687 -16.566   6.409  1.00  0.00     0.037 C 
HETATM    5  C   UNL     1      41.942 -17.440   6.312  1.00  0.00     0.024 C 
HETATM    6  C   UNL     1      43.072 -16.637   6.988  1.00  0.00     0.037 C 
HETATM    7  C   UNL     1      43.315 -15.305   6.287  1.00  0.00     0.236 C 
ENDROOT
BRANCH   1   8
HETATM    8  C   UNL     1      42.214 -13.160   5.538  1.00  0.00     0.293 C 
BRANCH   8   9
HETATM    9  C   UNL     1      41.001 -12.325   5.562  1.00  0.00     0.061 A 
HETATM   10  N   UNL     1      40.209 -12.048   4.458  1.00  0.00    -0.307 N 
HETATM   11  C   UNL     1      40.337 -12.438   3.122  1.00  0.00     0.105 A 
HETATM   12  C   UNL     1      39.182 -11.222   4.911  1.00  0.00     0.133 A 
HETATM   13  C   UNL     1      39.439 -12.012   2.212  1.00  0.00    -0.046 A 
HETATM   14  C   UNL     1      39.485 -12.371   0.758  1.00  0.00     0.049 C 
HETATM   15  C   UNL     1      38.350 -11.150   2.665  1.00  0.00     0.012 A 
HETATM   16  C   UNL     1      38.231 -10.776   3.954  1.00  0.00     0.051 A 
HETATM   17  N   UNL     1      39.285 -10.991   6.200  1.00  0.00    -0.241 NA
HETATM   18  C   UNL     1      40.380 -11.687   6.617  1.00  0.00     0.146 A 
ENDBRANCH   8   9
ENDBRANCH   1   8
BRANCH   5  19
HETATM   19  C   UNL     1      42.319 -17.899   4.909  1.00  0.00    -0.024 A 
HETATM   20  C   UNL     1      43.326 -18.842   4.477  1.00  0.00     0.018 A 
HETATM   21  C   UNL     1      43.217 -18.950   3.091  1.00  0.00     0.138 A 
HETATM   22  C   UNL     1      44.327 -19.637   5.071  1.00  0.00     0.017 A 
HETATM   23  N   UNL     1      43.908 -19.748   2.261  1.00  0.00    -0.242 NA
HETATM   24  N   UNL     1      42.276 -18.063   2.664  1.00  0.00    -0.350 N 
HETATM   25  C   UNL     1      44.838 -20.494   2.888  1.00  0.00     0.119 A 
HETATM   26  C   UNL     1      45.088 -20.476   4.250  1.00  0.00     0.020 A 
HETATM   27  H   UNL     1      42.054 -17.915   1.689  1.00  0.00     0.166 HD
HETATM   28  C   UNL     1      41.737 -17.415   3.741  1.00  0.00     0.098 A 
ENDBRANCH   5  19
TORSDOF 3
ENDMDL
