MODEL 1
REMARK VINA RESULT:      -8.9      0.000      0.000
REMARK  4 active torsions:
REMARK  status: ('A' for Active; 'I' for Inactive)
REMARK    1  A    between atoms: O_2  and  C_3 
REMARK    2  A    between atoms: C_7  and  C_8 
REMARK       I    between atoms: C_8  and  N_9 
REMARK    3  A    between atoms: N_9  and  C_10 
REMARK    4  A    between atoms: C_12  and  C_13 
ROOT
HETATM    1  C   UNL     1      44.155 -15.587   7.060  1.00  0.00     0.254 C 
HETATM    2  N   UNL     1      44.665 -14.335   6.785  1.00  0.00    -0.323 N 
HETATM    3  O   UNL     1      43.893 -16.035   8.171  1.00  0.00    -0.268 OA
HETATM    4  H   UNL     1      44.772 -14.081   5.814  1.00  0.00     0.169 HD
ENDROOT
BRANCH   1   5
HETATM    5  C   UNL     1      43.835 -16.412   5.850  1.00  0.00     0.035 C 
HETATM    6  C   UNL     1      44.227 -17.685   5.690  1.00  0.00     0.029 C 
HETATM    7  C   UNL     1      43.883 -18.347   4.436  1.00  0.00     0.001 A 
HETATM    8  C   UNL     1      42.969 -17.755   3.557  1.00  0.00     0.112 A 
HETATM    9  C   UNL     1      44.448 -19.585   4.114  1.00  0.00     0.014 A 
HETATM   10  C   UNL     1      42.592 -18.409   2.372  1.00  0.00     0.102 A 
HETATM   11  O   UNL     1      42.367 -16.555   3.837  1.00  0.00    -0.343 OA
HETATM   12  C   UNL     1      43.176 -19.638   2.054  1.00  0.00     0.040 A 
HETATM   13  C   UNL     1      44.102 -20.222   2.922  1.00  0.00     0.004 A 
HETATM   14  C   UNL     1      42.994 -15.713   4.816  1.00  0.00     0.220 C 
BRANCH  10  15
HETATM   15  O   UNL     1      41.674 -17.760   1.583  1.00  0.00    -0.353 OA
HETATM   16  C   UNL     1      42.184 -16.897   0.577  1.00  0.00     0.210 C 
ENDBRANCH  10  15
ENDBRANCH   1   5
BRANCH   2  17
HETATM   17  C   UNL     1      45.018 -13.325   7.709  1.00  0.00     0.035 A 
HETATM   18  C   UNL     1      44.187 -12.879   8.742  1.00  0.00     0.042 A 
HETATM   19  C   UNL     1      44.588 -11.845   9.609  1.00  0.00    -0.021 A 
HETATM   20  C   UNL     1      45.858 -11.281   9.435  1.00  0.00     0.012 A 
HETATM   21  C   UNL     1      46.700 -11.726   8.415  1.00  0.00     0.003 A 
HETATM   22  C   UNL     1      46.278 -12.737   7.553  1.00  0.00     0.029 A 
BRANCH  19  23
HETATM   23  C   UNL     1      43.707 -11.352  10.662  1.00  0.00     0.010 A 
HETATM   24  C   UNL     1      43.516 -11.791  11.995  1.00  0.00     0.152 A 
HETATM   25  N   UNL     1      42.624 -11.057  12.666  1.00  0.00    -0.187 NA
HETATM   26  N   UNL     1      42.235 -10.142  11.765  1.00  0.00    -0.289 N 
HETATM   27  H   UNL     1      41.544  -9.453  12.044  1.00  0.00     0.188 HD
HETATM   28  C   UNL     1      42.855 -10.272  10.556  1.00  0.00     0.123 A 
ENDBRANCH  19  23
ENDBRANCH   2  17
TORSDOF 4
ENDMDL
MODEL 2
REMARK VINA RESULT:      -8.8      1.561      2.321
REMARK  4 active torsions:
REMARK  status: ('A' for Active; 'I' for Inactive)
REMARK    1  A    between atoms: O_2  and  C_3 
REMARK    2  A    between atoms: C_7  and  C_8 
REMARK       I    between atoms: C_8  and  N_9 
REMARK    3  A    between atoms: N_9  and  C_10 
REMARK    4  A    between atoms: C_12  and  C_13 
ROOT
HETATM    1  C   UNL     1      43.852 -14.619   6.464  1.00  0.00     0.254 C 
HETATM    2  N   UNL     1      44.907 -14.409   7.327  1.00  0.00    -0.323 N 
HETATM    3  O   UNL     1      42.951 -13.827   6.214  1.00  0.00    -0.268 OA
HETATM    4  H   UNL     1      45.609 -15.133   7.385  1.00  0.00     0.169 HD
ENDROOT
BRANCH   1   5
HETATM    5  C   UNL     1      43.894 -15.926   5.728  1.00  0.00     0.035 C 
HETATM    6  C   UNL     1      43.440 -16.093   4.478  1.00  0.00     0.029 C 
HETATM    7  C   UNL     1      43.502 -17.435   3.909  1.00  0.00     0.001 A 
HETATM    8  C   UNL     1      44.237 -18.437   4.553  1.00  0.00     0.112 A 
HETATM    9  C   UNL     1      42.847 -17.724   2.707  1.00  0.00     0.014 A 
HETATM   10  C   UNL     1      44.347 -19.719   3.986  1.00  0.00     0.102 A 
HETATM   11  O   UNL     1      44.919 -18.201   5.718  1.00  0.00    -0.343 OA
HETATM   12  C   UNL     1      43.673 -19.998   2.794  1.00  0.00     0.040 A 
HETATM   13  C   UNL     1      42.924 -19.004   2.158  1.00  0.00     0.004 A 
HETATM   14  C   UNL     1      44.530 -17.057   6.492  1.00  0.00     0.220 C 
BRANCH  10  15
HETATM   15  O   UNL     1      45.105 -20.629   4.679  1.00  0.00    -0.353 OA
HETATM   16  C   UNL     1      44.750 -21.998   4.547  1.00  0.00     0.210 C 
ENDBRANCH  10  15
ENDBRANCH   1   5
BRANCH   2  17
HETATM   17  C   UNL     1      45.161 -13.266   8.117  1.00  0.00     0.035 A 
HETATM   18  C   UNL     1      44.345 -12.841   9.171  1.00  0.00     0.042 A 
HETATM   19  C   UNL     1      44.639 -11.673   9.899  1.00  0.00    -0.021 A 
HETATM   20  C   UNL     1      45.790 -10.948   9.566  1.00  0.00     0.012 A 
HETATM   21  C   UNL     1      46.618 -11.369   8.525  1.00  0.00     0.003 A 
HETATM   22  C   UNL     1      46.300 -12.517   7.801  1.00  0.00     0.029 A 
BRANCH  19  23
HETATM   23  C   UNL     1      43.767 -11.207  10.972  1.00  0.00     0.010 A 
HETATM   24  C   UNL     1      43.291 -11.863  12.134  1.00  0.00     0.152 A 
HETATM   25  N   UNL     1      42.521 -11.085  12.898  1.00  0.00    -0.187 NA
HETATM   26  N   UNL     1      42.495  -9.922  12.229  1.00  0.00    -0.289 N 
HETATM   27  H   UNL     1      41.961  -9.152  12.618  1.00  0.00     0.188 HD
HETATM   28  C   UNL     1      43.226  -9.942  11.076  1.00  0.00     0.123 A 
ENDBRANCH  19  23
ENDBRANCH   2  17
TORSDOF 4
ENDMDL
MODEL 3
REMARK VINA RESULT:      -8.7      6.402      9.689
REMARK  4 active torsions:
REMARK  status: ('A' for Active; 'I' for Inactive)
REMARK    1  A    between atoms: O_2  and  C_3 
REMARK    2  A    between atoms: C_7  and  C_8 
REMARK       I    between atoms: C_8  and  N_9 
REMARK    3  A    between atoms: N_9  and  C_10 
REMARK    4  A    between atoms: C_12  and  C_13 
ROOT
HETATM    1  C   UNL     1      41.433 -16.077   1.564  1.00  0.00     0.254 C 
HETATM    2  N   UNL     1      41.933 -15.696   0.336  1.00  0.00    -0.323 N 
HETATM    3  O   UNL     1      40.418 -15.645   2.099  1.00  0.00    -0.268 OA
HETATM    4  H   UNL     1      42.750 -16.185  -0.003  1.00  0.00     0.169 HD
ENDROOT
BRANCH   1   5
HETATM    5  C   UNL     1      42.197 -17.178   2.238  1.00  0.00     0.035 C 
HETATM    6  C   UNL     1      42.713 -18.232   1.589  1.00  0.00     0.029 C 
HETATM    7  C   UNL     1      43.389 -19.252   2.385  1.00  0.00     0.001 A 
HETATM    8  C   UNL     1      43.701 -19.003   3.727  1.00  0.00     0.112 A 
HETATM    9  C   UNL     1      43.750 -20.474   1.808  1.00  0.00     0.014 A 
HETATM   10  C   UNL     1      44.398 -19.957   4.487  1.00  0.00     0.102 A 
HETATM   11  O   UNL     1      43.393 -17.812   4.334  1.00  0.00    -0.343 OA
HETATM   12  C   UNL     1      44.737 -21.181   3.902  1.00  0.00     0.040 A 
HETATM   13  C   UNL     1      44.412 -21.438   2.568  1.00  0.00     0.004 A 
HETATM   14  C   UNL     1      42.382 -16.999   3.721  1.00  0.00     0.220 C 
BRANCH  10  15
HETATM   15  O   UNL     1      44.676 -19.616   5.787  1.00  0.00    -0.353 OA
HETATM   16  C   UNL     1      43.852 -20.186   6.794  1.00  0.00     0.210 C 
ENDBRANCH  10  15
ENDBRANCH   1   5
BRANCH   2  17
HETATM   17  C   UNL     1      41.409 -14.725  -0.546  1.00  0.00     0.035 A 
HETATM   18  C   UNL     1      40.318 -14.939  -1.395  1.00  0.00     0.042 A 
HETATM   19  C   UNL     1      39.866 -13.937  -2.273  1.00  0.00    -0.021 A 
HETATM   20  C   UNL     1      40.516 -12.696  -2.265  1.00  0.00     0.012 A 
HETATM   21  C   UNL     1      41.598 -12.466  -1.414  1.00  0.00     0.003 A 
HETATM   22  C   UNL     1      42.045 -13.478  -0.565  1.00  0.00     0.029 A 
BRANCH  19  23
HETATM   23  C   UNL     1      38.754 -14.173  -3.187  1.00  0.00     0.010 A 
HETATM   24  C   UNL     1      38.344 -15.346  -3.869  1.00  0.00     0.152 A 
HETATM   25  N   UNL     1      37.247 -15.166  -4.609  1.00  0.00    -0.187 NA
HETATM   26  N   UNL     1      36.945 -13.874  -4.408  1.00  0.00    -0.289 N 
HETATM   27  H   UNL     1      36.131 -13.490  -4.875  1.00  0.00     0.188 HD
HETATM   28  C   UNL     1      37.811 -13.239  -3.564  1.00  0.00     0.123 A 
ENDBRANCH  19  23
ENDBRANCH   2  17
TORSDOF 4
ENDMDL
MODEL 4
REMARK VINA RESULT:      -8.6      4.367      7.588
REMARK  4 active torsions:
REMARK  status: ('A' for Active; 'I' for Inactive)
REMARK    1  A    between atoms: O_2  and  C_3 
REMARK    2  A    between atoms: C_7  and  C_8 
REMARK       I    between atoms: C_8  and  N_9 
REMARK    3  A    between atoms: N_9  and  C_10 
REMARK    4  A    between atoms: C_12  and  C_13 
ROOT
HETATM    1  C   UNL     1      42.483 -15.886   1.859  1.00  0.00     0.254 C 
HETATM    2  N   UNL     1      42.530 -17.261   1.968  1.00  0.00    -0.323 N 
HETATM    3  O   UNL     1      42.979 -15.080   2.637  1.00  0.00    -0.268 OA
HETATM    4  H   UNL     1      42.127 -17.800   1.215  1.00  0.00     0.169 HD
ENDROOT
BRANCH   1   5
HETATM    5  C   UNL     1      41.817 -15.380   0.614  1.00  0.00     0.035 C 
HETATM    6  C   UNL     1      41.566 -14.084   0.377  1.00  0.00     0.029 C 
HETATM    7  C   UNL     1      40.866 -13.745  -0.857  1.00  0.00     0.001 A 
HETATM    8  C   UNL     1      40.697 -14.711  -1.857  1.00  0.00     0.112 A 
HETATM    9  C   UNL     1      40.378 -12.449  -1.060  1.00  0.00     0.014 A 
HETATM   10  C   UNL     1      40.070 -14.379  -3.071  1.00  0.00     0.102 A 
HETATM   11  O   UNL     1      41.178 -15.987  -1.721  1.00  0.00    -0.343 OA
HETATM   12  C   UNL     1      39.573 -13.086  -3.252  1.00  0.00     0.040 A 
HETATM   13  C   UNL     1      39.725 -12.126  -2.249  1.00  0.00     0.004 A 
HETATM   14  C   UNL     1      41.472 -16.445  -0.392  1.00  0.00     0.220 C 
BRANCH  10  15
HETATM   15  O   UNL     1      39.968 -15.386  -3.998  1.00  0.00    -0.353 OA
HETATM   16  C   UNL     1      38.676 -15.935  -4.215  1.00  0.00     0.210 C 
ENDBRANCH  10  15
ENDBRANCH   1   5
BRANCH   2  17
HETATM   17  C   UNL     1      43.125 -18.025   2.997  1.00  0.00     0.035 A 
HETATM   18  C   UNL     1      43.082 -17.687   4.354  1.00  0.00     0.042 A 
HETATM   19  C   UNL     1      43.724 -18.476   5.326  1.00  0.00    -0.021 A 
HETATM   20  C   UNL     1      44.394 -19.634   4.912  1.00  0.00     0.012 A 
HETATM   21  C   UNL     1      44.434 -19.988   3.563  1.00  0.00     0.003 A 
HETATM   22  C   UNL     1      43.809 -19.183   2.611  1.00  0.00     0.029 A 
BRANCH  19  23
HETATM   23  C   UNL     1      43.713 -18.103   6.736  1.00  0.00     0.010 A 
HETATM   24  C   UNL     1      43.405 -16.874   7.370  1.00  0.00     0.152 A 
HETATM   25  N   UNL     1      43.487 -16.935   8.702  1.00  0.00    -0.187 NA
HETATM   26  N   UNL     1      43.852 -18.206   8.932  1.00  0.00    -0.289 N 
HETATM   27  H   UNL     1      43.982 -18.505   9.892  1.00  0.00     0.188 HD
HETATM   28  C   UNL     1      43.995 -18.945   7.792  1.00  0.00     0.123 A 
ENDBRANCH  19  23
ENDBRANCH   2  17
TORSDOF 4
ENDMDL
MODEL 5
REMARK VINA RESULT:      -8.5      4.426      7.495
REMARK  4 active torsions:
REMARK  status: ('A' for Active; 'I' for Inactive)
REMARK    1  A    between atoms: O_2  and  C_3 
REMARK    2  A    between atoms: C_7  and  C_8 
REMARK       I    between atoms: C_8  and  N_9 
REMARK    3  A    between atoms: N_9  and  C_10 
REMARK    4  A    between atoms: C_12  and  C_13 
ROOT
HETATM    1  C   UNL     1      42.522 -15.786   1.907  1.00  0.00     0.254 C 
HETATM    2  N   UNL     1      42.392 -17.145   2.102  1.00  0.00    -0.323 N 
HETATM    3  O   UNL     1      43.245 -15.028   2.544  1.00  0.00    -0.268 OA
HETATM    4  H   UNL     1      41.802 -17.651   1.457  1.00  0.00     0.169 HD
ENDROOT
BRANCH   1   5
HETATM    5  C   UNL     1      41.745 -15.242   0.745  1.00  0.00     0.035 C 
HETATM    6  C   UNL     1      41.496 -15.936  -0.375  1.00  0.00     0.029 C 
HETATM    7  C   UNL     1      40.767 -15.258  -1.443  1.00  0.00     0.001 A 
HETATM    8  C   UNL     1      40.142 -14.030  -1.196  1.00  0.00     0.112 A 
HETATM    9  C   UNL     1      40.670 -15.840  -2.711  1.00  0.00     0.014 A 
HETATM   10  C   UNL     1      39.394 -13.395  -2.203  1.00  0.00     0.102 A 
HETATM   11  O   UNL     1      40.184 -13.429   0.035  1.00  0.00    -0.343 OA
HETATM   12  C   UNL     1      39.320 -13.979  -3.470  1.00  0.00     0.040 A 
HETATM   13  C   UNL     1      39.957 -15.196  -3.723  1.00  0.00     0.004 A 
HETATM   14  C   UNL     1      41.218 -13.846   0.939  1.00  0.00     0.220 C 
BRANCH  10  15
HETATM   15  O   UNL     1      38.801 -12.205  -1.862  1.00  0.00    -0.353 OA
HETATM   16  C   UNL     1      37.385 -12.139  -1.957  1.00  0.00     0.210 C 
ENDBRANCH  10  15
ENDBRANCH   1   5
BRANCH   2  17
HETATM   17  C   UNL     1      43.029 -17.942   3.080  1.00  0.00     0.035 A 
HETATM   18  C   UNL     1      43.017 -17.665   4.451  1.00  0.00     0.042 A 
HETATM   19  C   UNL     1      43.701 -18.483   5.369  1.00  0.00    -0.021 A 
HETATM   20  C   UNL     1      44.380 -19.609   4.886  1.00  0.00     0.012 A 
HETATM   21  C   UNL     1      44.389 -19.902   3.522  1.00  0.00     0.003 A 
HETATM   22  C   UNL     1      43.723 -19.068   2.624  1.00  0.00     0.029 A 
BRANCH  19  23
HETATM   23  C   UNL     1      43.722 -18.173   6.794  1.00  0.00     0.010 A 
HETATM   24  C   UNL     1      43.397 -16.983   7.491  1.00  0.00     0.152 A 
HETATM   25  N   UNL     1      43.522 -17.100   8.816  1.00  0.00    -0.187 NA
HETATM   26  N   UNL     1      43.932 -18.368   8.978  1.00  0.00    -0.289 N 
HETATM   27  H   UNL     1      44.101 -18.704   9.920  1.00  0.00     0.188 HD
HETATM   28  C   UNL     1      44.062 -19.051   7.803  1.00  0.00     0.123 A 
ENDBRANCH  19  23
ENDBRANCH   2  17
TORSDOF 4
ENDMDL
MODEL 6
REMARK VINA RESULT:      -8.4      6.271      9.066
REMARK  4 active torsions:
REMARK  status: ('A' for Active; 'I' for Inactive)
REMARK    1  A    between atoms: O_2  and  C_3 
REMARK    2  A    between atoms: C_7  and  C_8 
REMARK       I    between atoms: C_8  and  N_9 
REMARK    3  A    between atoms: N_9  and  C_10 
REMARK    4  A    between atoms: C_12  and  C_13 
ROOT
HETATM    1  C   UNL     1      42.217 -16.156   1.986  1.00  0.00     0.254 C 
HETATM    2  N   UNL     1      40.974 -16.284   1.400  1.00  0.00    -0.323 N 
HETATM    3  O   UNL     1      42.836 -15.111   2.149  1.00  0.00    -0.268 OA
HETATM    4  H   UNL     1      40.560 -17.205   1.389  1.00  0.00     0.169 HD
ENDROOT
BRANCH   1   5
HETATM    5  C   UNL     1      42.790 -17.432   2.526  1.00  0.00     0.035 C 
HETATM    6  C   UNL     1      43.154 -18.469   1.758  1.00  0.00     0.029 C 
HETATM    7  C   UNL     1      43.650 -19.666   2.429  1.00  0.00     0.001 A 
HETATM    8  C   UNL     1      43.967 -19.627   3.792  1.00  0.00     0.112 A 
HETATM    9  C   UNL     1      43.834 -20.853   1.712  1.00  0.00     0.014 A 
HETATM   10  C   UNL     1      44.495 -20.760   4.435  1.00  0.00     0.102 A 
HETATM   11  O   UNL     1      43.830 -18.484   4.536  1.00  0.00    -0.343 OA
HETATM   12  C   UNL     1      44.657 -21.943   3.710  1.00  0.00     0.040 A 
HETATM   13  C   UNL     1      44.326 -21.990   2.354  1.00  0.00     0.004 A 
HETATM   14  C   UNL     1      42.967 -17.459   4.020  1.00  0.00     0.220 C 
BRANCH  10  15
HETATM   15  O   UNL     1      44.793 -20.620   5.768  1.00  0.00    -0.353 OA
HETATM   16  C   UNL     1      43.891 -21.206   6.696  1.00  0.00     0.210 C 
ENDBRANCH  10  15
ENDBRANCH   1   5
BRANCH   2  17
HETATM   17  C   UNL     1      40.172 -15.262   0.845  1.00  0.00     0.035 A 
HETATM   18  C   UNL     1      40.401 -14.670  -0.401  1.00  0.00     0.042 A 
HETATM   19  C   UNL     1      39.580 -13.633  -0.881  1.00  0.00    -0.021 A 
HETATM   20  C   UNL     1      38.501 -13.214  -0.093  1.00  0.00     0.012 A 
HETATM   21  C   UNL     1      38.254 -13.805   1.147  1.00  0.00     0.003 A 
HETATM   22  C   UNL     1      39.091 -14.818   1.615  1.00  0.00     0.029 A 
BRANCH  19  23
HETATM   23  C   UNL     1      39.843 -12.988  -2.163  1.00  0.00     0.010 A 
HETATM   24  C   UNL     1      41.057 -12.570  -2.762  1.00  0.00     0.152 A 
HETATM   25  N   UNL     1      40.887 -12.032  -3.973  1.00  0.00    -0.187 NA
HETATM   26  N   UNL     1      39.559 -12.099  -4.158  1.00  0.00    -0.289 N 
HETATM   27  H   UNL     1      39.174 -11.744  -5.027  1.00  0.00     0.188 HD
HETATM   28  C   UNL     1      38.892 -12.665  -3.110  1.00  0.00     0.123 A 
ENDBRANCH  19  23
ENDBRANCH   2  17
TORSDOF 4
ENDMDL
MODEL 7
REMARK VINA RESULT:      -8.3      5.594      8.909
REMARK  4 active torsions:
REMARK  status: ('A' for Active; 'I' for Inactive)
REMARK    1  A    between atoms: O_2  and  C_3 
REMARK    2  A    between atoms: C_7  and  C_8 
REMARK       I    between atoms: C_8  and  N_9 
REMARK    3  A    between atoms: N_9  and  C_10 
REMARK    4  A    between atoms: C_12  and  C_13 
ROOT
HETATM    1  C   UNL     1      42.348 -16.534   1.482  1.00  0.00     0.254 C 
HETATM    2  N   UNL     1      42.184 -16.728   2.838  1.00  0.00    -0.323 N 
HETATM    3  O   UNL     1      43.222 -17.030   0.780  1.00  0.00    -0.268 OA
HETATM    4  H   UNL     1      41.379 -16.302   3.273  1.00  0.00     0.169 HD
ENDROOT
BRANCH   1   5
HETATM    5  C   UNL     1      41.288 -15.692   0.837  1.00  0.00     0.035 C 
HETATM    6  C   UNL     1      40.403 -14.954   1.523  1.00  0.00     0.029 C 
HETATM    7  C   UNL     1      39.396 -14.223   0.759  1.00  0.00     0.001 A 
HETATM    8  C   UNL     1      39.520 -14.102  -0.630  1.00  0.00     0.112 A 
HETATM    9  C   UNL     1      38.316 -13.620   1.411  1.00  0.00     0.014 A 
HETATM   10  C   UNL     1      38.585 -13.356  -1.367  1.00  0.00     0.102 A 
HETATM   11  O   UNL     1      40.573 -14.651  -1.315  1.00  0.00    -0.343 OA
HETATM   12  C   UNL     1      37.501 -12.774  -0.705  1.00  0.00     0.040 A 
HETATM   13  C   UNL     1      37.366 -12.907   0.679  1.00  0.00     0.004 A 
HETATM   14  C   UNL     1      41.308 -15.700  -0.668  1.00  0.00     0.220 C 
BRANCH  10  15
HETATM   15  O   UNL     1      38.799 -13.277  -2.721  1.00  0.00    -0.353 OA
HETATM   16  C   UNL     1      39.149 -12.004  -3.246  1.00  0.00     0.210 C 
ENDBRANCH  10  15
ENDBRANCH   1   5
BRANCH   2  17
HETATM   17  C   UNL     1      42.990 -17.503   3.703  1.00  0.00     0.035 A 
HETATM   18  C   UNL     1      43.333 -18.839   3.473  1.00  0.00     0.042 A 
HETATM   19  C   UNL     1      44.113 -19.564   4.392  1.00  0.00    -0.021 A 
HETATM   20  C   UNL     1      44.570 -18.910   5.543  1.00  0.00     0.012 A 
HETATM   21  C   UNL     1      44.246 -17.574   5.778  1.00  0.00     0.003 A 
HETATM   22  C   UNL     1      43.454 -16.877   4.866  1.00  0.00     0.029 A 
BRANCH  19  23
HETATM   23  C   UNL     1      44.437 -20.969   4.172  1.00  0.00     0.010 A 
HETATM   24  C   UNL     1      44.436 -21.749   2.990  1.00  0.00     0.152 A 
HETATM   25  N   UNL     1      44.821 -23.012   3.193  1.00  0.00    -0.187 NA
HETATM   26  N   UNL     1      45.071 -23.051   4.511  1.00  0.00    -0.289 N 
HETATM   27  H   UNL     1      45.386 -23.925   4.917  1.00  0.00     0.188 HD
HETATM   28  C   UNL     1      44.862 -21.857   5.140  1.00  0.00     0.123 A 
ENDBRANCH  19  23
ENDBRANCH   2  17
TORSDOF 4
ENDMDL
MODEL 8
REMARK VINA RESULT:      -8.2      6.491      9.334
REMARK  4 active torsions:
REMARK  status: ('A' for Active; 'I' for Inactive)
REMARK    1  A    between atoms: O_2  and  C_3 
REMARK    2  A    between atoms: C_7  and  C_8 
REMARK       I    between atoms: C_8  and  N_9 
REMARK    3  A    between atoms: N_9  and  C_10 
REMARK    4  A    between atoms: C_12  and  C_13 
ROOT
HETATM    1  C   UNL     1      41.462 -16.086   0.871  1.00  0.00     0.254 C 
HETATM    2  N   UNL     1      42.011 -15.863  -0.375  1.00  0.00    -0.323 N 
HETATM    3  O   UNL     1      40.411 -15.617   1.294  1.00  0.00    -0.268 OA
HETATM    4  H   UNL     1      42.854 -16.368  -0.606  1.00  0.00     0.169 HD
ENDROOT
BRANCH   1   5
HETATM    5  C   UNL     1      42.219 -17.058   1.725  1.00  0.00     0.035 C 
HETATM    6  C   UNL     1      42.710 -18.222   1.274  1.00  0.00     0.029 C 
HETATM    7  C   UNL     1      43.384 -19.090   2.234  1.00  0.00     0.001 A 
HETATM    8  C   UNL     1      43.719 -18.605   3.504  1.00  0.00     0.112 A 
HETATM    9  C   UNL     1      43.718 -20.403   1.886  1.00  0.00     0.014 A 
HETATM   10  C   UNL     1      44.415 -19.416   4.417  1.00  0.00     0.102 A 
HETATM   11  O   UNL     1      43.438 -17.319   3.887  1.00  0.00    -0.343 OA
HETATM   12  C   UNL     1      44.727 -20.731   4.062  1.00  0.00     0.040 A 
HETATM   13  C   UNL     1      44.377 -21.223   2.802  1.00  0.00     0.004 A 
HETATM   14  C   UNL     1      42.429 -16.614   3.148  1.00  0.00     0.220 C 
BRANCH  10  15
HETATM   15  O   UNL     1      44.717 -18.848   5.629  1.00  0.00    -0.353 OA
HETATM   16  C   UNL     1      44.025 -19.345   6.766  1.00  0.00     0.210 C 
ENDBRANCH  10  15
ENDBRANCH   1   5
BRANCH   2  17
HETATM   17  C   UNL     1      41.505 -15.040  -1.407  1.00  0.00     0.035 A 
HETATM   18  C   UNL     1      41.775 -13.673  -1.526  1.00  0.00     0.042 A 
HETATM   19  C   UNL     1      41.212 -12.904  -2.561  1.00  0.00    -0.021 A 
HETATM   20  C   UNL     1      40.389 -13.542  -3.498  1.00  0.00     0.012 A 
HETATM   21  C   UNL     1      40.123 -14.908  -3.397  1.00  0.00     0.003 A 
HETATM   22  C   UNL     1      40.673 -15.650  -2.352  1.00  0.00     0.029 A 
BRANCH  19  23
HETATM   23  C   UNL     1      41.461 -11.470  -2.664  1.00  0.00     0.010 A 
HETATM   24  C   UNL     1      42.672 -10.734  -2.668  1.00  0.00     0.152 A 
HETATM   25  N   UNL     1      42.486  -9.419  -2.805  1.00  0.00    -0.187 NA
HETATM   26  N   UNL     1      41.151  -9.301  -2.887  1.00  0.00    -0.289 N 
HETATM   27  H   UNL     1      40.755  -8.374  -2.997  1.00  0.00     0.188 HD
HETATM   28  C   UNL     1      40.495 -10.496  -2.813  1.00  0.00     0.123 A 
ENDBRANCH  19  23
ENDBRANCH   2  17
TORSDOF 4
ENDMDL
MODEL 9
REMARK VINA RESULT:      -8.2      6.351      9.829
REMARK  4 active torsions:
REMARK  status: ('A' for Active; 'I' for Inactive)
REMARK    1  A    between atoms: O_2  and  C_3 
REMARK    2  A    between atoms: C_7  and  C_8 
REMARK       I    between atoms: C_8  and  N_9 
REMARK    3  A    between atoms: N_9  and  C_10 
REMARK    4  A    between atoms: C_12  and  C_13 
ROOT
HETATM    1  C   UNL     1      40.319 -15.797   1.648  1.00  0.00     0.254 C 
HETATM    2  N   UNL     1      40.830 -15.039   0.615  1.00  0.00    -0.323 N 
HETATM    3  O   UNL     1      39.164 -15.776   2.060  1.00  0.00    -0.268 OA
HETATM    4  H   UNL     1      41.789 -15.209   0.346  1.00  0.00     0.169 HD
ENDROOT
BRANCH   1   5
HETATM    5  C   UNL     1      41.285 -16.777   2.244  1.00  0.00     0.035 C 
HETATM    6  C   UNL     1      41.323 -17.089   3.548  1.00  0.00     0.029 C 
HETATM    7  C   UNL     1      42.352 -18.024   3.990  1.00  0.00     0.001 A 
HETATM    8  C   UNL     1      43.094 -18.749   3.050  1.00  0.00     0.112 A 
HETATM    9  C   UNL     1      42.589 -18.218   5.355  1.00  0.00     0.014 A 
HETATM   10  C   UNL     1      44.050 -19.690   3.468  1.00  0.00     0.102 A 
HETATM   11  O   UNL     1      42.883 -18.616   1.702  1.00  0.00    -0.343 OA
HETATM   12  C   UNL     1      44.289 -19.861   4.834  1.00  0.00     0.040 A 
HETATM   13  C   UNL     1      43.562 -19.126   5.774  1.00  0.00     0.004 A 
HETATM   14  C   UNL     1      42.209 -17.431   1.252  1.00  0.00     0.220 C 
BRANCH  10  15
HETATM   15  O   UNL     1      44.713 -20.367   2.474  1.00  0.00    -0.353 OA
HETATM   16  C   UNL     1      44.409 -21.746   2.319  1.00  0.00     0.210 C 
ENDBRANCH  10  15
ENDBRANCH   1   5
BRANCH   2  17
HETATM   17  C   UNL     1      40.154 -14.072  -0.163  1.00  0.00     0.035 A 
HETATM   18  C   UNL     1      39.294 -14.376  -1.223  1.00  0.00     0.042 A 
HETATM   19  C   UNL     1      38.677 -13.362  -1.979  1.00  0.00    -0.021 A 
HETATM   20  C   UNL     1      38.918 -12.027  -1.631  1.00  0.00     0.012 A 
HETATM   21  C   UNL     1      39.764 -11.712  -0.567  1.00  0.00     0.003 A 
HETATM   22  C   UNL     1      40.384 -12.729   0.157  1.00  0.00     0.029 A 
BRANCH  19  23
HETATM   23  C   UNL     1      37.812 -13.678  -3.110  1.00  0.00     0.010 A 
HETATM   24  C   UNL     1      37.392 -14.923  -3.641  1.00  0.00     0.152 A 
HETATM   25  N   UNL     1      36.569 -14.798  -4.685  1.00  0.00    -0.187 NA
HETATM   26  N   UNL     1      36.456 -13.468  -4.833  1.00  0.00    -0.289 N 
HETATM   27  H   UNL     1      35.868 -13.114  -5.580  1.00  0.00     0.188 HD
HETATM   28  C   UNL     1      37.174 -12.756  -3.916  1.00  0.00     0.123 A 
ENDBRANCH  19  23
ENDBRANCH   2  17
TORSDOF 4
ENDMDL
MODEL 10
REMARK VINA RESULT:      -8.1      5.091      8.728
REMARK  4 active torsions:
REMARK  status: ('A' for Active; 'I' for Inactive)
REMARK    1  A    between atoms: O_2  and  C_3 
REMARK    2  A    between atoms: C_7  and  C_8 
REMARK       I    between atoms: C_8  and  N_9 
REMARK    3  A    between atoms: N_9  and  C_10 
REMARK    4  A    between atoms: C_12  and  C_13 
ROOT
HETATM    1  C   UNL     1      42.606 -15.191   3.356  1.00  0.00     0.254 C 
HETATM    2  N   UNL     1      42.300 -16.302   4.114  1.00  0.00    -0.323 N 
HETATM    3  O   UNL     1      43.722 -14.867   2.964  1.00  0.00    -0.268 OA
HETATM    4  H   UNL     1      41.324 -16.474   4.311  1.00  0.00     0.169 HD
ENDROOT
BRANCH   1   5
HETATM    5  C   UNL     1      41.422 -14.375   2.933  1.00  0.00     0.035 C 
HETATM    6  C   UNL     1      40.384 -14.869   2.243  1.00  0.00     0.029 C 
HETATM    7  C   UNL     1      39.324 -13.943   1.858  1.00  0.00     0.001 A 
HETATM    8  C   UNL     1      39.282 -12.656   2.410  1.00  0.00     0.112 A 
HETATM    9  C   UNL     1      38.333 -14.339   0.955  1.00  0.00     0.014 A 
HETATM   10  C   UNL     1      38.236 -11.775   2.085  1.00  0.00     0.102 A 
HETATM   11  O   UNL     1      40.213 -12.226   3.319  1.00  0.00    -0.343 OA
HETATM   12  C   UNL     1      37.262 -12.179   1.168  1.00  0.00     0.040 A 
HETATM   13  C   UNL     1      37.312 -13.456   0.604  1.00  0.00     0.004 A 
HETATM   14  C   UNL     1      41.458 -12.937   3.377  1.00  0.00     0.220 C 
BRANCH  10  15
HETATM   15  O   UNL     1      38.268 -10.543   2.690  1.00  0.00    -0.353 OA
HETATM   16  C   UNL     1      37.237  -9.628   2.345  1.00  0.00     0.210 C 
ENDBRANCH  10  15
ENDBRANCH   1   5
BRANCH   2  17
HETATM   17  C   UNL     1      43.191 -17.276   4.619  1.00  0.00     0.035 A 
HETATM   18  C   UNL     1      43.394 -18.533   4.039  1.00  0.00     0.042 A 
HETATM   19  C   UNL     1      44.274 -19.470   4.611  1.00  0.00    -0.021 A 
HETATM   20  C   UNL     1      44.974 -19.109   5.770  1.00  0.00     0.012 A 
HETATM   21  C   UNL     1      44.790 -17.854   6.350  1.00  0.00     0.003 A 
HETATM   22  C   UNL     1      43.898 -16.946   5.781  1.00  0.00     0.029 A 
BRANCH  19  23
HETATM   23  C   UNL     1      44.455 -20.795   4.031  1.00  0.00     0.010 A 
HETATM   24  C   UNL     1      44.362 -21.243   2.690  1.00  0.00     0.152 A 
HETATM   25  N   UNL     1      44.624 -22.546   2.552  1.00  0.00    -0.187 NA
HETATM   26  N   UNL     1      44.885 -22.944   3.807  1.00  0.00    -0.289 N 
HETATM   27  H   UNL     1      45.117 -23.918   3.966  1.00  0.00     0.188 HD
HETATM   28  C   UNL     1      44.802 -21.936   4.725  1.00  0.00     0.123 A 
ENDBRANCH  19  23
ENDBRANCH   2  17
TORSDOF 4
ENDMDL
