MODEL 1
REMARK VINA RESULT:      -8.2      0.000      0.000
REMARK  2 active torsions:
REMARK  status: ('A' for Active; 'I' for Inactive)
REMARK    1  A    between atoms: C_5  and  O_6 
REMARK    2  A    between atoms: C_5  and  C_7 
ROOT
HETATM    1  C   UNL     1      39.443 -14.118   2.513  1.00  0.00     0.050 C 
HETATM    2  C   UNL     1      40.836 -14.227   3.046  1.00  0.00    -0.035 A 
HETATM    3  C   UNL     1      41.165 -15.048   4.113  1.00  0.00     0.051 A 
HETATM    4  C   UNL     1      42.476 -15.173   4.599  1.00  0.00     0.018 A 
HETATM    5  C   UNL     1      42.487 -16.116   5.774  1.00  0.00     0.198 A 
HETATM    6  C   UNL     1      40.979 -16.520   5.867  1.00  0.00     0.266 A 
HETATM    7  O   UNL     1      40.454 -17.228   6.716  1.00  0.00    -0.269 OA
HETATM    8  N   UNL     1      40.304 -15.854   4.849  1.00  0.00    -0.323 N 
HETATM    9  C   UNL     1      43.510 -14.457   4.018  1.00  0.00     0.013 A 
HETATM   10  C   UNL     1      43.212 -13.640   2.925  1.00  0.00     0.001 A 
HETATM   11  C   UNL     1      41.893 -13.531   2.442  1.00  0.00     0.009 A 
HETATM   12  H   UNL     1      39.307 -15.931   4.719  1.00  0.00     0.169 HD
ENDROOT
BRANCH   5  13
HETATM   13  O   UNL     1      42.892 -15.397   6.935  1.00  0.00    -0.371 OA
HETATM   14  H   UNL     1      42.614 -15.958   7.681  1.00  0.00     0.212 HD
ENDBRANCH   5  13
BRANCH   5  15
HETATM   15  C   UNL     1      43.369 -17.309   5.489  1.00  0.00     0.018 A 
HETATM   16  C   UNL     1      43.400 -18.196   4.345  1.00  0.00     0.002 A 
HETATM   17  C   UNL     1      44.376 -19.168   4.589  1.00  0.00     0.043 A 
HETATM   18  C   UNL     1      42.699 -18.276   3.120  1.00  0.00     0.014 A 
HETATM   19  C   UNL     1      44.686 -20.191   3.684  1.00  0.00     0.030 A 
HETATM   20  N   UNL     1      44.912 -18.907   5.824  1.00  0.00    -0.365 N 
HETATM   21  C   UNL     1      43.985 -20.229   2.478  1.00  0.00     0.002 A 
HETATM   22  C   UNL     1      43.005 -19.285   2.198  1.00  0.00     0.001 A 
HETATM   23  H   UNL     1      45.634 -19.461   6.264  1.00  0.00     0.165 HD
HETATM   24  C   UNL     1      44.327 -17.801   6.369  1.00  0.00     0.100 A 
ENDBRANCH   5  15
TORSDOF 2
ENDMDL
MODEL 2
REMARK VINA RESULT:      -7.9      2.328      3.314
REMARK  2 active torsions:
REMARK  status: ('A' for Active; 'I' for Inactive)
REMARK    1  A    between atoms: C_5  and  O_6 
REMARK    2  A    between atoms: C_5  and  C_7 
ROOT
HETATM    1  C   UNL     1      42.484 -12.899   4.835  1.00  0.00     0.050 C 
HETATM    2  C   UNL     1      41.983 -14.307   4.876  1.00  0.00    -0.035 A 
HETATM    3  C   UNL     1      42.463 -15.295   4.031  1.00  0.00     0.051 A 
HETATM    4  C   UNL     1      42.015 -16.624   4.084  1.00  0.00     0.018 A 
HETATM    5  C   UNL     1      42.711 -17.431   3.020  1.00  0.00     0.198 A 
HETATM    6  C   UNL     1      43.640 -16.355   2.367  1.00  0.00     0.266 A 
HETATM    7  O   UNL     1      44.370 -16.500   1.395  1.00  0.00    -0.269 OA
HETATM    8  N   UNL     1      43.426 -15.155   3.037  1.00  0.00    -0.323 N 
HETATM    9  C   UNL     1      41.047 -17.000   5.002  1.00  0.00     0.013 A 
HETATM   10  C   UNL     1      40.564 -16.031   5.884  1.00  0.00     0.001 A 
HETATM   11  C   UNL     1      41.029 -14.703   5.824  1.00  0.00     0.009 A 
HETATM   12  H   UNL     1      43.891 -14.299   2.779  1.00  0.00     0.169 HD
ENDROOT
BRANCH   5  13
HETATM   13  O   UNL     1      41.740 -17.898   2.088  1.00  0.00    -0.371 OA
HETATM   14  H   UNL     1      41.231 -18.566   2.578  1.00  0.00     0.212 HD
ENDBRANCH   5  13
BRANCH   5  15
HETATM   15  C   UNL     1      43.509 -18.554   3.643  1.00  0.00     0.018 A 
HETATM   16  C   UNL     1      43.800 -19.881   3.143  1.00  0.00     0.002 A 
HETATM   17  C   UNL     1      44.545 -20.548   4.121  1.00  0.00     0.043 A 
HETATM   18  C   UNL     1      43.510 -20.590   1.955  1.00  0.00     0.014 A 
HETATM   19  C   UNL     1      45.011 -21.860   3.971  1.00  0.00     0.030 A 
HETATM   20  N   UNL     1      44.695 -19.687   5.177  1.00  0.00    -0.365 N 
HETATM   21  C   UNL     1      44.719 -22.524   2.778  1.00  0.00     0.002 A 
HETATM   22  C   UNL     1      43.979 -21.899   1.783  1.00  0.00     0.001 A 
HETATM   23  H   UNL     1      45.183 -19.911   6.034  1.00  0.00     0.165 HD
HETATM   24  C   UNL     1      44.089 -18.495   4.905  1.00  0.00     0.100 A 
ENDBRANCH   5  15
TORSDOF 2
ENDMDL
MODEL 3
REMARK VINA RESULT:      -7.8      2.240      4.004
REMARK  2 active torsions:
REMARK  status: ('A' for Active; 'I' for Inactive)
REMARK    1  A    between atoms: C_5  and  O_6 
REMARK    2  A    between atoms: C_5  and  C_7 
ROOT
HETATM    1  C   UNL     1      45.092 -14.030   7.016  1.00  0.00     0.050 C 
HETATM    2  C   UNL     1      44.027 -15.048   6.762  1.00  0.00    -0.035 A 
HETATM    3  C   UNL     1      43.318 -15.105   5.572  1.00  0.00     0.051 A 
HETATM    4  C   UNL     1      42.335 -16.076   5.319  1.00  0.00     0.018 A 
HETATM    5  C   UNL     1      41.741 -15.844   3.955  1.00  0.00     0.198 A 
HETATM    6  C   UNL     1      42.553 -14.599   3.466  1.00  0.00     0.266 A 
HETATM    7  O   UNL     1      42.394 -13.975   2.425  1.00  0.00    -0.269 OA
HETATM    8  N   UNL     1      43.449 -14.262   4.475  1.00  0.00    -0.323 N 
HETATM    9  C   UNL     1      42.030 -17.029   6.277  1.00  0.00     0.013 A 
HETATM   10  C   UNL     1      42.746 -17.011   7.476  1.00  0.00     0.001 A 
HETATM   11  C   UNL     1      43.735 -16.036   7.713  1.00  0.00     0.009 A 
HETATM   12  H   UNL     1      44.068 -13.469   4.407  1.00  0.00     0.169 HD
ENDROOT
BRANCH   5  13
HETATM   13  O   UNL     1      40.361 -15.523   4.104  1.00  0.00    -0.371 OA
HETATM   14  H   UNL     1      40.266 -14.647   3.690  1.00  0.00     0.212 HD
ENDBRANCH   5  13
BRANCH   5  15
HETATM   15  C   UNL     1      41.967 -17.044   3.065  1.00  0.00     0.018 A 
HETATM   16  C   UNL     1      42.913 -18.133   3.189  1.00  0.00     0.002 A 
HETATM   17  C   UNL     1      42.744 -18.970   2.081  1.00  0.00     0.043 A 
HETATM   18  C   UNL     1      43.900 -18.501   4.133  1.00  0.00     0.014 A 
HETATM   19  C   UNL     1      43.491 -20.136   1.877  1.00  0.00     0.030 A 
HETATM   20  N   UNL     1      41.756 -18.421   1.303  1.00  0.00    -0.365 N 
HETATM   21  C   UNL     1      44.446 -20.476   2.837  1.00  0.00     0.002 A 
HETATM   22  C   UNL     1      44.648 -19.671   3.950  1.00  0.00     0.001 A 
HETATM   23  H   UNL     1      41.434 -18.811   0.428  1.00  0.00     0.165 HD
HETATM   24  C   UNL     1      41.282 -17.279   1.879  1.00  0.00     0.100 A 
ENDBRANCH   5  15
TORSDOF 2
ENDMDL
MODEL 4
REMARK VINA RESULT:      -7.6      1.435      5.305
REMARK  2 active torsions:
REMARK  status: ('A' for Active; 'I' for Inactive)
REMARK    1  A    between atoms: C_5  and  O_6 
REMARK    2  A    between atoms: C_5  and  C_7 
ROOT
HETATM    1  C   UNL     1      45.312 -20.725   4.512  1.00  0.00     0.050 C 
HETATM    2  C   UNL     1      44.297 -19.806   3.913  1.00  0.00    -0.035 A 
HETATM    3  C   UNL     1      43.558 -18.912   4.673  1.00  0.00     0.051 A 
HETATM    4  C   UNL     1      42.623 -18.028   4.111  1.00  0.00     0.018 A 
HETATM    5  C   UNL     1      41.979 -17.218   5.205  1.00  0.00     0.198 A 
HETATM    6  C   UNL     1      42.709 -17.768   6.475  1.00  0.00     0.266 A 
HETATM    7  O   UNL     1      42.486 -17.472   7.641  1.00  0.00    -0.269 OA
HETATM    8  N   UNL     1      43.613 -18.736   6.051  1.00  0.00    -0.323 N 
HETATM    9  C   UNL     1      42.397 -18.025   2.744  1.00  0.00     0.013 A 
HETATM   10  C   UNL     1      43.144 -18.898   1.950  1.00  0.00     0.001 A 
HETATM   11  C   UNL     1      44.085 -19.773   2.527  1.00  0.00     0.009 A 
HETATM   12  H   UNL     1      44.186 -19.261   6.693  1.00  0.00     0.169 HD
ENDROOT
BRANCH   5  13
HETATM   13  O   UNL     1      40.588 -17.526   5.245  1.00  0.00    -0.371 OA
HETATM   14  H   UNL     1      40.149 -16.715   4.935  1.00  0.00     0.212 HD
ENDBRANCH   5  13
BRANCH   5  15
HETATM   15  C   UNL     1      42.245 -15.744   5.002  1.00  0.00     0.018 A 
HETATM   16  C   UNL     1      41.472 -14.745   4.295  1.00  0.00     0.002 A 
HETATM   17  C   UNL     1      42.174 -13.537   4.368  1.00  0.00     0.043 A 
HETATM   18  C   UNL     1      40.241 -14.738   3.599  1.00  0.00     0.014 A 
HETATM   19  C   UNL     1      41.712 -12.344   3.798  1.00  0.00     0.030 A 
HETATM   20  N   UNL     1      43.327 -13.778   5.069  1.00  0.00    -0.365 N 
HETATM   21  C   UNL     1      40.486 -12.371   3.131  1.00  0.00     0.002 A 
HETATM   22  C   UNL     1      39.759 -13.550   3.033  1.00  0.00     0.001 A 
HETATM   23  H   UNL     1      44.034 -13.082   5.264  1.00  0.00     0.165 HD
HETATM   24  C   UNL     1      43.380 -15.085   5.457  1.00  0.00     0.100 A 
ENDBRANCH   5  15
TORSDOF 2
ENDMDL
MODEL 5
REMARK VINA RESULT:      -7.6      2.341      5.756
REMARK  2 active torsions:
REMARK  status: ('A' for Active; 'I' for Inactive)
REMARK    1  A    between atoms: C_5  and  O_6 
REMARK    2  A    between atoms: C_5  and  C_7 
ROOT
HETATM    1  C   UNL     1      43.760 -21.808   1.757  1.00  0.00     0.050 C 
HETATM    2  C   UNL     1      44.016 -20.697   2.724  1.00  0.00    -0.035 A 
HETATM    3  C   UNL     1      43.485 -19.428   2.561  1.00  0.00     0.051 A 
HETATM    4  C   UNL     1      43.701 -18.389   3.481  1.00  0.00     0.018 A 
HETATM    5  C   UNL     1      43.014 -17.140   2.997  1.00  0.00     0.198 A 
HETATM    6  C   UNL     1      42.358 -17.636   1.667  1.00  0.00     0.266 A 
HETATM    7  O   UNL     1      41.735 -16.965   0.854  1.00  0.00    -0.269 OA
HETATM    8  N   UNL     1      42.683 -18.980   1.516  1.00  0.00    -0.323 N 
HETATM    9  C   UNL     1      44.477 -18.604   4.608  1.00  0.00     0.013 A 
HETATM   10  C   UNL     1      45.005 -19.881   4.812  1.00  0.00     0.001 A 
HETATM   11  C   UNL     1      44.773 -20.915   3.885  1.00  0.00     0.009 A 
HETATM   12  H   UNL     1      42.398 -19.521   0.715  1.00  0.00     0.169 HD
ENDROOT
BRANCH   5  13
HETATM   13  O   UNL     1      44.000 -16.145   2.737  1.00  0.00    -0.371 OA
HETATM   14  H   UNL     1      43.726 -15.381   3.273  1.00  0.00     0.212 HD
ENDBRANCH   5  13
BRANCH   5  15
HETATM   15  C   UNL     1      41.975 -16.684   3.996  1.00  0.00     0.018 A 
HETATM   16  C   UNL     1      41.538 -15.349   4.345  1.00  0.00     0.002 A 
HETATM   17  C   UNL     1      40.581 -15.468   5.358  1.00  0.00     0.043 A 
HETATM   18  C   UNL     1      41.854 -14.043   3.903  1.00  0.00     0.014 A 
HETATM   19  C   UNL     1      39.931 -14.370   5.935  1.00  0.00     0.030 A 
HETATM   20  N   UNL     1      40.443 -16.804   5.633  1.00  0.00    -0.365 N 
HETATM   21  C   UNL     1      40.257 -13.097   5.463  1.00  0.00     0.002 A 
HETATM   22  C   UNL     1      41.204 -12.934   4.461  1.00  0.00     0.001 A 
HETATM   23  H   UNL     1      39.823 -17.182   6.337  1.00  0.00     0.165 HD
HETATM   24  C   UNL     1      41.262 -17.539   4.827  1.00  0.00     0.100 A 
ENDBRANCH   5  15
TORSDOF 2
ENDMDL
MODEL 6
REMARK VINA RESULT:      -7.5      2.687      4.500
REMARK  2 active torsions:
REMARK  status: ('A' for Active; 'I' for Inactive)
REMARK    1  A    between atoms: C_5  and  O_6 
REMARK    2  A    between atoms: C_5  and  C_7 
ROOT
HETATM    1  C   UNL     1      44.979 -13.865   7.293  1.00  0.00     0.050 C 
HETATM    2  C   UNL     1      43.894 -14.829   6.936  1.00  0.00    -0.035 A 
HETATM    3  C   UNL     1      42.859 -14.503   6.074  1.00  0.00     0.051 A 
HETATM    4  C   UNL     1      41.853 -15.413   5.715  1.00  0.00     0.018 A 
HETATM    5  C   UNL     1      40.873 -14.739   4.791  1.00  0.00     0.198 A 
HETATM    6  C   UNL     1      41.491 -13.308   4.666  1.00  0.00     0.266 A 
HETATM    7  O   UNL     1      41.021 -12.349   4.069  1.00  0.00    -0.269 OA
HETATM    8  N   UNL     1      42.647 -13.284   5.440  1.00  0.00    -0.323 N 
HETATM    9  C   UNL     1      41.857 -16.700   6.230  1.00  0.00     0.013 A 
HETATM   10  C   UNL     1      42.901 -17.065   7.082  1.00  0.00     0.001 A 
HETATM   11  C   UNL     1      43.909 -16.143   7.427  1.00  0.00     0.009 A 
HETATM   12  H   UNL     1      43.212 -12.455   5.544  1.00  0.00     0.169 HD
ENDROOT
BRANCH   5  13
HETATM   13  O   UNL     1      39.600 -14.689   5.429  1.00  0.00    -0.371 OA
HETATM   14  H   UNL     1      39.784 -14.334   6.316  1.00  0.00     0.212 HD
ENDBRANCH   5  13
BRANCH   5  15
HETATM   15  C   UNL     1      40.828 -15.447   3.456  1.00  0.00     0.018 A 
HETATM   16  C   UNL     1      41.886 -16.088   2.703  1.00  0.00     0.002 A 
HETATM   17  C   UNL     1      41.330 -16.558   1.508  1.00  0.00     0.043 A 
HETATM   18  C   UNL     1      43.265 -16.321   2.911  1.00  0.00     0.014 A 
HETATM   19  C   UNL     1      42.067 -17.243   0.535  1.00  0.00     0.030 A 
HETATM   20  N   UNL     1      40.002 -16.215   1.514  1.00  0.00    -0.365 N 
HETATM   21  C   UNL     1      43.423 -17.470   0.781  1.00  0.00     0.002 A 
HETATM   22  C   UNL     1      44.015 -17.016   1.953  1.00  0.00     0.001 A 
HETATM   23  H   UNL     1      39.355 -16.419   0.764  1.00  0.00     0.165 HD
HETATM   24  C   UNL     1      39.689 -15.559   2.668  1.00  0.00     0.100 A 
ENDBRANCH   5  15
TORSDOF 2
ENDMDL
MODEL 7
REMARK VINA RESULT:      -7.5      3.152      5.811
REMARK  2 active torsions:
REMARK  status: ('A' for Active; 'I' for Inactive)
REMARK    1  A    between atoms: C_5  and  O_6 
REMARK    2  A    between atoms: C_5  and  C_7 
ROOT
HETATM    1  C   UNL     1      43.887 -17.993   5.486  1.00  0.00     0.050 C 
HETATM    2  C   UNL     1      43.390 -17.965   4.077  1.00  0.00    -0.035 A 
HETATM    3  C   UNL     1      42.401 -17.092   3.652  1.00  0.00     0.051 A 
HETATM    4  C   UNL     1      41.950 -17.043   2.324  1.00  0.00     0.018 A 
HETATM    5  C   UNL     1      40.858 -16.013   2.202  1.00  0.00     0.198 A 
HETATM    6  C   UNL     1      40.773 -15.471   3.667  1.00  0.00     0.266 A 
HETATM    7  O   UNL     1      39.976 -14.653   4.107  1.00  0.00    -0.269 OA
HETATM    8  N   UNL     1      41.720 -16.156   4.422  1.00  0.00    -0.323 N 
HETATM    9  C   UNL     1      42.487 -17.893   1.370  1.00  0.00     0.013 A 
HETATM   10  C   UNL     1      43.503 -18.767   1.764  1.00  0.00     0.001 A 
HETATM   11  C   UNL     1      43.952 -18.798   3.099  1.00  0.00     0.009 A 
HETATM   12  H   UNL     1      41.838 -16.002   5.411  1.00  0.00     0.169 HD
ENDROOT
BRANCH   5  13
HETATM   13  O   UNL     1      39.648 -16.668   1.832  1.00  0.00    -0.371 OA
HETATM   14  H   UNL     1      39.933 -17.414   1.276  1.00  0.00     0.212 HD
ENDBRANCH   5  13
BRANCH   5  15
HETATM   15  C   UNL     1      41.256 -14.929   1.227  1.00  0.00     0.018 A 
HETATM   16  C   UNL     1      41.265 -14.932  -0.220  1.00  0.00     0.002 A 
HETATM   17  C   UNL     1      41.759 -13.694  -0.644  1.00  0.00     0.043 A 
HETATM   18  C   UNL     1      40.902 -15.862  -1.223  1.00  0.00     0.014 A 
HETATM   19  C   UNL     1      41.898 -13.342  -1.992  1.00  0.00     0.030 A 
HETATM   20  N   UNL     1      42.055 -12.967   0.481  1.00  0.00    -0.365 N 
HETATM   21  C   UNL     1      41.515 -14.279  -2.954  1.00  0.00     0.002 A 
HETATM   22  C   UNL     1      41.023 -15.521  -2.576  1.00  0.00     0.001 A 
HETATM   23  H   UNL     1      42.443 -12.034   0.473  1.00  0.00     0.165 HD
HETATM   24  C   UNL     1      41.756 -13.687   1.600  1.00  0.00     0.100 A 
ENDBRANCH   5  15
TORSDOF 2
ENDMDL
MODEL 8
REMARK VINA RESULT:      -7.4      2.236      2.944
REMARK  2 active torsions:
REMARK  status: ('A' for Active; 'I' for Inactive)
REMARK    1  A    between atoms: C_5  and  O_6 
REMARK    2  A    between atoms: C_5  and  C_7 
ROOT
HETATM    1  C   UNL     1      39.837 -11.875   6.915  1.00  0.00     0.050 C 
HETATM    2  C   UNL     1      40.258 -12.603   5.680  1.00  0.00    -0.035 A 
HETATM    3  C   UNL     1      41.509 -13.185   5.546  1.00  0.00     0.051 A 
HETATM    4  C   UNL     1      41.900 -13.892   4.399  1.00  0.00     0.018 A 
HETATM    5  C   UNL     1      43.319 -14.370   4.563  1.00  0.00     0.198 A 
HETATM    6  C   UNL     1      43.666 -13.839   5.992  1.00  0.00     0.266 A 
HETATM    7  O   UNL     1      44.745 -13.912   6.566  1.00  0.00    -0.269 OA
HETATM    8  N   UNL     1      42.542 -13.178   6.477  1.00  0.00    -0.323 N 
HETATM    9  C   UNL     1      41.028 -14.030   3.330  1.00  0.00     0.013 A 
HETATM   10  C   UNL     1      39.752 -13.474   3.447  1.00  0.00     0.001 A 
HETATM   11  C   UNL     1      39.371 -12.775   4.608  1.00  0.00     0.009 A 
HETATM   12  H   UNL     1      42.528 -12.720   7.375  1.00  0.00     0.169 HD
ENDROOT
BRANCH   5  13
HETATM   13  O   UNL     1      44.132 -13.742   3.576  1.00  0.00    -0.371 OA
HETATM   14  H   UNL     1      43.499 -13.380   2.931  1.00  0.00     0.212 HD
ENDBRANCH   5  13
BRANCH   5  15
HETATM   15  C   UNL     1      43.382 -15.879   4.496  1.00  0.00     0.018 A 
HETATM   16  C   UNL     1      43.496 -16.759   3.353  1.00  0.00     0.002 A 
HETATM   17  C   UNL     1      43.473 -18.075   3.827  1.00  0.00     0.043 A 
HETATM   18  C   UNL     1      43.619 -16.577   1.956  1.00  0.00     0.014 A 
HETATM   19  C   UNL     1      43.572 -19.195   2.993  1.00  0.00     0.030 A 
HETATM   20  N   UNL     1      43.337 -18.014   5.191  1.00  0.00    -0.365 N 
HETATM   21  C   UNL     1      43.708 -18.977   1.621  1.00  0.00     0.002 A 
HETATM   22  C   UNL     1      43.732 -17.686   1.108  1.00  0.00     0.001 A 
HETATM   23  H   UNL     1      43.279 -18.822   5.796  1.00  0.00     0.165 HD
HETATM   24  C   UNL     1      43.287 -16.715   5.603  1.00  0.00     0.100 A 
ENDBRANCH   5  15
TORSDOF 2
ENDMDL
MODEL 9
REMARK VINA RESULT:      -7.4      1.638      2.245
REMARK  2 active torsions:
REMARK  status: ('A' for Active; 'I' for Inactive)
REMARK    1  A    between atoms: C_5  and  O_6 
REMARK    2  A    between atoms: C_5  and  C_7 
ROOT
HETATM    1  C   UNL     1      39.143 -12.773   5.846  1.00  0.00     0.050 C 
HETATM    2  C   UNL     1      40.384 -13.172   5.115  1.00  0.00    -0.035 A 
HETATM    3  C   UNL     1      41.024 -14.381   5.336  1.00  0.00     0.051 A 
HETATM    4  C   UNL     1      42.175 -14.772   4.632  1.00  0.00     0.018 A 
HETATM    5  C   UNL     1      42.633 -16.118   5.128  1.00  0.00     0.198 A 
HETATM    6  C   UNL     1      41.551 -16.440   6.211  1.00  0.00     0.266 A 
HETATM    7  O   UNL     1      41.519 -17.408   6.959  1.00  0.00    -0.269 OA
HETATM    8  N   UNL     1      40.659 -15.372   6.241  1.00  0.00    -0.323 N 
HETATM    9  C   UNL     1      42.726 -13.937   3.673  1.00  0.00     0.013 A 
HETATM   10  C   UNL     1      42.087 -12.723   3.412  1.00  0.00     0.001 A 
HETATM   11  C   UNL     1      40.929 -12.348   4.120  1.00  0.00     0.009 A 
HETATM   12  H   UNL     1      39.884 -15.332   6.883  1.00  0.00     0.169 HD
ENDROOT
BRANCH   5  13
HETATM   13  O   UNL     1      43.920 -15.975   5.722  1.00  0.00    -0.371 OA
HETATM   14  H   UNL     1      44.486 -15.642   5.004  1.00  0.00     0.212 HD
ENDBRANCH   5  13
BRANCH   5  15
HETATM   15  C   UNL     1      42.618 -17.130   4.005  1.00  0.00     0.018 A 
HETATM   16  C   UNL     1      43.383 -18.348   3.836  1.00  0.00     0.002 A 
HETATM   17  C   UNL     1      43.025 -18.905   2.603  1.00  0.00     0.043 A 
HETATM   18  C   UNL     1      44.347 -19.041   4.604  1.00  0.00     0.014 A 
HETATM   19  C   UNL     1      43.566 -20.100   2.114  1.00  0.00     0.030 A 
HETATM   20  N   UNL     1      42.099 -18.070   2.032  1.00  0.00    -0.365 N 
HETATM   21  C   UNL     1      44.503 -20.766   2.906  1.00  0.00     0.002 A 
HETATM   22  C   UNL     1      44.888 -20.245   4.135  1.00  0.00     0.001 A 
HETATM   23  H   UNL     1      41.673 -18.220   1.128  1.00  0.00     0.165 HD
HETATM   24  C   UNL     1      41.843 -17.014   2.858  1.00  0.00     0.100 A 
ENDBRANCH   5  15
TORSDOF 2
ENDMDL
MODEL 10
REMARK VINA RESULT:      -7.4      1.936      2.954
REMARK  2 active torsions:
REMARK  status: ('A' for Active; 'I' for Inactive)
REMARK    1  A    between atoms: C_5  and  O_6 
REMARK    2  A    between atoms: C_5  and  C_7 
ROOT
HETATM    1  C   UNL     1      42.084 -12.207   4.094  1.00  0.00     0.050 C 
HETATM    2  C   UNL     1      42.409 -13.525   4.721  1.00  0.00    -0.035 A 
HETATM    3  C   UNL     1      41.915 -14.725   4.234  1.00  0.00     0.051 A 
HETATM    4  C   UNL     1      42.238 -15.966   4.803  1.00  0.00     0.018 A 
HETATM    5  C   UNL     1      41.519 -17.061   4.060  1.00  0.00     0.198 A 
HETATM    6  C   UNL     1      40.751 -16.247   2.967  1.00  0.00     0.266 A 
HETATM    7  O   UNL     1      39.957 -16.682   2.143  1.00  0.00    -0.269 OA
HETATM    8  N   UNL     1      41.061 -14.904   3.151  1.00  0.00    -0.323 N 
HETATM    9  C   UNL     1      43.079 -16.035   5.903  1.00  0.00     0.013 A 
HETATM   10  C   UNL     1      43.611 -14.843   6.399  1.00  0.00     0.001 A 
HETATM   11  C   UNL     1      43.285 -13.605   5.813  1.00  0.00     0.009 A 
HETATM   12  H   UNL     1      40.662 -14.173   2.583  1.00  0.00     0.169 HD
ENDROOT
BRANCH   5  13
HETATM   13  O   UNL     1      40.610 -17.700   4.951  1.00  0.00    -0.371 OA
HETATM   14  H   UNL     1      40.861 -17.375   5.833  1.00  0.00     0.212 HD
ENDBRANCH   5  13
BRANCH   5  15
HETATM   15  C   UNL     1      42.509 -18.025   3.446  1.00  0.00     0.018 A 
HETATM   16  C   UNL     1      43.328 -19.044   4.067  1.00  0.00     0.002 A 
HETATM   17  C   UNL     1      44.103 -19.634   3.064  1.00  0.00     0.043 A 
HETATM   18  C   UNL     1      43.495 -19.530   5.385  1.00  0.00     0.014 A 
HETATM   19  C   UNL     1      45.011 -20.673   3.305  1.00  0.00     0.030 A 
HETATM   20  N   UNL     1      43.791 -19.006   1.885  1.00  0.00    -0.365 N 
HETATM   21  C   UNL     1      45.138 -21.139   4.615  1.00  0.00     0.002 A 
HETATM   22  C   UNL     1      44.390 -20.577   5.642  1.00  0.00     0.001 A 
HETATM   23  H   UNL     1      44.212 -19.224   0.992  1.00  0.00     0.165 HD
HETATM   24  C   UNL     1      42.840 -18.051   2.097  1.00  0.00     0.100 A 
ENDBRANCH   5  15
TORSDOF 2
ENDMDL
