MODEL 1
REMARK VINA RESULT:      -8.9      0.000      0.000
REMARK  6 active torsions:
REMARK  status: ('A' for Active; 'I' for Inactive)
REMARK    1  A    between atoms: C_2  and  O_3 
REMARK    2  A    between atoms: O_3  and  C_4 
REMARK    3  A    between atoms: C_5  and  N_6 
REMARK    4  A    between atoms: N_6  and  C_7 
REMARK    5  A    between atoms: C_8  and  C_9 
REMARK    6  A    between atoms: C_12  and  C_13 
ROOT
HETATM    1  C   UNL     1      43.764 -16.895   6.501  1.00  0.00     0.087 C 
HETATM    2  C   UNL     1      43.569 -15.594   6.229  1.00  0.00     0.077 C 
HETATM    3  C   UNL     1      44.343 -14.520   6.976  1.00  0.00     0.023 C 
HETATM    4  N   UNL     1      44.984 -13.629   7.596  1.00  0.00    -0.096 N 
ENDROOT
BRANCH   2   5
HETATM    5  C   UNL     1      42.609 -15.177   5.243  1.00  0.00     0.118 A 
HETATM    6  S   UNL     1      41.235 -14.221   5.728  1.00  0.00    -0.078 SA
HETATM    7  C   UNL     1      40.705 -14.131   4.110  1.00  0.00     0.084 A 
HETATM    8  C   UNL     1      41.564 -14.825   3.288  1.00  0.00     0.081 A 
HETATM    9  N   UNL     1      42.658 -15.392   3.937  1.00  0.00    -0.239 NA
BRANCH   8  10
HETATM   10  C   UNL     1      41.452 -14.963   1.858  1.00  0.00     0.070 A 
HETATM   11  C   UNL     1      40.969 -16.257   1.272  1.00  0.00     0.301 A 
HETATM   12  O   UNL     1      40.703 -17.244   1.954  1.00  0.00    -0.259 OA
HETATM   13  O   UNL     1      40.816 -16.319  -0.111  1.00  0.00    -0.274 OA
HETATM   14  C   UNL     1      41.160 -15.247  -0.946  1.00  0.00     0.089 A 
HETATM   15  C   UNL     1      41.652 -14.065  -0.410  1.00  0.00     0.000 A 
HETATM   16  C   UNL     1      40.993 -15.421  -2.319  1.00  0.00     0.039 A 
HETATM   17  C   UNL     1      41.993 -13.021  -1.273  1.00  0.00     0.033 A 
HETATM   18  C   UNL     1      41.783 -13.953   1.031  1.00  0.00     0.034 A 
HETATM   19  C   UNL     1      41.830 -13.184  -2.651  1.00  0.00     0.012 A 
HETATM   20  C   UNL     1      41.331 -14.378  -3.178  1.00  0.00     0.022 A 
HETATM   21 BR   UNL     1      42.292 -11.770  -3.819  1.00  0.00    -0.051 Br
ENDBRANCH   8  10
ENDBRANCH   2   5
BRANCH   1  22
HETATM   22  N   UNL     1      43.049 -17.993   6.055  1.00  0.00    -0.266 NA
HETATM   23  H   UNL     1      42.383 -17.748   5.311  1.00  0.00     0.133 HD
BRANCH  22  24
HETATM   24  C   UNL     1      43.627 -19.239   5.679  1.00  0.00     0.045 A 
HETATM   25  C   UNL     1      44.124 -19.392   4.364  1.00  0.00     0.090 A 
HETATM   26  C   UNL     1      44.768 -20.576   3.988  1.00  0.00     0.038 A 
HETATM   27  C   UNL     1      44.896 -21.623   4.900  1.00  0.00     0.003 A 
HETATM   28  C   UNL     1      44.380 -21.494   6.187  1.00  0.00     0.002 A 
HETATM   29  C   UNL     1      43.742 -20.313   6.572  1.00  0.00     0.026 A 
BRANCH  25  30
HETATM   30  O   UNL     1      43.983 -18.316   3.518  1.00  0.00    -0.350 OA
BRANCH  30  31
HETATM   31  C   UNL     1      43.975 -18.646   2.126  1.00  0.00     0.171 C 
HETATM   32  C   UNL     1      44.280 -17.388   1.332  1.00  0.00     0.034 C 
ENDBRANCH  30  31
ENDBRANCH  25  30
ENDBRANCH  22  24
ENDBRANCH   1  22
TORSDOF 6
ENDMDL
MODEL 2
REMARK VINA RESULT:      -8.8      4.552      8.185
REMARK  6 active torsions:
REMARK  status: ('A' for Active; 'I' for Inactive)
REMARK    1  A    between atoms: C_2  and  O_3 
REMARK    2  A    between atoms: O_3  and  C_4 
REMARK    3  A    between atoms: C_5  and  N_6 
REMARK    4  A    between atoms: N_6  and  C_7 
REMARK    5  A    between atoms: C_8  and  C_9 
REMARK    6  A    between atoms: C_12  and  C_13 
ROOT
HETATM    1  C   UNL     1      41.895 -10.719   7.132  1.00  0.00     0.087 C 
HETATM    2  C   UNL     1      41.472 -11.250   5.972  1.00  0.00     0.077 C 
HETATM    3  C   UNL     1      41.149 -10.361   4.783  1.00  0.00     0.023 C 
HETATM    4  N   UNL     1      40.880  -9.623   3.796  1.00  0.00    -0.096 N 
ENDROOT
BRANCH   2   5
HETATM    5  C   UNL     1      41.288 -12.669   5.828  1.00  0.00     0.118 A 
HETATM    6  S   UNL     1      39.679 -13.319   5.670  1.00  0.00    -0.078 SA
HETATM    7  C   UNL     1      40.312 -14.893   5.508  1.00  0.00     0.084 A 
HETATM    8  C   UNL     1      41.686 -14.865   5.593  1.00  0.00     0.081 A 
HETATM    9  N   UNL     1      42.233 -13.594   5.746  1.00  0.00    -0.239 NA
BRANCH   8  10
HETATM   10  C   UNL     1      42.571 -15.997   5.487  1.00  0.00     0.070 A 
HETATM   11  C   UNL     1      43.637 -16.205   6.523  1.00  0.00     0.301 A 
HETATM   12  O   UNL     1      43.834 -15.422   7.448  1.00  0.00    -0.259 OA
HETATM   13  O   UNL     1      44.425 -17.349   6.413  1.00  0.00    -0.274 OA
HETATM   14  C   UNL     1      44.287 -18.248   5.346  1.00  0.00     0.089 A 
HETATM   15  C   UNL     1      43.334 -18.032   4.361  1.00  0.00     0.000 A 
HETATM   16  C   UNL     1      45.142 -19.348   5.317  1.00  0.00     0.039 A 
HETATM   17  C   UNL     1      43.231 -18.944   3.309  1.00  0.00     0.033 A 
HETATM   18  C   UNL     1      42.467 -16.872   4.469  1.00  0.00     0.034 A 
HETATM   19  C   UNL     1      44.083 -20.050   3.268  1.00  0.00     0.012 A 
HETATM   20  C   UNL     1      45.038 -20.258   4.268  1.00  0.00     0.022 A 
HETATM   21 BR   UNL     1      43.943 -21.284   1.842  1.00  0.00    -0.051 Br
ENDBRANCH   8  10
ENDBRANCH   2   5
BRANCH   1  22
HETATM   22  N   UNL     1      42.076 -11.337   8.357  1.00  0.00    -0.266 NA
HETATM   23  H   UNL     1      41.788 -12.325   8.341  1.00  0.00     0.133 HD
BRANCH  22  24
HETATM   24  C   UNL     1      43.276 -11.285   9.122  1.00  0.00     0.045 A 
HETATM   25  C   UNL     1      43.283 -10.554  10.332  1.00  0.00     0.090 A 
HETATM   26  C   UNL     1      44.422 -10.548  11.145  1.00  0.00     0.038 A 
HETATM   27  C   UNL     1      45.567 -11.239  10.750  1.00  0.00     0.003 A 
HETATM   28  C   UNL     1      45.581 -11.934   9.543  1.00  0.00     0.002 A 
HETATM   29  C   UNL     1      44.445 -11.951   8.730  1.00  0.00     0.026 A 
BRANCH  25  30
HETATM   30  O   UNL     1      42.117  -9.909  10.674  1.00  0.00    -0.350 OA
BRANCH  30  31
HETATM   31  C   UNL     1      41.555 -10.313  11.926  1.00  0.00     0.171 C 
HETATM   32  C   UNL     1      40.385 -11.242  11.651  1.00  0.00     0.034 C 
ENDBRANCH  30  31
ENDBRANCH  25  30
ENDBRANCH  22  24
ENDBRANCH   1  22
TORSDOF 6
ENDMDL
MODEL 3
REMARK VINA RESULT:      -8.7      4.550      8.183
REMARK  6 active torsions:
REMARK  status: ('A' for Active; 'I' for Inactive)
REMARK    1  A    between atoms: C_2  and  O_3 
REMARK    2  A    between atoms: O_3  and  C_4 
REMARK    3  A    between atoms: C_5  and  N_6 
REMARK    4  A    between atoms: N_6  and  C_7 
REMARK    5  A    between atoms: C_8  and  C_9 
REMARK    6  A    between atoms: C_12  and  C_13 
ROOT
HETATM    1  C   UNL     1      41.977 -10.709   7.333  1.00  0.00     0.087 C 
HETATM    2  C   UNL     1      41.534 -11.186   6.157  1.00  0.00     0.077 C 
HETATM    3  C   UNL     1      41.209 -10.245   5.009  1.00  0.00     0.023 C 
HETATM    4  N   UNL     1      40.940  -9.463   4.057  1.00  0.00    -0.096 N 
ENDROOT
BRANCH   2   5
HETATM    5  C   UNL     1      41.330 -12.595   5.957  1.00  0.00     0.118 A 
HETATM    6  S   UNL     1      39.715 -13.210   5.729  1.00  0.00    -0.078 SA
HETATM    7  C   UNL     1      40.326 -14.788   5.528  1.00  0.00     0.084 A 
HETATM    8  C   UNL     1      41.697 -14.789   5.654  1.00  0.00     0.081 A 
HETATM    9  N   UNL     1      42.261 -13.534   5.868  1.00  0.00    -0.239 NA
BRANCH   8  10
HETATM   10  C   UNL     1      42.565 -15.933   5.533  1.00  0.00     0.070 A 
HETATM   11  C   UNL     1      43.636 -16.164   6.559  1.00  0.00     0.301 A 
HETATM   12  O   UNL     1      43.852 -15.390   7.488  1.00  0.00    -0.259 OA
HETATM   13  O   UNL     1      44.407 -17.317   6.434  1.00  0.00    -0.274 OA
HETATM   14  C   UNL     1      44.248 -18.206   5.362  1.00  0.00     0.089 A 
HETATM   15  C   UNL     1      43.290 -17.970   4.386  1.00  0.00     0.000 A 
HETATM   16  C   UNL     1      45.087 -19.318   5.318  1.00  0.00     0.039 A 
HETATM   17  C   UNL     1      43.166 -18.873   3.328  1.00  0.00     0.033 A 
HETATM   18  C   UNL     1      42.441 -16.799   4.510  1.00  0.00     0.034 A 
HETATM   19  C   UNL     1      44.002 -19.990   3.273  1.00  0.00     0.012 A 
HETATM   20  C   UNL     1      44.961 -20.219   4.263  1.00  0.00     0.022 A 
HETATM   21 BR   UNL     1      43.833 -21.212   1.839  1.00  0.00    -0.051 Br
ENDBRANCH   8  10
ENDBRANCH   2   5
BRANCH   1  22
HETATM   22  N   UNL     1      42.163 -11.380   8.529  1.00  0.00    -0.266 NA
HETATM   23  H   UNL     1      42.795 -12.186   8.429  1.00  0.00     0.133 HD
BRANCH  22  24
HETATM   24  C   UNL     1      42.504 -10.757   9.763  1.00  0.00     0.045 A 
HETATM   25  C   UNL     1      43.639 -11.215  10.470  1.00  0.00     0.090 A 
HETATM   26  C   UNL     1      44.045 -10.572  11.644  1.00  0.00     0.038 A 
HETATM   27  C   UNL     1      43.313  -9.494  12.141  1.00  0.00     0.003 A 
HETATM   28  C   UNL     1      42.173  -9.057  11.470  1.00  0.00     0.002 A 
HETATM   29  C   UNL     1      41.766  -9.689  10.292  1.00  0.00     0.026 A 
BRANCH  25  30
HETATM   30  O   UNL     1      44.329 -12.271   9.918  1.00  0.00    -0.350 OA
BRANCH  30  31
HETATM   31  C   UNL     1      45.638 -11.946   9.442  1.00  0.00     0.171 C 
HETATM   32  C   UNL     1      45.849 -12.636   8.106  1.00  0.00     0.034 C 
ENDBRANCH  30  31
ENDBRANCH  25  30
ENDBRANCH  22  24
ENDBRANCH   1  22
TORSDOF 6
ENDMDL
MODEL 4
REMARK VINA RESULT:      -8.6      1.119      2.277
REMARK  6 active torsions:
REMARK  status: ('A' for Active; 'I' for Inactive)
REMARK    1  A    between atoms: C_2  and  O_3 
REMARK    2  A    between atoms: O_3  and  C_4 
REMARK    3  A    between atoms: C_5  and  N_6 
REMARK    4  A    between atoms: N_6  and  C_7 
REMARK    5  A    between atoms: C_8  and  C_9 
REMARK    6  A    between atoms: C_12  and  C_13 
ROOT
HETATM    1  C   UNL     1      43.639 -17.109   5.829  1.00  0.00     0.087 C 
HETATM    2  C   UNL     1      43.442 -15.788   5.680  1.00  0.00     0.077 C 
HETATM    3  C   UNL     1      44.195 -14.789   6.542  1.00  0.00     0.023 C 
HETATM    4  N   UNL     1      44.820 -13.959   7.256  1.00  0.00    -0.096 N 
ENDROOT
BRANCH   2   5
HETATM    5  C   UNL     1      42.497 -15.282   4.722  1.00  0.00     0.118 A 
HETATM    6  S   UNL     1      40.996 -14.588   5.273  1.00  0.00    -0.078 SA
HETATM    7  C   UNL     1      40.552 -14.229   3.668  1.00  0.00     0.084 A 
HETATM    8  C   UNL     1      41.530 -14.653   2.796  1.00  0.00     0.081 A 
HETATM    9  N   UNL     1      42.644 -15.224   3.406  1.00  0.00    -0.239 NA
BRANCH   8  10
HETATM   10  C   UNL     1      41.516 -14.511   1.362  1.00  0.00     0.070 A 
HETATM   11  C   UNL     1      41.153 -15.687   0.503  1.00  0.00     0.301 A 
HETATM   12  O   UNL     1      40.910 -16.801   0.961  1.00  0.00    -0.259 OA
HETATM   13  O   UNL     1      41.091 -15.482  -0.873  1.00  0.00    -0.274 OA
HETATM   14  C   UNL     1      41.416 -14.250  -1.458  1.00  0.00     0.089 A 
HETATM   15  C   UNL     1      41.798 -13.175  -0.669  1.00  0.00     0.000 A 
HETATM   16  C   UNL     1      41.346 -14.158  -2.846  1.00  0.00     0.039 A 
HETATM   17  C   UNL     1      42.124 -11.965  -1.286  1.00  0.00     0.033 A 
HETATM   18  C   UNL     1      41.832 -13.343   0.773  1.00  0.00     0.034 A 
HETATM   19  C   UNL     1      42.057 -11.861  -2.678  1.00  0.00     0.012 A 
HETATM   20  C   UNL     1      41.668 -12.951  -3.461  1.00  0.00     0.022 A 
HETATM   21 BR   UNL     1      42.499 -10.223  -3.513  1.00  0.00    -0.051 Br
ENDBRANCH   8  10
ENDBRANCH   2   5
BRANCH   1  22
HETATM   22  N   UNL     1      42.938 -18.162   5.266  1.00  0.00    -0.266 NA
HETATM   23  H   UNL     1      41.958 -17.918   5.073  1.00  0.00     0.133 HD
BRANCH  22  24
HETATM   24  C   UNL     1      43.385 -18.929   4.153  1.00  0.00     0.045 A 
HETATM   25  C   UNL     1      44.291 -19.991   4.374  1.00  0.00     0.090 A 
HETATM   26  C   UNL     1      44.686 -20.813   3.313  1.00  0.00     0.038 A 
HETATM   27  C   UNL     1      44.213 -20.569   2.024  1.00  0.00     0.003 A 
HETATM   28  C   UNL     1      43.346 -19.504   1.790  1.00  0.00     0.002 A 
HETATM   29  C   UNL     1      42.940 -18.683   2.846  1.00  0.00     0.026 A 
BRANCH  25  30
HETATM   30  O   UNL     1      44.707 -20.192   5.670  1.00  0.00    -0.350 OA
BRANCH  30  31
HETATM   31  C   UNL     1      44.253 -21.412   6.263  1.00  0.00     0.171 C 
HETATM   32  C   UNL     1      43.470 -21.075   7.520  1.00  0.00     0.034 C 
ENDBRANCH  30  31
ENDBRANCH  25  30
ENDBRANCH  22  24
ENDBRANCH   1  22
TORSDOF 6
ENDMDL
MODEL 5
REMARK VINA RESULT:      -8.5      3.094      7.294
REMARK  6 active torsions:
REMARK  status: ('A' for Active; 'I' for Inactive)
REMARK    1  A    between atoms: C_2  and  O_3 
REMARK    2  A    between atoms: O_3  and  C_4 
REMARK    3  A    between atoms: C_5  and  N_6 
REMARK    4  A    between atoms: N_6  and  C_7 
REMARK    5  A    between atoms: C_8  and  C_9 
REMARK    6  A    between atoms: C_12  and  C_13 
ROOT
HETATM    1  C   UNL     1      39.477 -13.892   4.249  1.00  0.00     0.087 C 
HETATM    2  C   UNL     1      40.277 -13.538   5.269  1.00  0.00     0.077 C 
HETATM    3  C   UNL     1      39.916 -12.369   6.170  1.00  0.00     0.023 C 
HETATM    4  N   UNL     1      39.616 -11.400   6.918  1.00  0.00    -0.096 N 
ENDROOT
BRANCH   2   5
HETATM    5  C   UNL     1      41.509 -14.236   5.522  1.00  0.00     0.118 A 
HETATM    6  S   UNL     1      42.911 -13.347   6.050  1.00  0.00    -0.078 SA
HETATM    7  C   UNL     1      43.808 -14.792   6.158  1.00  0.00     0.084 A 
HETATM    8  C   UNL     1      43.030 -15.865   5.784  1.00  0.00     0.081 A 
HETATM    9  N   UNL     1      41.717 -15.542   5.452  1.00  0.00    -0.239 NA
BRANCH   8  10
HETATM   10  C   UNL     1      43.437 -17.247   5.759  1.00  0.00     0.070 A 
HETATM   11  C   UNL     1      43.696 -17.968   7.050  1.00  0.00     0.301 A 
HETATM   12  O   UNL     1      43.627 -17.421   8.148  1.00  0.00    -0.259 OA
HETATM   13  O   UNL     1      44.023 -19.319   6.977  1.00  0.00    -0.274 OA
HETATM   14  C   UNL     1      44.176 -19.983   5.751  1.00  0.00     0.089 A 
HETATM   15  C   UNL     1      43.984 -19.306   4.555  1.00  0.00     0.000 A 
HETATM   16  C   UNL     1      44.530 -21.330   5.788  1.00  0.00     0.039 A 
HETATM   17  C   UNL     1      44.153 -19.997   3.353  1.00  0.00     0.033 A 
HETATM   18  C   UNL     1      43.599 -17.907   4.597  1.00  0.00     0.034 A 
HETATM   19  C   UNL     1      44.509 -21.347   3.377  1.00  0.00     0.012 A 
HETATM   20  C   UNL     1      44.697 -22.018   4.589  1.00  0.00     0.022 A 
HETATM   21 BR   UNL     1      44.738 -22.282   1.749  1.00  0.00    -0.051 Br
ENDBRANCH   8  10
ENDBRANCH   2   5
BRANCH   1  22
HETATM   22  N   UNL     1      39.713 -14.802   3.233  1.00  0.00    -0.266 NA
HETATM   23  H   UNL     1      39.259 -15.709   3.410  1.00  0.00     0.133 HD
BRANCH  22  24
HETATM   24  C   UNL     1      39.537 -14.533   1.846  1.00  0.00     0.045 A 
HETATM   25  C   UNL     1      40.534 -14.955   0.937  1.00  0.00     0.090 A 
HETATM   26  C   UNL     1      40.353 -14.775  -0.439  1.00  0.00     0.038 A 
HETATM   27  C   UNL     1      39.203 -14.150  -0.919  1.00  0.00     0.003 A 
HETATM   28  C   UNL     1      38.231 -13.700  -0.028  1.00  0.00     0.002 A 
HETATM   29  C   UNL     1      38.400 -13.883   1.347  1.00  0.00     0.026 A 
BRANCH  25  30
HETATM   30  O   UNL     1      41.636 -15.581   1.471  1.00  0.00    -0.350 OA
BRANCH  30  31
HETATM   31  C   UNL     1      41.975 -16.827   0.854  1.00  0.00     0.171 C 
HETATM   32  C   UNL     1      43.435 -17.126   1.144  1.00  0.00     0.034 C 
ENDBRANCH  30  31
ENDBRANCH  25  30
ENDBRANCH  22  24
ENDBRANCH   1  22
TORSDOF 6
ENDMDL
MODEL 6
REMARK VINA RESULT:      -8.4      4.087      7.000
REMARK  6 active torsions:
REMARK  status: ('A' for Active; 'I' for Inactive)
REMARK    1  A    between atoms: C_2  and  O_3 
REMARK    2  A    between atoms: O_3  and  C_4 
REMARK    3  A    between atoms: C_5  and  N_6 
REMARK    4  A    between atoms: N_6  and  C_7 
REMARK    5  A    between atoms: C_8  and  C_9 
REMARK    6  A    between atoms: C_12  and  C_13 
ROOT
HETATM    1  C   UNL     1      41.829 -10.301   7.318  1.00  0.00     0.087 C 
HETATM    2  C   UNL     1      41.313 -10.577   6.108  1.00  0.00     0.077 C 
HETATM    3  C   UNL     1      41.041  -9.466   5.107  1.00  0.00     0.023 C 
HETATM    4  N   UNL     1      40.815  -8.544   4.278  1.00  0.00    -0.096 N 
ENDROOT
BRANCH   2   5
HETATM    5  C   UNL     1      40.981 -11.925   5.732  1.00  0.00     0.118 A 
HETATM    6  S   UNL     1      39.466 -12.615   6.248  1.00  0.00    -0.078 SA
HETATM    7  C   UNL     1      39.818 -14.057   5.409  1.00  0.00     0.084 A 
HETATM    8  C   UNL     1      41.048 -13.964   4.798  1.00  0.00     0.081 A 
HETATM    9  N   UNL     1      41.689 -12.739   4.963  1.00  0.00    -0.239 NA
BRANCH   8  10
HETATM   10  C   UNL     1      41.678 -14.977   3.989  1.00  0.00     0.070 A 
HETATM   11  C   UNL     1      41.721 -14.815   2.497  1.00  0.00     0.301 A 
HETATM   12  O   UNL     1      41.197 -13.872   1.910  1.00  0.00    -0.259 OA
HETATM   13  O   UNL     1      42.397 -15.788   1.765  1.00  0.00    -0.274 OA
HETATM   14  C   UNL     1      42.964 -16.918   2.373  1.00  0.00     0.089 A 
HETATM   15  C   UNL     1      42.884 -17.094   3.747  1.00  0.00     0.000 A 
HETATM   16  C   UNL     1      43.596 -17.844   1.547  1.00  0.00     0.039 A 
HETATM   17  C   UNL     1      43.451 -18.235   4.317  1.00  0.00     0.033 A 
HETATM   18  C   UNL     1      42.223 -16.076   4.544  1.00  0.00     0.034 A 
HETATM   19  C   UNL     1      44.087 -19.171   3.499  1.00  0.00     0.012 A 
HETATM   20  C   UNL     1      44.164 -18.981   2.116  1.00  0.00     0.022 A 
HETATM   21 BR   UNL     1      44.856 -20.717   4.271  1.00  0.00    -0.051 Br
ENDBRANCH   8  10
ENDBRANCH   2   5
BRANCH   1  22
HETATM   22  N   UNL     1      41.989 -11.140   8.407  1.00  0.00    -0.266 NA
HETATM   23  H   UNL     1      41.738 -12.113   8.189  1.00  0.00     0.133 HD
BRANCH  22  24
HETATM   24  C   UNL     1      43.158 -11.201   9.218  1.00  0.00     0.045 A 
HETATM   25  C   UNL     1      44.236 -12.016   8.803  1.00  0.00     0.090 A 
HETATM   26  C   UNL     1      45.427 -12.036   9.536  1.00  0.00     0.038 A 
HETATM   27  C   UNL     1      45.546 -11.276  10.699  1.00  0.00     0.003 A 
HETATM   28  C   UNL     1      44.477 -10.496  11.135  1.00  0.00     0.002 A 
HETATM   29  C   UNL     1      43.287 -10.465  10.404  1.00  0.00     0.026 A 
BRANCH  25  30
HETATM   30  O   UNL     1      44.063 -12.727   7.637  1.00  0.00    -0.350 OA
BRANCH  30  31
HETATM   31  C   UNL     1      45.073 -13.707   7.379  1.00  0.00     0.171 C 
HETATM   32  C   UNL     1      44.392 -15.028   7.067  1.00  0.00     0.034 C 
ENDBRANCH  30  31
ENDBRANCH  25  30
ENDBRANCH  22  24
ENDBRANCH   1  22
TORSDOF 6
ENDMDL
MODEL 7
REMARK VINA RESULT:      -8.3      3.451      8.000
REMARK  6 active torsions:
REMARK  status: ('A' for Active; 'I' for Inactive)
REMARK    1  A    between atoms: C_2  and  O_3 
REMARK    2  A    between atoms: O_3  and  C_4 
REMARK    3  A    between atoms: C_5  and  N_6 
REMARK    4  A    between atoms: N_6  and  C_7 
REMARK    5  A    between atoms: C_8  and  C_9 
REMARK    6  A    between atoms: C_12  and  C_13 
ROOT
HETATM    1  C   UNL     1      38.606 -13.616   0.828  1.00  0.00     0.087 C 
HETATM    2  C   UNL     1      39.184 -12.995   1.870  1.00  0.00     0.077 C 
HETATM    3  C   UNL     1      38.479 -11.853   2.582  1.00  0.00     0.023 C 
HETATM    4  N   UNL     1      37.894 -10.905   3.173  1.00  0.00    -0.096 N 
ENDROOT
BRANCH   2   5
HETATM    5  C   UNL     1      40.494 -13.374   2.327  1.00  0.00     0.118 A 
HETATM    6  S   UNL     1      41.742 -12.166   2.466  1.00  0.00    -0.078 SA
HETATM    7  C   UNL     1      42.830 -13.334   3.063  1.00  0.00     0.084 A 
HETATM    8  C   UNL     1      42.222 -14.568   3.118  1.00  0.00     0.081 A 
HETATM    9  N   UNL     1      40.886 -14.576   2.725  1.00  0.00    -0.239 NA
BRANCH   8  10
HETATM   10  C   UNL     1      42.820 -15.795   3.581  1.00  0.00     0.070 A 
HETATM   11  C   UNL     1      43.322 -15.889   4.992  1.00  0.00     0.301 A 
HETATM   12  O   UNL     1      43.297 -14.945   5.777  1.00  0.00    -0.259 OA
HETATM   13  O   UNL     1      43.832 -17.115   5.411  1.00  0.00    -0.274 OA
HETATM   14  C   UNL     1      43.943 -18.212   4.544  1.00  0.00     0.089 A 
HETATM   15  C   UNL     1      43.523 -18.112   3.226  1.00  0.00     0.000 A 
HETATM   16  C   UNL     1      44.491 -19.386   5.057  1.00  0.00     0.039 A 
HETATM   17  C   UNL     1      43.656 -19.222   2.388  1.00  0.00     0.033 A 
HETATM   18  C   UNL     1      42.946 -16.861   2.768  1.00  0.00     0.034 A 
HETATM   19  C   UNL     1      44.205 -20.404   2.891  1.00  0.00     0.012 A 
HETATM   20  C   UNL     1      44.622 -20.492   4.222  1.00  0.00     0.022 A 
HETATM   21 BR   UNL     1      44.385 -21.905   1.755  1.00  0.00    -0.051 Br
ENDBRANCH   8  10
ENDBRANCH   2   5
BRANCH   1  22
HETATM   22  N   UNL     1      39.150 -14.548  -0.040  1.00  0.00    -0.266 NA
HETATM   23  H   UNL     1      38.455 -15.237  -0.356  1.00  0.00     0.133 HD
BRANCH  22  24
HETATM   24  C   UNL     1      39.941 -14.228  -1.180  1.00  0.00     0.045 A 
HETATM   25  C   UNL     1      39.357 -14.314  -2.464  1.00  0.00     0.090 A 
HETATM   26  C   UNL     1      40.084 -13.931  -3.596  1.00  0.00     0.038 A 
HETATM   27  C   UNL     1      41.401 -13.491  -3.467  1.00  0.00     0.003 A 
HETATM   28  C   UNL     1      41.997 -13.435  -2.209  1.00  0.00     0.002 A 
HETATM   29  C   UNL     1      41.275 -13.809  -1.073  1.00  0.00     0.026 A 
BRANCH  25  30
HETATM   30  O   UNL     1      38.049 -14.738  -2.523  1.00  0.00    -0.350 OA
BRANCH  30  31
HETATM   31  C   UNL     1      37.646 -15.260  -3.793  1.00  0.00     0.171 C 
HETATM   32  C   UNL     1      36.583 -14.344  -4.374  1.00  0.00     0.034 C 
ENDBRANCH  30  31
ENDBRANCH  25  30
ENDBRANCH  22  24
ENDBRANCH   1  22
TORSDOF 6
ENDMDL
MODEL 8
REMARK VINA RESULT:      -8.2      3.872      8.711
REMARK  6 active torsions:
REMARK  status: ('A' for Active; 'I' for Inactive)
REMARK    1  A    between atoms: C_2  and  O_3 
REMARK    2  A    between atoms: O_3  and  C_4 
REMARK    3  A    between atoms: C_5  and  N_6 
REMARK    4  A    between atoms: N_6  and  C_7 
REMARK    5  A    between atoms: C_8  and  C_9 
REMARK    6  A    between atoms: C_12  and  C_13 
ROOT
HETATM    1  C   UNL     1      40.831 -13.380  -2.291  1.00  0.00     0.087 C 
HETATM    2  C   UNL     1      39.791 -14.031  -1.742  1.00  0.00     0.077 C 
HETATM    3  C   UNL     1      38.512 -14.259  -2.531  1.00  0.00     0.023 C 
HETATM    4  N   UNL     1      37.452 -14.448  -3.186  1.00  0.00    -0.096 N 
ENDROOT
BRANCH   2   5
HETATM    5  C   UNL     1      39.846 -14.508  -0.386  1.00  0.00     0.118 A 
HETATM    6  S   UNL     1      38.550 -14.129   0.715  1.00  0.00    -0.078 SA
HETATM    7  C   UNL     1      39.309 -15.032   1.946  1.00  0.00     0.084 A 
HETATM    8  C   UNL     1      40.495 -15.560   1.487  1.00  0.00     0.081 A 
HETATM    9  N   UNL     1      40.778 -15.282   0.152  1.00  0.00    -0.239 NA
BRANCH   8  10
HETATM   10  C   UNL     1      41.406 -16.390   2.234  1.00  0.00     0.070 A 
HETATM   11  C   UNL     1      41.898 -15.931   3.576  1.00  0.00     0.301 A 
HETATM   12  O   UNL     1      41.600 -14.843   4.063  1.00  0.00    -0.259 OA
HETATM   13  O   UNL     1      42.724 -16.797   4.287  1.00  0.00    -0.274 OA
HETATM   14  C   UNL     1      43.147 -18.025   3.760  1.00  0.00     0.089 A 
HETATM   15  C   UNL     1      42.732 -18.430   2.499  1.00  0.00     0.000 A 
HETATM   16  C   UNL     1      43.995 -18.806   4.543  1.00  0.00     0.039 A 
HETATM   17  C   UNL     1      43.180 -19.656   2.001  1.00  0.00     0.033 A 
HETATM   18  C   UNL     1      41.834 -17.570   1.749  1.00  0.00     0.034 A 
HETATM   19  C   UNL     1      44.030 -20.447   2.777  1.00  0.00     0.012 A 
HETATM   20  C   UNL     1      44.439 -20.029   4.046  1.00  0.00     0.022 A 
HETATM   21 BR   UNL     1      44.636 -22.106   2.102  1.00  0.00    -0.051 Br
ENDBRANCH   8  10
ENDBRANCH   2   5
BRANCH   1  22
HETATM   22  N   UNL     1      41.995 -12.936  -1.689  1.00  0.00    -0.266 NA
HETATM   23  H   UNL     1      42.815 -13.489  -1.970  1.00  0.00     0.133 HD
BRANCH  22  24
HETATM   24  C   UNL     1      42.422 -11.578  -1.656  1.00  0.00     0.045 A 
HETATM   25  C   UNL     1      42.632 -10.958  -0.403  1.00  0.00     0.090 A 
HETATM   26  C   UNL     1      43.128  -9.650  -0.338  1.00  0.00     0.038 A 
HETATM   27  C   UNL     1      43.387  -8.942  -1.510  1.00  0.00     0.003 A 
HETATM   28  C   UNL     1      43.151  -9.532  -2.749  1.00  0.00     0.002 A 
HETATM   29  C   UNL     1      42.664 -10.839  -2.823  1.00  0.00     0.026 A 
BRANCH  25  30
HETATM   30  O   UNL     1      42.375 -11.716   0.716  1.00  0.00    -0.350 OA
BRANCH  30  31
HETATM   31  C   UNL     1      41.138 -11.417   1.370  1.00  0.00     0.171 C 
HETATM   32  C   UNL     1      41.252 -11.831   2.827  1.00  0.00     0.034 C 
ENDBRANCH  30  31
ENDBRANCH  25  30
ENDBRANCH  22  24
ENDBRANCH   1  22
TORSDOF 6
ENDMDL
MODEL 9
REMARK VINA RESULT:      -8.0      4.266      7.565
REMARK  6 active torsions:
REMARK  status: ('A' for Active; 'I' for Inactive)
REMARK    1  A    between atoms: C_2  and  O_3 
REMARK    2  A    between atoms: O_3  and  C_4 
REMARK    3  A    between atoms: C_5  and  N_6 
REMARK    4  A    between atoms: N_6  and  C_7 
REMARK    5  A    between atoms: C_8  and  C_9 
REMARK    6  A    between atoms: C_12  and  C_13 
ROOT
HETATM    1  C   UNL     1      41.029 -16.460   3.243  1.00  0.00     0.087 C 
HETATM    2  C   UNL     1      40.501 -15.233   3.092  1.00  0.00     0.077 C 
HETATM    3  C   UNL     1      39.310 -15.007   2.176  1.00  0.00     0.023 C 
HETATM    4  N   UNL     1      38.322 -14.819   1.416  1.00  0.00    -0.096 N 
ENDROOT
BRANCH   2   5
HETATM    5  C   UNL     1      41.062 -14.095   3.770  1.00  0.00     0.118 A 
HETATM    6  S   UNL     1      40.835 -12.499   3.110  1.00  0.00    -0.078 SA
HETATM    7  C   UNL     1      41.678 -11.817   4.425  1.00  0.00     0.084 A 
HETATM    8  C   UNL     1      42.101 -12.805   5.285  1.00  0.00     0.081 A 
HETATM    9  N   UNL     1      41.721 -14.094   4.920  1.00  0.00    -0.239 NA
BRANCH   8  10
HETATM   10  C   UNL     1      42.831 -12.614   6.512  1.00  0.00     0.070 A 
HETATM   11  C   UNL     1      44.023 -13.477   6.809  1.00  0.00     0.301 A 
HETATM   12  O   UNL     1      44.390 -14.389   6.072  1.00  0.00    -0.259 OA
HETATM   13  O   UNL     1      44.734 -13.211   7.976  1.00  0.00    -0.274 OA
HETATM   14  C   UNL     1      44.329 -12.223   8.886  1.00  0.00     0.089 A 
HETATM   15  C   UNL     1      43.200 -11.456   8.637  1.00  0.00     0.000 A 
HETATM   16  C   UNL     1      45.096 -12.054  10.036  1.00  0.00     0.039 A 
HETATM   17  C   UNL     1      42.821 -10.488   9.569  1.00  0.00     0.033 A 
HETATM   18  C   UNL     1      42.460 -11.680   7.407  1.00  0.00     0.034 A 
HETATM   19  C   UNL     1      43.582 -10.310  10.727  1.00  0.00     0.012 A 
HETATM   20  C   UNL     1      44.719 -11.087  10.965  1.00  0.00     0.022 A 
HETATM   21 BR   UNL     1      43.068  -8.999  11.989  1.00  0.00    -0.051 Br
ENDBRANCH   8  10
ENDBRANCH   2   5
BRANCH   1  22
HETATM   22  N   UNL     1      42.195 -16.831   3.888  1.00  0.00    -0.266 NA
HETATM   23  H   UNL     1      42.094 -16.822   4.912  1.00  0.00     0.133 HD
BRANCH  22  24
HETATM   24  C   UNL     1      42.961 -17.990   3.574  1.00  0.00     0.045 A 
HETATM   25  C   UNL     1      43.872 -18.488   4.533  1.00  0.00     0.090 A 
HETATM   26  C   UNL     1      44.581 -19.669   4.286  1.00  0.00     0.038 A 
HETATM   27  C   UNL     1      44.415 -20.344   3.077  1.00  0.00     0.003 A 
HETATM   28  C   UNL     1      43.546 -19.843   2.112  1.00  0.00     0.002 A 
HETATM   29  C   UNL     1      42.829 -18.668   2.354  1.00  0.00     0.026 A 
BRANCH  25  30
HETATM   30  O   UNL     1      43.977 -17.786   5.713  1.00  0.00    -0.350 OA
BRANCH  30  31
HETATM   31  C   UNL     1      43.412 -18.443   6.851  1.00  0.00     0.171 C 
HETATM   32  C   UNL     1      43.356 -17.451   8.000  1.00  0.00     0.034 C 
ENDBRANCH  30  31
ENDBRANCH  25  30
ENDBRANCH  22  24
ENDBRANCH   1  22
TORSDOF 6
ENDMDL
MODEL 10
REMARK VINA RESULT:      -8.0      2.000      3.014
REMARK  6 active torsions:
REMARK  status: ('A' for Active; 'I' for Inactive)
REMARK    1  A    between atoms: C_2  and  O_3 
REMARK    2  A    between atoms: O_3  and  C_4 
REMARK    3  A    between atoms: C_5  and  N_6 
REMARK    4  A    between atoms: N_6  and  C_7 
REMARK    5  A    between atoms: C_8  and  C_9 
REMARK    6  A    between atoms: C_12  and  C_13 
ROOT
HETATM    1  C   UNL     1      43.986 -16.930   6.119  1.00  0.00     0.087 C 
HETATM    2  C   UNL     1      43.645 -15.630   6.070  1.00  0.00     0.077 C 
HETATM    3  C   UNL     1      44.472 -14.583   6.797  1.00  0.00     0.023 C 
HETATM    4  N   UNL     1      45.158 -13.714   7.400  1.00  0.00    -0.096 N 
ENDROOT
BRANCH   2   5
HETATM    5  C   UNL     1      42.478 -15.196   5.351  1.00  0.00     0.118 A 
HETATM    6  S   UNL     1      40.914 -15.283   6.113  1.00  0.00    -0.078 SA
HETATM    7  C   UNL     1      40.185 -14.592   4.736  1.00  0.00     0.084 A 
HETATM    8  C   UNL     1      41.134 -14.342   3.769  1.00  0.00     0.081 A 
HETATM    9  N   UNL     1      42.438 -14.662   4.139  1.00  0.00    -0.239 NA
BRANCH   8  10
HETATM   10  C   UNL     1      40.900 -13.752   2.476  1.00  0.00     0.070 A 
HETATM   11  C   UNL     1      40.997 -12.263   2.311  1.00  0.00     0.301 A 
HETATM   12  O   UNL     1      41.220 -11.498   3.247  1.00  0.00    -0.259 OA
HETATM   13  O   UNL     1      40.826 -11.746   1.030  1.00  0.00    -0.274 OA
HETATM   14  C   UNL     1      40.510 -12.562  -0.066  1.00  0.00     0.089 A 
HETATM   15  C   UNL     1      40.373 -13.933   0.093  1.00  0.00     0.000 A 
HETATM   16  C   UNL     1      40.335 -11.941  -1.301  1.00  0.00     0.039 A 
HETATM   17  C   UNL     1      40.048 -14.714  -1.019  1.00  0.00     0.033 A 
HETATM   18  C   UNL     1      40.587 -14.509   1.408  1.00  0.00     0.034 A 
HETATM   19  C   UNL     1      39.870 -14.103  -2.262  1.00  0.00     0.012 A 
HETATM   20  C   UNL     1      40.014 -12.721  -2.410  1.00  0.00     0.022 A 
HETATM   21 BR   UNL     1      39.430 -15.161  -3.767  1.00  0.00    -0.051 Br
ENDBRANCH   8  10
ENDBRANCH   2   5
BRANCH   1  22
HETATM   22  N   UNL     1      43.278 -18.032   5.671  1.00  0.00    -0.266 NA
HETATM   23  H   UNL     1      42.268 -17.942   5.844  1.00  0.00     0.133 HD
BRANCH  22  24
HETATM   24  C   UNL     1      43.412 -18.608   4.376  1.00  0.00     0.045 A 
HETATM   25  C   UNL     1      44.251 -19.734   4.212  1.00  0.00     0.090 A 
HETATM   26  C   UNL     1      44.341 -20.371   2.969  1.00  0.00     0.038 A 
HETATM   27  C   UNL     1      43.627 -19.878   1.877  1.00  0.00     0.003 A 
HETATM   28  C   UNL     1      42.825 -18.749   2.020  1.00  0.00     0.002 A 
HETATM   29  C   UNL     1      42.723 -18.112   3.259  1.00  0.00     0.026 A 
BRANCH  25  30
HETATM   30  O   UNL     1      44.913 -20.182   5.332  1.00  0.00    -0.350 OA
BRANCH  30  31
HETATM   31  C   UNL     1      44.487 -21.463   5.807  1.00  0.00     0.171 C 
HETATM   32  C   UNL     1      43.655 -21.257   7.061  1.00  0.00     0.034 C 
ENDBRANCH  30  31
ENDBRANCH  25  30
ENDBRANCH  22  24
ENDBRANCH   1  22
TORSDOF 6
ENDMDL
