MODEL 1
REMARK VINA RESULT:      -9.3      0.000      0.000
REMARK  8 active torsions:
REMARK  status: ('A' for Active; 'I' for Inactive)
REMARK    1  A    between atoms: C_3  and  N_4 
REMARK       I    between atoms: N_4  and  C_5 
REMARK    2  A    between atoms: C_5  and  C_6 
REMARK    3  A    between atoms: C_6  and  S_7 
REMARK    4  A    between atoms: S_7  and  C_8 
REMARK    5  A    between atoms: N_9  and  C_10 
REMARK    6  A    between atoms: C_10  and  C_11 
REMARK       I    between atoms: C_11  and  N_12 
REMARK    7  A    between atoms: N_12  and  C_13 
REMARK    8  A    between atoms: C_20  and  C_21 
ROOT
HETATM    1  C   UNL     1      41.729 -13.283   5.036  1.00  0.00     0.169 A 
HETATM    2  N   UNL     1      41.975 -14.635   4.959  1.00  0.00    -0.315 N 
HETATM    3  C   UNL     1      42.504 -14.878   3.700  1.00  0.00     0.065 A 
HETATM    4  C   UNL     1      42.655 -13.615   3.150  1.00  0.00     0.150 A 
HETATM    5  N   UNL     1      42.200 -12.639   3.994  1.00  0.00    -0.234 NA
ENDROOT
BRANCH   1   6
HETATM    6  S   UNL     1      40.844 -12.548   6.330  1.00  0.00    -0.083 SA
BRANCH   6   7
HETATM    7  C   UNL     1      41.289 -10.804   6.139  1.00  0.00     0.185 C 
BRANCH   7   8
HETATM    8  C   UNL     1      41.889 -10.221   7.411  1.00  0.00     0.231 C 
HETATM    9  N   UNL     1      42.199 -11.183   8.356  1.00  0.00    -0.326 N 
HETATM   10  H   UNL     1      41.937 -12.136   8.104  1.00  0.00     0.169 HD
HETATM   11  O   UNL     1      41.966  -9.004   7.560  1.00  0.00    -0.272 OA
BRANCH   9  12
HETATM   12  C   UNL     1      42.585 -10.975   9.699  1.00  0.00     0.046 A 
HETATM   13  C   UNL     1      41.543 -10.874  10.657  1.00  0.00    -0.035 A 
HETATM   14  C   UNL     1      40.088 -10.955  10.273  1.00  0.00     0.050 C 
HETATM   15  C   UNL     1      41.857 -10.646  12.007  1.00  0.00     0.009 A 
HETATM   16  C   UNL     1      43.178 -10.519  12.414  1.00  0.00     0.001 A 
HETATM   17  C   UNL     1      44.202 -10.650  11.482  1.00  0.00     0.009 A 
HETATM   18  C   UNL     1      43.926 -10.909  10.126  1.00  0.00    -0.035 A 
HETATM   19  C   UNL     1      45.113 -11.163   9.235  1.00  0.00     0.050 C 
ENDBRANCH   9  12
ENDBRANCH   7   8
ENDBRANCH   6   7
ENDBRANCH   1   6
BRANCH   2  20
HETATM   20  C   UNL     1      41.837 -15.592   6.046  1.00  0.00     0.234 C 
BRANCH  20  21
HETATM   21  C   UNL     1      43.076 -16.312   6.532  1.00  0.00     0.236 C 
HETATM   22  N   UNL     1      43.107 -17.682   6.489  1.00  0.00    -0.355 N 
HETATM   23  H   UNL     1      42.311 -18.162   6.089  1.00  0.00     0.162 HD
HETATM   24  O   UNL     1      44.013 -15.632   6.945  1.00  0.00    -0.272 OA
BRANCH  22  25
HETATM   25  C   UNL     1      44.284 -18.529   6.709  1.00  0.00     0.084 C 
HETATM   26  C   UNL     1      43.988 -19.712   7.640  1.00  0.00     0.025 C 
HETATM   27  C   UNL     1      43.489 -20.958   6.923  1.00  0.00     0.002 C 
HETATM   28  C   UNL     1      44.458 -21.381   5.828  1.00  0.00     0.000 C 
HETATM   29  C   UNL     1      44.706 -20.272   4.813  1.00  0.00     0.002 C 
HETATM   30  C   UNL     1      45.072 -18.929   5.450  1.00  0.00     0.025 C 
ENDBRANCH  22  25
ENDBRANCH  20  21
ENDBRANCH   2  20
BRANCH   3  31
HETATM   31  C   UNL     1      42.743 -16.175   3.076  1.00  0.00    -0.008 A 
HETATM   32  C   UNL     1      41.842 -17.238   3.207  1.00  0.00     0.017 A 
HETATM   33  C   UNL     1      42.105 -18.466   2.592  1.00  0.00     0.043 A 
HETATM   34  C   UNL     1      43.276 -18.634   1.863  1.00  0.00     0.116 A 
HETATM   35  F   UNL     1      43.527 -19.812   1.277  1.00  0.00    -0.206 F 
HETATM   36  C   UNL     1      44.195 -17.601   1.740  1.00  0.00     0.043 A 
HETATM   37  C   UNL     1      43.928 -16.372   2.347  1.00  0.00     0.017 A 
ENDBRANCH   3  31
TORSDOF 8
ENDMDL
MODEL 2
REMARK VINA RESULT:      -9.3      1.918      3.502
REMARK  8 active torsions:
REMARK  status: ('A' for Active; 'I' for Inactive)
REMARK    1  A    between atoms: C_3  and  N_4 
REMARK       I    between atoms: N_4  and  C_5 
REMARK    2  A    between atoms: C_5  and  C_6 
REMARK    3  A    between atoms: C_6  and  S_7 
REMARK    4  A    between atoms: S_7  and  C_8 
REMARK    5  A    between atoms: N_9  and  C_10 
REMARK    6  A    between atoms: C_10  and  C_11 
REMARK       I    between atoms: C_11  and  N_12 
REMARK    7  A    between atoms: N_12  and  C_13 
REMARK    8  A    between atoms: C_20  and  C_21 
ROOT
HETATM    1  C   UNL     1      40.963 -12.913   5.463  1.00  0.00     0.169 A 
HETATM    2  N   UNL     1      41.983 -13.789   5.167  1.00  0.00    -0.315 N 
HETATM    3  C   UNL     1      41.646 -15.008   5.739  1.00  0.00     0.065 A 
HETATM    4  C   UNL     1      40.370 -14.804   6.236  1.00  0.00     0.150 A 
HETATM    5  N   UNL     1      39.948 -13.518   6.035  1.00  0.00    -0.234 NA
ENDROOT
BRANCH   1   6
HETATM    6  S   UNL     1      41.053 -11.210   5.165  1.00  0.00    -0.083 SA
BRANCH   6   7
HETATM    7  C   UNL     1      40.370 -10.529   6.697  1.00  0.00     0.185 C 
BRANCH   7   8
HETATM    8  C   UNL     1      41.457 -10.084   7.664  1.00  0.00     0.231 C 
HETATM    9  N   UNL     1      41.564 -10.900   8.776  1.00  0.00    -0.326 N 
HETATM   10  H   UNL     1      40.874 -11.649   8.830  1.00  0.00     0.169 HD
HETATM   11  O   UNL     1      42.070  -9.036   7.470  1.00  0.00    -0.272 OA
BRANCH   9  12
HETATM   12  C   UNL     1      42.327 -10.668   9.943  1.00  0.00     0.046 A 
HETATM   13  C   UNL     1      41.646 -10.101  11.050  1.00  0.00    -0.035 A 
HETATM   14  C   UNL     1      40.185  -9.732  10.993  1.00  0.00     0.050 C 
HETATM   15  C   UNL     1      42.349  -9.825  12.235  1.00  0.00     0.009 A 
HETATM   16  C   UNL     1      43.705 -10.102  12.332  1.00  0.00     0.001 A 
HETATM   17  C   UNL     1      44.368 -10.689  11.258  1.00  0.00     0.009 A 
HETATM   18  C   UNL     1      43.688 -11.008  10.067  1.00  0.00    -0.035 A 
HETATM   19  C   UNL     1      44.474 -11.758   9.025  1.00  0.00     0.050 C 
ENDBRANCH   9  12
ENDBRANCH   7   8
ENDBRANCH   6   7
ENDBRANCH   1   6
BRANCH   2  20
HETATM   20  C   UNL     1      43.119 -13.516   4.302  1.00  0.00     0.234 C 
BRANCH  20  21
HETATM   21  C   UNL     1      43.130 -14.123   2.915  1.00  0.00     0.236 C 
HETATM   22  N   UNL     1      43.477 -15.441   2.770  1.00  0.00    -0.355 N 
HETATM   23  H   UNL     1      43.672 -15.974   3.607  1.00  0.00     0.162 HD
HETATM   24  O   UNL     1      42.819 -13.402   1.969  1.00  0.00    -0.272 OA
BRANCH  22  25
HETATM   25  C   UNL     1      43.334 -16.245   1.552  1.00  0.00     0.084 C 
HETATM   26  C   UNL     1      44.406 -17.336   1.442  1.00  0.00     0.025 C 
HETATM   27  C   UNL     1      44.022 -18.653   2.102  1.00  0.00     0.002 C 
HETATM   28  C   UNL     1      42.695 -19.166   1.564  1.00  0.00     0.000 C 
HETATM   29  C   UNL     1      41.568 -18.156   1.744  1.00  0.00     0.002 C 
HETATM   30  C   UNL     1      41.915 -16.753   1.242  1.00  0.00     0.025 C 
ENDBRANCH  22  25
ENDBRANCH  20  21
ENDBRANCH   2  20
BRANCH   3  31
HETATM   31  C   UNL     1      42.494 -16.188   5.867  1.00  0.00    -0.008 A 
HETATM   32  C   UNL     1      43.755 -16.133   6.473  1.00  0.00     0.017 A 
HETATM   33  C   UNL     1      44.537 -17.287   6.579  1.00  0.00     0.043 A 
HETATM   34  C   UNL     1      44.066 -18.489   6.064  1.00  0.00     0.116 A 
HETATM   35  F   UNL     1      44.819 -19.592   6.165  1.00  0.00    -0.206 F 
HETATM   36  C   UNL     1      42.829 -18.560   5.437  1.00  0.00     0.043 A 
HETATM   37  C   UNL     1      42.044 -17.409   5.339  1.00  0.00     0.017 A 
ENDBRANCH   3  31
TORSDOF 8
ENDMDL
MODEL 3
REMARK VINA RESULT:      -8.9      1.319      1.711
REMARK  8 active torsions:
REMARK  status: ('A' for Active; 'I' for Inactive)
REMARK    1  A    between atoms: C_3  and  N_4 
REMARK       I    between atoms: N_4  and  C_5 
REMARK    2  A    between atoms: C_5  and  C_6 
REMARK    3  A    between atoms: C_6  and  S_7 
REMARK    4  A    between atoms: S_7  and  C_8 
REMARK    5  A    between atoms: N_9  and  C_10 
REMARK    6  A    between atoms: C_10  and  C_11 
REMARK       I    between atoms: C_11  and  N_12 
REMARK    7  A    between atoms: N_12  and  C_13 
REMARK    8  A    between atoms: C_20  and  C_21 
ROOT
HETATM    1  C   UNL     1      41.132 -12.390   3.954  1.00  0.00     0.169 A 
HETATM    2  N   UNL     1      42.027 -13.436   3.955  1.00  0.00    -0.315 N 
HETATM    3  C   UNL     1      41.414 -14.491   3.295  1.00  0.00     0.065 A 
HETATM    4  C   UNL     1      40.227 -13.952   2.829  1.00  0.00     0.150 A 
HETATM    5  N   UNL     1      40.077 -12.648   3.218  1.00  0.00    -0.234 NA
ENDROOT
BRANCH   1   6
HETATM    6  S   UNL     1      41.360 -10.940   4.872  1.00  0.00    -0.083 SA
BRANCH   6   7
HETATM    7  C   UNL     1      41.035 -11.515   6.559  1.00  0.00     0.185 C 
BRANCH   7   8
HETATM    8  C   UNL     1      41.813 -10.718   7.597  1.00  0.00     0.231 C 
HETATM    9  N   UNL     1      42.146 -11.461   8.715  1.00  0.00    -0.326 N 
HETATM   10  H   UNL     1      41.784 -12.415   8.723  1.00  0.00     0.169 HD
HETATM   11  O   UNL     1      42.000  -9.514   7.443  1.00  0.00    -0.272 OA
BRANCH   9  12
HETATM   12  C   UNL     1      42.689 -10.989   9.931  1.00  0.00     0.046 A 
HETATM   13  C   UNL     1      41.768 -10.661  10.959  1.00  0.00    -0.035 A 
HETATM   14  C   UNL     1      40.278 -10.778  10.771  1.00  0.00     0.050 C 
HETATM   15  C   UNL     1      42.240 -10.166  12.186  1.00  0.00     0.009 A 
HETATM   16  C   UNL     1      43.601  -9.995  12.403  1.00  0.00     0.001 A 
HETATM   17  C   UNL     1      44.507 -10.347  11.407  1.00  0.00     0.009 A 
HETATM   18  C   UNL     1      44.072 -10.875  10.177  1.00  0.00    -0.035 A 
HETATM   19  C   UNL     1      45.143 -11.343   9.229  1.00  0.00     0.050 C 
ENDBRANCH   9  12
ENDBRANCH   7   8
ENDBRANCH   6   7
ENDBRANCH   1   6
BRANCH   2  20
HETATM   20  C   UNL     1      43.400 -13.385   4.434  1.00  0.00     0.234 C 
BRANCH  20  21
HETATM   21  C   UNL     1      43.740 -14.105   5.720  1.00  0.00     0.236 C 
HETATM   22  N   UNL     1      43.934 -15.462   5.690  1.00  0.00    -0.355 N 
HETATM   23  H   UNL     1      43.884 -15.928   4.793  1.00  0.00     0.162 HD
HETATM   24  O   UNL     1      43.835 -13.436   6.747  1.00  0.00    -0.272 OA
BRANCH  22  25
HETATM   25  C   UNL     1      44.476 -16.284   6.777  1.00  0.00     0.084 C 
HETATM   26  C   UNL     1      43.408 -16.667   7.809  1.00  0.00     0.025 C 
HETATM   27  C   UNL     1      42.669 -17.958   7.488  1.00  0.00     0.002 C 
HETATM   28  C   UNL     1      43.643 -19.109   7.288  1.00  0.00     0.000 C 
HETATM   29  C   UNL     1      44.666 -18.820   6.196  1.00  0.00     0.002 C 
HETATM   30  C   UNL     1      45.362 -17.466   6.350  1.00  0.00     0.025 C 
ENDBRANCH  22  25
ENDBRANCH  20  21
ENDBRANCH   2  20
BRANCH   3  31
HETATM   31  C   UNL     1      41.881 -15.871   3.211  1.00  0.00    -0.008 A 
HETATM   32  C   UNL     1      41.374 -16.878   4.040  1.00  0.00     0.017 A 
HETATM   33  C   UNL     1      41.846 -18.189   3.927  1.00  0.00     0.043 A 
HETATM   34  C   UNL     1      42.836 -18.488   2.998  1.00  0.00     0.116 A 
HETATM   35  F   UNL     1      43.287 -19.744   2.894  1.00  0.00    -0.206 F 
HETATM   36  C   UNL     1      43.370 -17.499   2.183  1.00  0.00     0.043 A 
HETATM   37  C   UNL     1      42.893 -16.191   2.290  1.00  0.00     0.017 A 
ENDBRANCH   3  31
TORSDOF 8
ENDMDL
MODEL 4
REMARK VINA RESULT:      -8.8      2.112      2.922
REMARK  8 active torsions:
REMARK  status: ('A' for Active; 'I' for Inactive)
REMARK    1  A    between atoms: C_3  and  N_4 
REMARK       I    between atoms: N_4  and  C_5 
REMARK    2  A    between atoms: C_5  and  C_6 
REMARK    3  A    between atoms: C_6  and  S_7 
REMARK    4  A    between atoms: S_7  and  C_8 
REMARK    5  A    between atoms: N_9  and  C_10 
REMARK    6  A    between atoms: C_10  and  C_11 
REMARK       I    between atoms: C_11  and  N_12 
REMARK    7  A    between atoms: N_12  and  C_13 
REMARK    8  A    between atoms: C_20  and  C_21 
ROOT
HETATM    1  C   UNL     1      39.457 -12.146   5.543  1.00  0.00     0.169 A 
HETATM    2  N   UNL     1      40.308 -12.983   4.858  1.00  0.00    -0.315 N 
HETATM    3  C   UNL     1      39.883 -12.998   3.537  1.00  0.00     0.065 A 
HETATM    4  C   UNL     1      38.868 -12.055   3.501  1.00  0.00     0.150 A 
HETATM    5  N   UNL     1      38.633 -11.517   4.737  1.00  0.00    -0.234 NA
ENDROOT
BRANCH   1   6
HETATM    6  S   UNL     1      39.446 -12.002   7.268  1.00  0.00    -0.083 SA
BRANCH   6   7
HETATM    7  C   UNL     1      39.970 -10.285   7.501  1.00  0.00     0.185 C 
BRANCH   7   8
HETATM    8  C   UNL     1      41.458 -10.173   7.799  1.00  0.00     0.231 C 
HETATM    9  N   UNL     1      41.902 -11.113   8.712  1.00  0.00    -0.326 N 
HETATM   10  H   UNL     1      41.175 -11.713   9.102  1.00  0.00     0.169 HD
HETATM   11  O   UNL     1      42.119  -9.251   7.326  1.00  0.00    -0.272 OA
BRANCH   9  12
HETATM   12  C   UNL     1      43.163 -11.167   9.346  1.00  0.00     0.046 A 
HETATM   13  C   UNL     1      43.305 -10.437  10.554  1.00  0.00    -0.035 A 
HETATM   14  C   UNL     1      42.182  -9.615  11.133  1.00  0.00     0.050 C 
HETATM   15  C   UNL     1      44.539 -10.431  11.225  1.00  0.00     0.009 A 
HETATM   16  C   UNL     1      45.623 -11.134  10.717  1.00  0.00     0.001 A 
HETATM   17  C   UNL     1      45.477 -11.878   9.550  1.00  0.00     0.009 A 
HETATM   18  C   UNL     1      44.246 -11.931   8.868  1.00  0.00    -0.035 A 
HETATM   19  C   UNL     1      44.169 -12.870   7.693  1.00  0.00     0.050 C 
ENDBRANCH   9  12
ENDBRANCH   7   8
ENDBRANCH   6   7
ENDBRANCH   1   6
BRANCH   2  20
HETATM   20  C   UNL     1      41.504 -13.612   5.396  1.00  0.00     0.234 C 
BRANCH  20  21
HETATM   21  C   UNL     1      41.431 -15.069   5.799  1.00  0.00     0.236 C 
HETATM   22  N   UNL     1      42.574 -15.825   5.764  1.00  0.00    -0.355 N 
HETATM   23  H   UNL     1      43.438 -15.366   5.510  1.00  0.00     0.162 HD
HETATM   24  O   UNL     1      40.340 -15.516   6.149  1.00  0.00    -0.272 OA
BRANCH  22  25
HETATM   25  C   UNL     1      42.737 -17.174   6.318  1.00  0.00     0.084 C 
HETATM   26  C   UNL     1      42.505 -18.269   5.270  1.00  0.00     0.025 C 
HETATM   27  C   UNL     1      43.756 -18.665   4.498  1.00  0.00     0.002 C 
HETATM   28  C   UNL     1      44.875 -19.073   5.445  1.00  0.00     0.000 C 
HETATM   29  C   UNL     1      45.217 -17.974   6.444  1.00  0.00     0.002 C 
HETATM   30  C   UNL     1      43.997 -17.403   7.170  1.00  0.00     0.025 C 
ENDBRANCH  22  25
ENDBRANCH  20  21
ENDBRANCH   2  20
BRANCH   3  31
HETATM   31  C   UNL     1      40.341 -13.882   2.471  1.00  0.00    -0.008 A 
HETATM   32  C   UNL     1      41.162 -13.428   1.432  1.00  0.00     0.017 A 
HETATM   33  C   UNL     1      41.582 -14.307   0.430  1.00  0.00     0.043 A 
HETATM   34  C   UNL     1      41.166 -15.633   0.457  1.00  0.00     0.116 A 
HETATM   35  F   UNL     1      41.568 -16.471  -0.506  1.00  0.00    -0.206 F 
HETATM   36  C   UNL     1      40.332 -16.098   1.465  1.00  0.00     0.043 A 
HETATM   37  C   UNL     1      39.920 -15.222   2.471  1.00  0.00     0.017 A 
ENDBRANCH   3  31
TORSDOF 8
ENDMDL
MODEL 5
REMARK VINA RESULT:      -8.8      2.946      5.160
REMARK  8 active torsions:
REMARK  status: ('A' for Active; 'I' for Inactive)
REMARK    1  A    between atoms: C_3  and  N_4 
REMARK       I    between atoms: N_4  and  C_5 
REMARK    2  A    between atoms: C_5  and  C_6 
REMARK    3  A    between atoms: C_6  and  S_7 
REMARK    4  A    between atoms: S_7  and  C_8 
REMARK    5  A    between atoms: N_9  and  C_10 
REMARK    6  A    between atoms: C_10  and  C_11 
REMARK       I    between atoms: C_11  and  N_12 
REMARK    7  A    between atoms: N_12  and  C_13 
REMARK    8  A    between atoms: C_20  and  C_21 
ROOT
HETATM    1  C   UNL     1      42.140 -13.085   4.853  1.00  0.00     0.169 A 
HETATM    2  N   UNL     1      41.943 -14.089   3.932  1.00  0.00    -0.315 N 
HETATM    3  C   UNL     1      42.783 -15.133   4.289  1.00  0.00     0.065 A 
HETATM    4  C   UNL     1      43.339 -14.722   5.490  1.00  0.00     0.150 A 
HETATM    5  N   UNL     1      42.914 -13.470   5.841  1.00  0.00    -0.234 NA
ENDROOT
BRANCH   1   6
HETATM    6  S   UNL     1      41.488 -11.490   4.678  1.00  0.00    -0.083 SA
BRANCH   6   7
HETATM    7  C   UNL     1      40.735 -11.217   6.302  1.00  0.00     0.185 C 
BRANCH   7   8
HETATM    8  C   UNL     1      41.700 -10.563   7.280  1.00  0.00     0.231 C 
HETATM    9  N   UNL     1      42.014 -11.372   8.358  1.00  0.00    -0.326 N 
HETATM   10  H   UNL     1      41.522 -12.266   8.384  1.00  0.00     0.169 HD
HETATM   11  O   UNL     1      42.044  -9.394   7.126  1.00  0.00    -0.272 OA
BRANCH   9  12
HETATM   12  C   UNL     1      42.717 -11.011   9.529  1.00  0.00     0.046 A 
HETATM   13  C   UNL     1      41.966 -10.386  10.558  1.00  0.00    -0.035 A 
HETATM   14  C   UNL     1      40.496 -10.091  10.415  1.00  0.00     0.050 C 
HETATM   15  C   UNL     1      42.607  -9.982  11.741  1.00  0.00     0.009 A 
HETATM   16  C   UNL     1      43.969 -10.188  11.913  1.00  0.00     0.001 A 
HETATM   17  C   UNL     1      44.700 -10.830  10.918  1.00  0.00     0.009 A 
HETATM   18  C   UNL     1      44.085 -11.276   9.733  1.00  0.00    -0.035 A 
HETATM   19  C   UNL     1      44.944 -12.072   8.788  1.00  0.00     0.050 C 
ENDBRANCH   9  12
ENDBRANCH   7   8
ENDBRANCH   6   7
ENDBRANCH   1   6
BRANCH   2  20
HETATM   20  C   UNL     1      40.942 -14.096   2.877  1.00  0.00     0.234 C 
BRANCH  20  21
HETATM   21  C   UNL     1      41.353 -13.648   1.492  1.00  0.00     0.236 C 
HETATM   22  N   UNL     1      40.602 -14.043   0.416  1.00  0.00    -0.355 N 
HETATM   23  H   UNL     1      39.769 -14.589   0.594  1.00  0.00     0.162 HD
HETATM   24  O   UNL     1      42.351 -12.936   1.389  1.00  0.00    -0.272 OA
BRANCH  22  25
HETATM   25  C   UNL     1      40.718 -13.535  -0.956  1.00  0.00     0.084 C 
HETATM   26  C   UNL     1      41.565 -14.451  -1.848  1.00  0.00     0.025 C 
HETATM   27  C   UNL     1      40.771 -15.545  -2.547  1.00  0.00     0.002 C 
HETATM   28  C   UNL     1      39.616 -14.956  -3.344  1.00  0.00     0.000 C 
HETATM   29  C   UNL     1      38.682 -14.120  -2.479  1.00  0.00     0.002 C 
HETATM   30  C   UNL     1      39.407 -13.082  -1.619  1.00  0.00     0.025 C 
ENDBRANCH  22  25
ENDBRANCH  20  21
ENDBRANCH   2  20
BRANCH   3  31
HETATM   31  C   UNL     1      43.078 -16.335   3.515  1.00  0.00    -0.008 A 
HETATM   32  C   UNL     1      43.728 -16.278   2.277  1.00  0.00     0.017 A 
HETATM   33  C   UNL     1      43.995 -17.452   1.567  1.00  0.00     0.043 A 
HETATM   34  C   UNL     1      43.596 -18.678   2.085  1.00  0.00     0.116 A 
HETATM   35  F   UNL     1      43.851 -19.800   1.401  1.00  0.00    -0.206 F 
HETATM   36  C   UNL     1      42.928 -18.755   3.301  1.00  0.00     0.043 A 
HETATM   37  C   UNL     1      42.670 -17.583   4.014  1.00  0.00     0.017 A 
ENDBRANCH   3  31
TORSDOF 8
ENDMDL
MODEL 6
REMARK VINA RESULT:      -8.7      4.633      9.281
REMARK  8 active torsions:
REMARK  status: ('A' for Active; 'I' for Inactive)
REMARK    1  A    between atoms: C_3  and  N_4 
REMARK       I    between atoms: N_4  and  C_5 
REMARK    2  A    between atoms: C_5  and  C_6 
REMARK    3  A    between atoms: C_6  and  S_7 
REMARK    4  A    between atoms: S_7  and  C_8 
REMARK    5  A    between atoms: N_9  and  C_10 
REMARK    6  A    between atoms: C_10  and  C_11 
REMARK       I    between atoms: C_11  and  N_12 
REMARK    7  A    between atoms: N_12  and  C_13 
REMARK    8  A    between atoms: C_20  and  C_21 
ROOT
HETATM    1  C   UNL     1      40.949 -13.824   3.275  1.00  0.00     0.169 A 
HETATM    2  N   UNL     1      41.106 -13.584   1.929  1.00  0.00    -0.315 N 
HETATM    3  C   UNL     1      40.158 -14.351   1.268  1.00  0.00     0.065 A 
HETATM    4  C   UNL     1      39.407 -14.909   2.290  1.00  0.00     0.150 A 
HETATM    5  N   UNL     1      39.887 -14.554   3.522  1.00  0.00    -0.234 NA
ENDROOT
BRANCH   1   6
HETATM    6  S   UNL     1      42.066 -13.274   4.477  1.00  0.00    -0.083 SA
BRANCH   6   7
HETATM    7  C   UNL     1      42.651 -14.836   5.182  1.00  0.00     0.185 C 
BRANCH   7   8
HETATM    8  C   UNL     1      43.138 -15.803   4.112  1.00  0.00     0.231 C 
HETATM    9  N   UNL     1      42.825 -17.122   4.388  1.00  0.00    -0.326 N 
HETATM   10  H   UNL     1      42.365 -17.278   5.285  1.00  0.00     0.169 HD
HETATM   11  O   UNL     1      43.827 -15.399   3.178  1.00  0.00    -0.272 OA
BRANCH   9  12
HETATM   12  C   UNL     1      43.287 -18.274   3.713  1.00  0.00     0.046 A 
HETATM   13  C   UNL     1      44.206 -19.100   4.412  1.00  0.00    -0.035 A 
HETATM   14  C   UNL     1      44.697 -18.763   5.796  1.00  0.00     0.050 C 
HETATM   15  C   UNL     1      44.721 -20.250   3.791  1.00  0.00     0.009 A 
HETATM   16  C   UNL     1      44.339 -20.587   2.500  1.00  0.00     0.001 A 
HETATM   17  C   UNL     1      43.413 -19.797   1.826  1.00  0.00     0.009 A 
HETATM   18  C   UNL     1      42.853 -18.654   2.428  1.00  0.00    -0.035 A 
HETATM   19  C   UNL     1      41.767 -17.952   1.658  1.00  0.00     0.050 C 
ENDBRANCH   9  12
ENDBRANCH   7   8
ENDBRANCH   6   7
ENDBRANCH   1   6
BRANCH   2  20
HETATM   20  C   UNL     1      42.002 -12.604   1.334  1.00  0.00     0.234 C 
BRANCH  20  21
HETATM   21  C   UNL     1      41.416 -11.565   0.403  1.00  0.00     0.236 C 
HETATM   22  N   UNL     1      41.737 -11.611  -0.929  1.00  0.00    -0.355 N 
HETATM   23  H   UNL     1      42.324 -12.371  -1.249  1.00  0.00     0.162 HD
HETATM   24  O   UNL     1      40.666 -10.718   0.885  1.00  0.00    -0.272 OA
BRANCH  22  25
HETATM   25  C   UNL     1      41.103 -10.834  -1.999  1.00  0.00     0.084 C 
HETATM   26  C   UNL     1      41.667  -9.411  -2.102  1.00  0.00     0.025 C 
HETATM   27  C   UNL     1      42.877  -9.287  -3.018  1.00  0.00     0.002 C 
HETATM   28  C   UNL     1      42.568  -9.832  -4.405  1.00  0.00     0.000 C 
HETATM   29  C   UNL     1      42.102 -11.282  -4.368  1.00  0.00     0.002 C 
HETATM   30  C   UNL     1      40.979 -11.540  -3.361  1.00  0.00     0.025 C 
ENDBRANCH  22  25
ENDBRANCH  20  21
ENDBRANCH   2  20
BRANCH   3  31
HETATM   31  C   UNL     1      40.055 -14.587  -0.168  1.00  0.00    -0.008 A 
HETATM   32  C   UNL     1      41.021 -15.316  -0.871  1.00  0.00     0.017 A 
HETATM   33  C   UNL     1      40.885 -15.523  -2.247  1.00  0.00     0.043 A 
HETATM   34  C   UNL     1      39.796 -14.984  -2.921  1.00  0.00     0.116 A 
HETATM   35  F   UNL     1      39.670 -15.181  -4.239  1.00  0.00    -0.206 F 
HETATM   36  C   UNL     1      38.839 -14.237  -2.247  1.00  0.00     0.043 A 
HETATM   37  C   UNL     1      38.970 -14.038  -0.871  1.00  0.00     0.017 A 
ENDBRANCH   3  31
TORSDOF 8
ENDMDL
MODEL 7
REMARK VINA RESULT:      -8.7      5.741      9.662
REMARK  8 active torsions:
REMARK  status: ('A' for Active; 'I' for Inactive)
REMARK    1  A    between atoms: C_3  and  N_4 
REMARK       I    between atoms: N_4  and  C_5 
REMARK    2  A    between atoms: C_5  and  C_6 
REMARK    3  A    between atoms: C_6  and  S_7 
REMARK    4  A    between atoms: S_7  and  C_8 
REMARK    5  A    between atoms: N_9  and  C_10 
REMARK    6  A    between atoms: C_10  and  C_11 
REMARK       I    between atoms: C_11  and  N_12 
REMARK    7  A    between atoms: N_12  and  C_13 
REMARK    8  A    between atoms: C_20  and  C_21 
ROOT
HETATM    1  C   UNL     1      41.892 -15.184   2.621  1.00  0.00     0.169 A 
HETATM    2  N   UNL     1      41.328 -14.032   2.124  1.00  0.00    -0.315 N 
HETATM    3  C   UNL     1      39.978 -14.074   2.440  1.00  0.00     0.065 A 
HETATM    4  C   UNL     1      39.853 -15.208   3.226  1.00  0.00     0.150 A 
HETATM    5  N   UNL     1      41.044 -15.869   3.353  1.00  0.00    -0.234 NA
ENDROOT
BRANCH   1   6
HETATM    6  S   UNL     1      43.509 -15.687   2.260  1.00  0.00    -0.083 SA
BRANCH   6   7
HETATM    7  C   UNL     1      43.222 -17.195   1.299  1.00  0.00     0.185 C 
BRANCH   7   8
HETATM    8  C   UNL     1      43.015 -18.413   2.189  1.00  0.00     0.231 C 
HETATM    9  N   UNL     1      44.200 -18.947   2.663  1.00  0.00    -0.326 N 
HETATM   10  H   UNL     1      45.046 -18.497   2.316  1.00  0.00     0.169 HD
HETATM   11  O   UNL     1      41.892 -18.886   2.343  1.00  0.00    -0.272 OA
BRANCH   9  12
HETATM   12  C   UNL     1      44.379 -20.172   3.346  1.00  0.00     0.046 A 
HETATM   13  C   UNL     1      44.554 -20.102   4.751  1.00  0.00    -0.035 A 
HETATM   14  C   UNL     1      44.580 -18.790   5.494  1.00  0.00     0.050 C 
HETATM   15  C   UNL     1      44.758 -21.280   5.488  1.00  0.00     0.009 A 
HETATM   16  C   UNL     1      44.788 -22.514   4.854  1.00  0.00     0.001 A 
HETATM   17  C   UNL     1      44.583 -22.588   3.479  1.00  0.00     0.009 A 
HETATM   18  C   UNL     1      44.346 -21.430   2.713  1.00  0.00    -0.035 A 
HETATM   19  C   UNL     1      44.007 -21.642   1.262  1.00  0.00     0.050 C 
ENDBRANCH   9  12
ENDBRANCH   7   8
ENDBRANCH   6   7
ENDBRANCH   1   6
BRANCH   2  20
HETATM   20  C   UNL     1      42.046 -12.924   1.513  1.00  0.00     0.234 C 
BRANCH  20  21
HETATM   21  C   UNL     1      42.015 -12.791   0.006  1.00  0.00     0.236 C 
HETATM   22  N   UNL     1      41.208 -13.630  -0.718  1.00  0.00    -0.355 N 
HETATM   23  H   UNL     1      40.626 -14.284  -0.210  1.00  0.00     0.162 HD
HETATM   24  O   UNL     1      42.717 -11.924  -0.511  1.00  0.00    -0.272 OA
BRANCH  22  25
HETATM   25  C   UNL     1      40.886 -13.506  -2.144  1.00  0.00     0.084 C 
HETATM   26  C   UNL     1      41.454 -14.665  -2.974  1.00  0.00     0.025 C 
HETATM   27  C   UNL     1      40.522 -15.864  -3.085  1.00  0.00     0.002 C 
HETATM   28  C   UNL     1      39.161 -15.448  -3.625  1.00  0.00     0.000 C 
HETATM   29  C   UNL     1      38.506 -14.368  -2.773  1.00  0.00     0.002 C 
HETATM   30  C   UNL     1      39.422 -13.178  -2.478  1.00  0.00     0.025 C 
ENDBRANCH  22  25
ENDBRANCH  20  21
ENDBRANCH   2  20
BRANCH   3  31
HETATM   31  C   UNL     1      38.929 -13.179   1.962  1.00  0.00    -0.008 A 
HETATM   32  C   UNL     1      38.754 -11.894   2.487  1.00  0.00     0.017 A 
HETATM   33  C   UNL     1      37.739 -11.065   2.000  1.00  0.00     0.043 A 
HETATM   34  C   UNL     1      36.889 -11.529   1.003  1.00  0.00     0.116 A 
HETATM   35  F   UNL     1      35.917 -10.734   0.540  1.00  0.00    -0.206 F 
HETATM   36  C   UNL     1      37.031 -12.809   0.484  1.00  0.00     0.043 A 
HETATM   37  C   UNL     1      38.050 -13.634   0.965  1.00  0.00     0.017 A 
ENDBRANCH   3  31
TORSDOF 8
ENDMDL
MODEL 8
REMARK VINA RESULT:      -8.6      4.387      7.785
REMARK  8 active torsions:
REMARK  status: ('A' for Active; 'I' for Inactive)
REMARK    1  A    between atoms: C_3  and  N_4 
REMARK       I    between atoms: N_4  and  C_5 
REMARK    2  A    between atoms: C_5  and  C_6 
REMARK    3  A    between atoms: C_6  and  S_7 
REMARK    4  A    between atoms: S_7  and  C_8 
REMARK    5  A    between atoms: N_9  and  C_10 
REMARK    6  A    between atoms: C_10  and  C_11 
REMARK       I    between atoms: C_11  and  N_12 
REMARK    7  A    between atoms: N_12  and  C_13 
REMARK    8  A    between atoms: C_20  and  C_21 
ROOT
HETATM    1  C   UNL     1      42.995 -15.486   4.407  1.00  0.00     0.169 A 
HETATM    2  N   UNL     1      43.225 -16.442   3.443  1.00  0.00    -0.315 N 
HETATM    3  C   UNL     1      43.243 -17.670   4.089  1.00  0.00     0.065 A 
HETATM    4  C   UNL     1      42.893 -17.367   5.395  1.00  0.00     0.150 A 
HETATM    5  N   UNL     1      42.715 -16.022   5.572  1.00  0.00    -0.234 NA
ENDROOT
BRANCH   1   6
HETATM    6  S   UNL     1      43.127 -13.785   4.113  1.00  0.00    -0.083 SA
BRANCH   6   7
HETATM    7  C   UNL     1      41.392 -13.268   4.142  1.00  0.00     0.185 C 
BRANCH   7   8
HETATM    8  C   UNL     1      40.980 -12.566   2.856  1.00  0.00     0.231 C 
HETATM    9  N   UNL     1      39.611 -12.404   2.739  1.00  0.00    -0.326 N 
HETATM   10  H   UNL     1      39.062 -12.819   3.492  1.00  0.00     0.169 HD
HETATM   11  O   UNL     1      41.819 -12.293   2.001  1.00  0.00    -0.272 OA
BRANCH   9  12
HETATM   12  C   UNL     1      38.890 -11.974   1.603  1.00  0.00     0.046 A 
HETATM   13  C   UNL     1      38.125 -12.954   0.921  1.00  0.00    -0.035 A 
HETATM   14  C   UNL     1      38.095 -14.397   1.356  1.00  0.00     0.050 C 
HETATM   15  C   UNL     1      37.401 -12.598  -0.229  1.00  0.00     0.009 A 
HETATM   16  C   UNL     1      37.425 -11.294  -0.704  1.00  0.00     0.001 A 
HETATM   17  C   UNL     1      38.148 -10.324  -0.017  1.00  0.00     0.009 A 
HETATM   18  C   UNL     1      38.861 -10.638   1.156  1.00  0.00    -0.035 A 
HETATM   19  C   UNL     1      39.496  -9.485   1.886  1.00  0.00     0.050 C 
ENDBRANCH   9  12
ENDBRANCH   7   8
ENDBRANCH   6   7
ENDBRANCH   1   6
BRANCH   2  20
HETATM   20  C   UNL     1      43.291 -16.210   2.009  1.00  0.00     0.234 C 
BRANCH  20  21
HETATM   21  C   UNL     1      42.020 -15.832   1.281  1.00  0.00     0.236 C 
HETATM   22  N   UNL     1      42.086 -14.922   0.258  1.00  0.00    -0.355 N 
HETATM   23  H   UNL     1      42.997 -14.568  -0.003  1.00  0.00     0.162 HD
HETATM   24  O   UNL     1      40.971 -16.365   1.639  1.00  0.00    -0.272 OA
BRANCH  22  25
HETATM   25  C   UNL     1      41.012 -14.603  -0.689  1.00  0.00     0.084 C 
HETATM   26  C   UNL     1      41.064 -13.145  -1.162  1.00  0.00     0.025 C 
HETATM   27  C   UNL     1      41.928 -12.922  -2.395  1.00  0.00     0.002 C 
HETATM   28  C   UNL     1      41.493 -13.830  -3.536  1.00  0.00     0.000 C 
HETATM   29  C   UNL     1      41.525 -15.303  -3.149  1.00  0.00     0.002 C 
HETATM   30  C   UNL     1      40.803 -15.608  -1.834  1.00  0.00     0.025 C 
ENDBRANCH  22  25
ENDBRANCH  20  21
ENDBRANCH   2  20
BRANCH   3  31
HETATM   31  C   UNL     1      43.642 -18.957   3.530  1.00  0.00    -0.008 A 
HETATM   32  C   UNL     1      43.117 -19.438   2.325  1.00  0.00     0.017 A 
HETATM   33  C   UNL     1      43.526 -20.675   1.821  1.00  0.00     0.043 A 
HETATM   34  C   UNL     1      44.446 -21.438   2.530  1.00  0.00     0.116 A 
HETATM   35  F   UNL     1      44.835 -22.624   2.045  1.00  0.00    -0.206 F 
HETATM   36  C   UNL     1      44.963 -20.991   3.739  1.00  0.00     0.043 A 
HETATM   37  C   UNL     1      44.560 -19.751   4.238  1.00  0.00     0.017 A 
ENDBRANCH   3  31
TORSDOF 8
ENDMDL
MODEL 9
REMARK VINA RESULT:      -8.6      4.647      9.763
REMARK  8 active torsions:
REMARK  status: ('A' for Active; 'I' for Inactive)
REMARK    1  A    between atoms: C_3  and  N_4 
REMARK       I    between atoms: N_4  and  C_5 
REMARK    2  A    between atoms: C_5  and  C_6 
REMARK    3  A    between atoms: C_6  and  S_7 
REMARK    4  A    between atoms: S_7  and  C_8 
REMARK    5  A    between atoms: N_9  and  C_10 
REMARK    6  A    between atoms: C_10  and  C_11 
REMARK       I    between atoms: C_11  and  N_12 
REMARK    7  A    between atoms: N_12  and  C_13 
REMARK    8  A    between atoms: C_20  and  C_21 
ROOT
HETATM    1  C   UNL     1      42.309 -14.987   2.124  1.00  0.00     0.169 A 
HETATM    2  N   UNL     1      41.338 -14.048   2.391  1.00  0.00    -0.315 N 
HETATM    3  C   UNL     1      41.785 -13.304   3.474  1.00  0.00     0.065 A 
HETATM    4  C   UNL     1      43.067 -13.777   3.700  1.00  0.00     0.150 A 
HETATM    5  N   UNL     1      43.389 -14.795   2.844  1.00  0.00    -0.234 NA
ENDROOT
BRANCH   1   6
HETATM    6  S   UNL     1      42.087 -16.296   1.012  1.00  0.00    -0.083 SA
BRANCH   6   7
HETATM    7  C   UNL     1      43.576 -17.285   1.302  1.00  0.00     0.185 C 
BRANCH   7   8
HETATM    8  C   UNL     1      43.359 -18.353   2.364  1.00  0.00     0.231 C 
HETATM    9  N   UNL     1      44.469 -19.154   2.565  1.00  0.00    -0.326 N 
HETATM   10  H   UNL     1      45.256 -18.963   1.946  1.00  0.00     0.169 HD
HETATM   11  O   UNL     1      42.252 -18.503   2.877  1.00  0.00    -0.272 OA
BRANCH   9  12
HETATM   12  C   UNL     1      44.546 -20.342   3.326  1.00  0.00     0.046 A 
HETATM   13  C   UNL     1      44.720 -20.196   4.726  1.00  0.00    -0.035 A 
HETATM   14  C   UNL     1      44.846 -18.846   5.383  1.00  0.00     0.050 C 
HETATM   15  C   UNL     1      44.824 -21.337   5.538  1.00  0.00     0.009 A 
HETATM   16  C   UNL     1      44.759 -22.608   4.984  1.00  0.00     0.001 A 
HETATM   17  C   UNL     1      44.555 -22.754   3.615  1.00  0.00     0.009 A 
HETATM   18  C   UNL     1      44.415 -21.632   2.775  1.00  0.00    -0.035 A 
HETATM   19  C   UNL     1      44.068 -21.910   1.337  1.00  0.00     0.050 C 
ENDBRANCH   9  12
ENDBRANCH   7   8
ENDBRANCH   6   7
ENDBRANCH   1   6
BRANCH   2  20
HETATM   20  C   UNL     1      40.145 -13.802   1.597  1.00  0.00     0.234 C 
BRANCH  20  21
HETATM   21  C   UNL     1      40.312 -13.500   0.123  1.00  0.00     0.236 C 
HETATM   22  N   UNL     1      39.577 -14.214  -0.787  1.00  0.00    -0.355 N 
HETATM   23  H   UNL     1      38.913 -14.892  -0.435  1.00  0.00     0.162 HD
HETATM   24  O   UNL     1      41.103 -12.615  -0.198  1.00  0.00    -0.272 OA
BRANCH  22  25
HETATM   25  C   UNL     1      39.445 -13.917  -2.218  1.00  0.00     0.084 C 
HETATM   26  C   UNL     1      40.443 -14.708  -3.074  1.00  0.00     0.025 C 
HETATM   27  C   UNL     1      39.932 -16.069  -3.526  1.00  0.00     0.002 C 
HETATM   28  C   UNL     1      38.603 -15.936  -4.256  1.00  0.00     0.000 C 
HETATM   29  C   UNL     1      37.542 -15.248  -3.406  1.00  0.00     0.002 C 
HETATM   30  C   UNL     1      38.014 -13.934  -2.781  1.00  0.00     0.025 C 
ENDBRANCH  22  25
ENDBRANCH  20  21
ENDBRANCH   2  20
BRANCH   3  31
HETATM   31  C   UNL     1      41.027 -12.326   4.247  1.00  0.00    -0.008 A 
HETATM   32  C   UNL     1      40.325 -12.678   5.405  1.00  0.00     0.017 A 
HETATM   33  C   UNL     1      39.612 -11.711   6.119  1.00  0.00     0.043 A 
HETATM   34  C   UNL     1      39.588 -10.397   5.666  1.00  0.00     0.116 A 
HETATM   35  F   UNL     1      38.902  -9.474   6.352  1.00  0.00    -0.206 F 
HETATM   36  C   UNL     1      40.258 -10.031   4.507  1.00  0.00     0.043 A 
HETATM   37  C   UNL     1      40.977 -10.996   3.797  1.00  0.00     0.017 A 
ENDBRANCH   3  31
TORSDOF 8
ENDMDL
MODEL 10
REMARK VINA RESULT:      -8.5      4.250      7.825
REMARK  8 active torsions:
REMARK  status: ('A' for Active; 'I' for Inactive)
REMARK    1  A    between atoms: C_3  and  N_4 
REMARK       I    between atoms: N_4  and  C_5 
REMARK    2  A    between atoms: C_5  and  C_6 
REMARK    3  A    between atoms: C_6  and  S_7 
REMARK    4  A    between atoms: S_7  and  C_8 
REMARK    5  A    between atoms: N_9  and  C_10 
REMARK    6  A    between atoms: C_10  and  C_11 
REMARK       I    between atoms: C_11  and  N_12 
REMARK    7  A    between atoms: N_12  and  C_13 
REMARK    8  A    between atoms: C_20  and  C_21 
ROOT
HETATM    1  C   UNL     1      40.000 -14.032   3.784  1.00  0.00     0.169 A 
HETATM    2  N   UNL     1      40.729 -15.170   4.042  1.00  0.00    -0.315 N 
HETATM    3  C   UNL     1      41.152 -15.088   5.360  1.00  0.00     0.065 A 
HETATM    4  C   UNL     1      40.531 -13.947   5.842  1.00  0.00     0.150 A 
HETATM    5  N   UNL     1      39.801 -13.320   4.868  1.00  0.00    -0.234 NA
ENDROOT
BRANCH   1   6
HETATM    6  S   UNL     1      39.473 -13.577   2.198  1.00  0.00    -0.083 SA
BRANCH   6   7
HETATM    7  C   UNL     1      41.019 -13.015   1.441  1.00  0.00     0.185 C 
BRANCH   7   8
HETATM    8  C   UNL     1      40.803 -12.453   0.043  1.00  0.00     0.231 C 
HETATM    9  N   UNL     1      41.972 -12.353  -0.690  1.00  0.00    -0.326 N 
HETATM   10  H   UNL     1      42.820 -12.612  -0.186  1.00  0.00     0.169 HD
HETATM   11  O   UNL     1      39.694 -12.050  -0.300  1.00  0.00    -0.272 OA
BRANCH   9  12
HETATM   12  C   UNL     1      42.156 -11.706  -1.932  1.00  0.00     0.046 A 
HETATM   13  C   UNL     1      42.669 -10.384  -1.896  1.00  0.00    -0.035 A 
HETATM   14  C   UNL     1      42.984  -9.680  -0.601  1.00  0.00     0.050 C 
HETATM   15  C   UNL     1      42.857  -9.675  -3.094  1.00  0.00     0.009 A 
HETATM   16  C   UNL     1      42.543 -10.256  -4.315  1.00  0.00     0.001 A 
HETATM   17  C   UNL     1      42.070 -11.564  -4.355  1.00  0.00     0.009 A 
HETATM   18  C   UNL     1      41.900 -12.315  -3.177  1.00  0.00    -0.035 A 
HETATM   19  C   UNL     1      41.509 -13.758  -3.350  1.00  0.00     0.050 C 
ENDBRANCH   9  12
ENDBRANCH   7   8
ENDBRANCH   6   7
ENDBRANCH   1   6
BRANCH   2  20
HETATM   20  C   UNL     1      40.896 -16.300   3.141  1.00  0.00     0.234 C 
BRANCH  20  21
HETATM   21  C   UNL     1      42.301 -16.735   2.786  1.00  0.00     0.236 C 
HETATM   22  N   UNL     1      42.760 -17.941   3.250  1.00  0.00    -0.355 N 
HETATM   23  H   UNL     1      42.121 -18.519   3.781  1.00  0.00     0.162 HD
HETATM   24  O   UNL     1      42.976 -15.984   2.084  1.00  0.00    -0.272 OA
BRANCH  22  25
HETATM   25  C   UNL     1      43.994 -18.616   2.833  1.00  0.00     0.084 C 
HETATM   26  C   UNL     1      44.788 -19.169   4.024  1.00  0.00     0.025 C 
HETATM   27  C   UNL     1      44.400 -20.585   4.426  1.00  0.00     0.002 C 
HETATM   28  C   UNL     1      44.500 -21.535   3.241  1.00  0.00     0.000 C 
HETATM   29  C   UNL     1      43.643 -21.085   2.064  1.00  0.00     0.002 C 
HETATM   30  C   UNL     1      43.855 -19.620   1.676  1.00  0.00     0.025 C 
ENDBRANCH  22  25
ENDBRANCH  20  21
ENDBRANCH   2  20
BRANCH   3  31
HETATM   31  C   UNL     1      42.112 -15.954   6.037  1.00  0.00    -0.008 A 
HETATM   32  C   UNL     1      41.717 -17.119   6.706  1.00  0.00     0.017 A 
HETATM   33  C   UNL     1      42.667 -17.925   7.340  1.00  0.00     0.043 A 
HETATM   34  C   UNL     1      44.007 -17.556   7.320  1.00  0.00     0.116 A 
HETATM   35  F   UNL     1      44.914 -18.329   7.931  1.00  0.00    -0.206 F 
HETATM   36  C   UNL     1      44.417 -16.393   6.683  1.00  0.00     0.043 A 
HETATM   37  C   UNL     1      43.469 -15.592   6.042  1.00  0.00     0.017 A 
ENDBRANCH   3  31
TORSDOF 8
ENDMDL
