MODEL 1
REMARK VINA RESULT:      -7.2      0.000      0.000
REMARK  6 active torsions:
REMARK  status: ('A' for Active; 'I' for Inactive)
REMARK    1  A    between atoms: C_2  and  C_3 
REMARK    2  A    between atoms: C_3  and  N_4 
REMARK    3  A    between atoms: C_3  and  C_15 
REMARK       I    between atoms: N_4  and  C_5 
REMARK       I    between atoms: C_5  and  N_6 
REMARK    4  A    between atoms: N_6  and  C_7 
REMARK    5  A    between atoms: C_16  and  O_17 
REMARK    6  A    between atoms: O_17  and  C_18 
ROOT
HETATM    1  N   UNL     1      42.610 -17.391   3.546  1.00  0.00    -0.334 N 
HETATM    2  C   UNL     1      42.365 -16.073   3.845  1.00  0.00     0.321 C 
HETATM    3  N   UNL     1      41.077 -15.913   4.302  1.00  0.00    -0.307 N 
HETATM    4  O   UNL     1      43.217 -15.200   3.759  1.00  0.00    -0.247 OA
HETATM    5  H   UNL     1      41.833 -17.957   3.236  1.00  0.00     0.165 HD
HETATM    6  H   UNL     1      40.631 -16.770   4.589  1.00  0.00     0.170 HD
ENDROOT
BRANCH   1   7
HETATM    7  C   UNL     1      43.921 -17.872   3.143  1.00  0.00     0.122 C 
BRANCH   7   8
HETATM    8  C   UNL     1      44.198 -17.737   1.631  1.00  0.00     0.026 C 
HETATM    9  C   UNL     1      43.001 -17.369   0.765  1.00  0.00     0.007 C 
ENDBRANCH   7   8
BRANCH   7  10
HETATM   10  C   UNL     1      44.192 -19.273   3.684  1.00  0.00    -0.002 A 
HETATM   11  C   UNL     1      44.380 -19.565   5.051  1.00  0.00     0.077 A 
HETATM   12  C   UNL     1      44.646 -20.882   5.451  1.00  0.00     0.037 A 
HETATM   13  C   UNL     1      44.702 -21.913   4.513  1.00  0.00     0.003 A 
HETATM   14  C   UNL     1      44.497 -21.640   3.166  1.00  0.00     0.001 A 
HETATM   15  C   UNL     1      44.244 -20.332   2.755  1.00  0.00     0.012 A 
BRANCH  11  16
HETATM   16  O   UNL     1      44.329 -18.508   5.928  1.00  0.00    -0.351 OA
BRANCH  16  17
HETATM   17  C   UNL     1      43.526 -18.685   7.098  1.00  0.00     0.171 C 
HETATM   18  C   UNL     1      42.663 -17.448   7.266  1.00  0.00     0.034 C 
ENDBRANCH  16  17
ENDBRANCH  11  16
ENDBRANCH   7  10
ENDBRANCH   1   7
BRANCH   3  19
HETATM   19  C   UNL     1      40.448 -14.698   4.655  1.00  0.00     0.059 A 
HETATM   20  C   UNL     1      39.907 -13.879   3.647  1.00  0.00    -0.032 A 
HETATM   21  C   UNL     1      39.933 -14.262   2.194  1.00  0.00     0.050 C 
HETATM   22  C   UNL     1      39.299 -12.670   4.015  1.00  0.00     0.028 A 
HETATM   23  C   UNL     1      39.258 -12.315   5.353  1.00  0.00     0.117 A 
HETATM   24  N   UNL     1      39.772 -13.070   6.340  1.00  0.00    -0.271 NA
HETATM   25  C   UNL     1      40.350 -14.242   5.972  1.00  0.00     0.146 A 
ENDBRANCH   3  19
TORSDOF 6
ENDMDL
MODEL 2
REMARK VINA RESULT:      -7.0      2.445      3.772
REMARK  6 active torsions:
REMARK  status: ('A' for Active; 'I' for Inactive)
REMARK    1  A    between atoms: C_2  and  C_3 
REMARK    2  A    between atoms: C_3  and  N_4 
REMARK    3  A    between atoms: C_3  and  C_15 
REMARK       I    between atoms: N_4  and  C_5 
REMARK       I    between atoms: C_5  and  N_6 
REMARK    4  A    between atoms: N_6  and  C_7 
REMARK    5  A    between atoms: C_16  and  O_17 
REMARK    6  A    between atoms: O_17  and  C_18 
ROOT
HETATM    1  N   UNL     1      43.091 -18.668   2.930  1.00  0.00    -0.334 N 
HETATM    2  C   UNL     1      43.232 -17.613   2.061  1.00  0.00     0.321 C 
HETATM    3  N   UNL     1      42.005 -17.069   1.759  1.00  0.00    -0.307 N 
HETATM    4  O   UNL     1      44.319 -17.207   1.676  1.00  0.00    -0.247 OA
HETATM    5  H   UNL     1      42.237 -19.206   2.885  1.00  0.00     0.165 HD
HETATM    6  H   UNL     1      41.268 -17.334   2.394  1.00  0.00     0.170 HD
ENDROOT
BRANCH   1   7
HETATM    7  C   UNL     1      44.228 -19.365   3.505  1.00  0.00     0.122 C 
BRANCH   7   8
HETATM    8  C   UNL     1      44.645 -20.631   2.726  1.00  0.00     0.026 C 
HETATM    9  C   UNL     1      43.596 -21.208   1.786  1.00  0.00     0.007 C 
ENDBRANCH   7   8
BRANCH   7  10
HETATM   10  C   UNL     1      44.034 -19.613   4.998  1.00  0.00    -0.002 A 
HETATM   11  C   UNL     1      43.760 -18.594   5.935  1.00  0.00     0.077 A 
HETATM   12  C   UNL     1      43.619 -18.916   7.292  1.00  0.00     0.037 A 
HETATM   13  C   UNL     1      43.722 -20.238   7.724  1.00  0.00     0.003 A 
HETATM   14  C   UNL     1      43.971 -21.253   6.807  1.00  0.00     0.001 A 
HETATM   15  C   UNL     1      44.125 -20.942   5.457  1.00  0.00     0.012 A 
BRANCH  11  16
HETATM   16  O   UNL     1      43.685 -17.308   5.456  1.00  0.00    -0.351 OA
BRANCH  16  17
HETATM   17  C   UNL     1      42.672 -16.472   6.020  1.00  0.00     0.171 C 
HETATM   18  C   UNL     1      41.344 -16.853   5.392  1.00  0.00     0.034 C 
ENDBRANCH  16  17
ENDBRANCH  11  16
ENDBRANCH   7  10
ENDBRANCH   1   7
BRANCH   3  19
HETATM   19  C   UNL     1      41.745 -16.010   0.861  1.00  0.00     0.059 A 
HETATM   20  C   UNL     1      41.867 -14.680   1.305  1.00  0.00    -0.032 A 
HETATM   21  C   UNL     1      42.304 -14.330   2.700  1.00  0.00     0.050 C 
HETATM   22  C   UNL     1      41.592 -13.641   0.404  1.00  0.00     0.028 A 
HETATM   23  C   UNL     1      41.202 -13.953  -0.888  1.00  0.00     0.117 A 
HETATM   24  N   UNL     1      41.068 -15.212  -1.342  1.00  0.00    -0.271 NA
HETATM   25  C   UNL     1      41.346 -16.209  -0.462  1.00  0.00     0.146 A 
ENDBRANCH   3  19
TORSDOF 6
ENDMDL
MODEL 3
REMARK VINA RESULT:      -6.9      2.631      4.816
REMARK  6 active torsions:
REMARK  status: ('A' for Active; 'I' for Inactive)
REMARK    1  A    between atoms: C_2  and  C_3 
REMARK    2  A    between atoms: C_3  and  N_4 
REMARK    3  A    between atoms: C_3  and  C_15 
REMARK       I    between atoms: N_4  and  C_5 
REMARK       I    between atoms: C_5  and  N_6 
REMARK    4  A    between atoms: N_6  and  C_7 
REMARK    5  A    between atoms: C_16  and  O_17 
REMARK    6  A    between atoms: O_17  and  C_18 
ROOT
HETATM    1  N   UNL     1      41.518 -15.900   3.549  1.00  0.00    -0.334 N 
HETATM    2  C   UNL     1      40.847 -16.058   2.361  1.00  0.00     0.321 C 
HETATM    3  N   UNL     1      41.250 -15.110   1.449  1.00  0.00    -0.307 N 
HETATM    4  O   UNL     1      40.050 -16.964   2.159  1.00  0.00    -0.247 OA
HETATM    5  H   UNL     1      41.811 -14.969   3.806  1.00  0.00     0.165 HD
HETATM    6  H   UNL     1      42.116 -14.651   1.686  1.00  0.00     0.170 HD
ENDROOT
BRANCH   1   7
HETATM    7  C   UNL     1      41.372 -16.827   4.659  1.00  0.00     0.122 C 
BRANCH   7   8
HETATM    8  C   UNL     1      40.630 -16.234   5.876  1.00  0.00     0.026 C 
HETATM    9  C   UNL     1      40.371 -14.735   5.830  1.00  0.00     0.007 C 
ENDBRANCH   7   8
BRANCH   7  10
HETATM   10  C   UNL     1      42.704 -17.477   5.022  1.00  0.00    -0.002 A 
HETATM   11  C   UNL     1      43.349 -18.448   4.226  1.00  0.00     0.077 A 
HETATM   12  C   UNL     1      44.562 -19.005   4.654  1.00  0.00     0.037 A 
HETATM   13  C   UNL     1      45.153 -18.590   5.847  1.00  0.00     0.003 A 
HETATM   14  C   UNL     1      44.539 -17.618   6.629  1.00  0.00     0.001 A 
HETATM   15  C   UNL     1      43.325 -17.067   6.219  1.00  0.00     0.012 A 
BRANCH  11  16
HETATM   16  O   UNL     1      42.712 -18.830   3.070  1.00  0.00    -0.351 OA
BRANCH  16  17
HETATM   17  C   UNL     1      43.541 -19.060   1.928  1.00  0.00     0.171 C 
HETATM   18  C   UNL     1      43.864 -17.716   1.303  1.00  0.00     0.034 C 
ENDBRANCH  16  17
ENDBRANCH  11  16
ENDBRANCH   7  10
ENDBRANCH   1   7
BRANCH   3  19
HETATM   19  C   UNL     1      40.747 -14.923   0.142  1.00  0.00     0.059 A 
HETATM   20  C   UNL     1      39.696 -14.011  -0.072  1.00  0.00    -0.032 A 
HETATM   21  C   UNL     1      39.103 -13.187   1.036  1.00  0.00     0.050 C 
HETATM   22  C   UNL     1      39.200 -13.849  -1.373  1.00  0.00     0.028 A 
HETATM   23  C   UNL     1      39.751 -14.593  -2.403  1.00  0.00     0.117 A 
HETATM   24  N   UNL     1      40.749 -15.478  -2.232  1.00  0.00    -0.271 NA
HETATM   25  C   UNL     1      41.226 -15.619  -0.968  1.00  0.00     0.146 A 
ENDBRANCH   3  19
TORSDOF 6
ENDMDL
MODEL 4
REMARK VINA RESULT:      -6.9      4.666      8.263
REMARK  6 active torsions:
REMARK  status: ('A' for Active; 'I' for Inactive)
REMARK    1  A    between atoms: C_2  and  C_3 
REMARK    2  A    between atoms: C_3  and  N_4 
REMARK    3  A    between atoms: C_3  and  C_15 
REMARK       I    between atoms: N_4  and  C_5 
REMARK       I    between atoms: C_5  and  N_6 
REMARK    4  A    between atoms: N_6  and  C_7 
REMARK    5  A    between atoms: C_16  and  O_17 
REMARK    6  A    between atoms: O_17  and  C_18 
ROOT
HETATM    1  N   UNL     1      44.176 -13.613   8.197  1.00  0.00    -0.334 N 
HETATM    2  C   UNL     1      44.085 -14.155   6.938  1.00  0.00     0.321 C 
HETATM    3  N   UNL     1      43.365 -15.327   6.968  1.00  0.00    -0.307 N 
HETATM    4  O   UNL     1      44.543 -13.612   5.942  1.00  0.00    -0.247 OA
HETATM    5  H   UNL     1      44.170 -14.244   8.985  1.00  0.00     0.165 HD
HETATM    6  H   UNL     1      42.818 -15.454   7.805  1.00  0.00     0.170 HD
ENDROOT
BRANCH   1   7
HETATM    7  C   UNL     1      44.789 -12.319   8.449  1.00  0.00     0.122 C 
BRANCH   7   8
HETATM    8  C   UNL     1      46.288 -12.397   8.804  1.00  0.00     0.026 C 
HETATM    9  C   UNL     1      47.256 -12.022   7.690  1.00  0.00     0.007 C 
ENDBRANCH   7   8
BRANCH   7  10
HETATM   10  C   UNL     1      43.973 -11.501   9.446  1.00  0.00    -0.002 A 
HETATM   11  C   UNL     1      42.856 -10.715   9.091  1.00  0.00     0.077 A 
HETATM   12  C   UNL     1      42.182  -9.979  10.076  1.00  0.00     0.037 A 
HETATM   13  C   UNL     1      42.589 -10.035  11.409  1.00  0.00     0.003 A 
HETATM   14  C   UNL     1      43.675 -10.822  11.773  1.00  0.00     0.001 A 
HETATM   15  C   UNL     1      44.360 -11.549  10.800  1.00  0.00     0.012 A 
BRANCH  11  16
HETATM   16  O   UNL     1      42.510 -10.685   7.761  1.00  0.00    -0.351 OA
BRANCH  16  17
HETATM   17  C   UNL     1      41.154 -11.008   7.445  1.00  0.00     0.171 C 
HETATM   18  C   UNL     1      41.161 -11.967   6.269  1.00  0.00     0.034 C 
ENDBRANCH  16  17
ENDBRANCH  11  16
ENDBRANCH   7  10
ENDBRANCH   1   7
BRANCH   3  19
HETATM   19  C   UNL     1      43.108 -16.192   5.881  1.00  0.00     0.059 A 
HETATM   20  C   UNL     1      43.909 -17.335   5.702  1.00  0.00    -0.032 A 
HETATM   21  C   UNL     1      45.015 -17.705   6.650  1.00  0.00     0.050 C 
HETATM   22  C   UNL     1      43.648 -18.176   4.609  1.00  0.00     0.028 A 
HETATM   23  C   UNL     1      42.621 -17.851   3.738  1.00  0.00     0.117 A 
HETATM   24  N   UNL     1      41.843 -16.763   3.876  1.00  0.00    -0.271 NA
HETATM   25  C   UNL     1      42.100 -15.963   4.943  1.00  0.00     0.146 A 
ENDBRANCH   3  19
TORSDOF 6
ENDMDL
MODEL 5
REMARK VINA RESULT:      -6.8      1.737      3.261
REMARK  6 active torsions:
REMARK  status: ('A' for Active; 'I' for Inactive)
REMARK    1  A    between atoms: C_2  and  C_3 
REMARK    2  A    between atoms: C_3  and  N_4 
REMARK    3  A    between atoms: C_3  and  C_15 
REMARK       I    between atoms: N_4  and  C_5 
REMARK       I    between atoms: C_5  and  N_6 
REMARK    4  A    between atoms: N_6  and  C_7 
REMARK    5  A    between atoms: C_16  and  O_17 
REMARK    6  A    between atoms: O_17  and  C_18 
ROOT
HETATM    1  N   UNL     1      43.307 -16.517   5.006  1.00  0.00    -0.334 N 
HETATM    2  C   UNL     1      42.352 -15.686   5.539  1.00  0.00     0.321 C 
HETATM    3  N   UNL     1      42.360 -14.468   4.899  1.00  0.00    -0.307 N 
HETATM    4  O   UNL     1      41.580 -16.035   6.421  1.00  0.00    -0.247 OA
HETATM    5  H   UNL     1      44.140 -16.094   4.622  1.00  0.00     0.165 HD
HETATM    6  H   UNL     1      42.845 -14.469   4.015  1.00  0.00     0.170 HD
ENDROOT
BRANCH   1   7
HETATM    7  C   UNL     1      43.453 -17.904   5.415  1.00  0.00     0.122 C 
BRANCH   7   8
HETATM    8  C   UNL     1      44.540 -18.128   6.488  1.00  0.00     0.026 C 
HETATM    9  C   UNL     1      44.038 -18.351   7.907  1.00  0.00     0.007 C 
ENDBRANCH   7   8
BRANCH   7  10
HETATM   10  C   UNL     1      43.595 -18.829   4.210  1.00  0.00    -0.002 A 
HETATM   11  C   UNL     1      42.789 -18.745   3.054  1.00  0.00     0.077 A 
HETATM   12  C   UNL     1      42.979 -19.654   2.005  1.00  0.00     0.037 A 
HETATM   13  C   UNL     1      43.976 -20.627   2.079  1.00  0.00     0.003 A 
HETATM   14  C   UNL     1      44.790 -20.706   3.203  1.00  0.00     0.001 A 
HETATM   15  C   UNL     1      44.601 -19.814   4.258  1.00  0.00     0.012 A 
BRANCH  11  16
HETATM   16  O   UNL     1      41.813 -17.777   3.043  1.00  0.00    -0.351 OA
BRANCH  16  17
HETATM   17  C   UNL     1      41.530 -17.167   1.781  1.00  0.00     0.171 C 
HETATM   18  C   UNL     1      42.596 -16.121   1.515  1.00  0.00     0.034 C 
ENDBRANCH  16  17
ENDBRANCH  11  16
ENDBRANCH   7  10
ENDBRANCH   1   7
BRANCH   3  19
HETATM   19  C   UNL     1      41.560 -13.344   5.205  1.00  0.00     0.059 A 
HETATM   20  C   UNL     1      40.354 -13.143   4.509  1.00  0.00    -0.032 A 
HETATM   21  C   UNL     1      39.850 -14.103   3.468  1.00  0.00     0.050 C 
HETATM   22  C   UNL     1      39.579 -12.014   4.817  1.00  0.00     0.028 A 
HETATM   23  C   UNL     1      40.028 -11.131   5.785  1.00  0.00     0.117 A 
HETATM   24  N   UNL     1      41.179 -11.290   6.462  1.00  0.00    -0.271 NA
HETATM   25  C   UNL     1      41.915 -12.391   6.161  1.00  0.00     0.146 A 
ENDBRANCH   3  19
TORSDOF 6
ENDMDL
MODEL 6
REMARK VINA RESULT:      -6.6      3.841      7.955
REMARK  6 active torsions:
REMARK  status: ('A' for Active; 'I' for Inactive)
REMARK    1  A    between atoms: C_2  and  C_3 
REMARK    2  A    between atoms: C_3  and  N_4 
REMARK    3  A    between atoms: C_3  and  C_15 
REMARK       I    between atoms: N_4  and  C_5 
REMARK       I    between atoms: C_5  and  N_6 
REMARK    4  A    between atoms: N_6  and  C_7 
REMARK    5  A    between atoms: C_16  and  O_17 
REMARK    6  A    between atoms: O_17  and  C_18 
ROOT
HETATM    1  N   UNL     1      40.025 -15.311   0.577  1.00  0.00    -0.334 N 
HETATM    2  C   UNL     1      40.900 -15.522   1.614  1.00  0.00     0.321 C 
HETATM    3  N   UNL     1      41.083 -16.870   1.824  1.00  0.00    -0.307 N 
HETATM    4  O   UNL     1      41.464 -14.614   2.207  1.00  0.00    -0.247 OA
HETATM    5  H   UNL     1      39.308 -16.004   0.415  1.00  0.00     0.165 HD
HETATM    6  H   UNL     1      40.782 -17.453   1.059  1.00  0.00     0.170 HD
ENDROOT
BRANCH   1   7
HETATM    7  C   UNL     1      39.727 -13.985   0.062  1.00  0.00     0.122 C 
BRANCH   7   8
HETATM    8  C   UNL     1      38.254 -13.793  -0.355  1.00  0.00     0.026 C 
HETATM    9  C   UNL     1      37.907 -12.443  -0.967  1.00  0.00     0.007 C 
ENDBRANCH   7   8
BRANCH   7  10
HETATM   10  C   UNL     1      40.720 -13.571  -1.020  1.00  0.00    -0.002 A 
HETATM   11  C   UNL     1      40.853 -14.231  -2.260  1.00  0.00     0.077 A 
HETATM   12  C   UNL     1      41.810 -13.790  -3.185  1.00  0.00     0.037 A 
HETATM   13  C   UNL     1      42.617 -12.688  -2.901  1.00  0.00     0.003 A 
HETATM   14  C   UNL     1      42.481 -12.017  -1.692  1.00  0.00     0.001 A 
HETATM   15  C   UNL     1      41.540 -12.455  -0.760  1.00  0.00     0.012 A 
BRANCH  11  16
HETATM   16  O   UNL     1      40.042 -15.320  -2.478  1.00  0.00    -0.351 OA
BRANCH  16  17
HETATM   17  C   UNL     1      39.517 -15.473  -3.799  1.00  0.00     0.171 C 
HETATM   18  C   UNL     1      38.009 -15.328  -3.725  1.00  0.00     0.034 C 
ENDBRANCH  16  17
ENDBRANCH  11  16
ENDBRANCH   7  10
ENDBRANCH   1   7
BRANCH   3  19
HETATM   19  C   UNL     1      41.866 -17.471   2.835  1.00  0.00     0.059 A 
HETATM   20  C   UNL     1      43.142 -17.972   2.517  1.00  0.00    -0.032 A 
HETATM   21  C   UNL     1      43.734 -17.861   1.140  1.00  0.00     0.050 C 
HETATM   22  C   UNL     1      43.900 -18.578   3.529  1.00  0.00     0.028 A 
HETATM   23  C   UNL     1      43.368 -18.673   4.805  1.00  0.00     0.117 A 
HETATM   24  N   UNL     1      42.150 -18.213   5.141  1.00  0.00    -0.271 NA
HETATM   25  C   UNL     1      41.431 -17.620   4.153  1.00  0.00     0.146 A 
ENDBRANCH   3  19
TORSDOF 6
ENDMDL
MODEL 7
REMARK VINA RESULT:      -6.5      3.929      5.113
REMARK  6 active torsions:
REMARK  status: ('A' for Active; 'I' for Inactive)
REMARK    1  A    between atoms: C_2  and  C_3 
REMARK    2  A    between atoms: C_3  and  N_4 
REMARK    3  A    between atoms: C_3  and  C_15 
REMARK       I    between atoms: N_4  and  C_5 
REMARK       I    between atoms: C_5  and  N_6 
REMARK    4  A    between atoms: N_6  and  C_7 
REMARK    5  A    between atoms: C_16  and  O_17 
REMARK    6  A    between atoms: O_17  and  C_18 
ROOT
HETATM    1  N   UNL     1      43.434 -15.059   5.967  1.00  0.00    -0.334 N 
HETATM    2  C   UNL     1      43.481 -13.836   6.591  1.00  0.00     0.321 C 
HETATM    3  N   UNL     1      44.411 -13.847   7.605  1.00  0.00    -0.307 N 
HETATM    4  O   UNL     1      42.815 -12.876   6.230  1.00  0.00    -0.247 OA
HETATM    5  H   UNL     1      43.651 -15.878   6.517  1.00  0.00     0.165 HD
HETATM    6  H   UNL     1      45.066 -14.612   7.557  1.00  0.00     0.170 HD
ENDROOT
BRANCH   1   7
HETATM    7  C   UNL     1      42.618 -15.305   4.790  1.00  0.00     0.122 C 
BRANCH   7   8
HETATM    8  C   UNL     1      41.110 -15.437   5.092  1.00  0.00     0.026 C 
HETATM    9  C   UNL     1      40.192 -14.514   4.303  1.00  0.00     0.007 C 
ENDBRANCH   7   8
BRANCH   7  10
HETATM   10  C   UNL     1      43.171 -16.460   3.961  1.00  0.00    -0.002 A 
HETATM   11  C   UNL     1      43.546 -17.709   4.501  1.00  0.00     0.077 A 
HETATM   12  C   UNL     1      44.065 -18.704   3.662  1.00  0.00     0.037 A 
HETATM   13  C   UNL     1      44.192 -18.482   2.290  1.00  0.00     0.003 A 
HETATM   14  C   UNL     1      43.806 -17.264   1.743  1.00  0.00     0.001 A 
HETATM   15  C   UNL     1      43.300 -16.263   2.571  1.00  0.00     0.012 A 
BRANCH  11  16
HETATM   16  O   UNL     1      43.413 -17.865   5.861  1.00  0.00    -0.351 OA
BRANCH  16  17
HETATM   17  C   UNL     1      44.550 -18.379   6.560  1.00  0.00     0.171 C 
HETATM   18  C   UNL     1      44.170 -18.541   8.020  1.00  0.00     0.034 C 
ENDBRANCH  16  17
ENDBRANCH  11  16
ENDBRANCH   7  10
ENDBRANCH   1   7
BRANCH   3  19
HETATM   19  C   UNL     1      44.701 -12.793   8.500  1.00  0.00     0.059 A 
HETATM   20  C   UNL     1      45.959 -12.165   8.447  1.00  0.00    -0.032 A 
HETATM   21  C   UNL     1      47.010 -12.543   7.440  1.00  0.00     0.050 C 
HETATM   22  C   UNL     1      46.235 -11.130   9.352  1.00  0.00     0.028 A 
HETATM   23  C   UNL     1      45.268 -10.765  10.275  1.00  0.00     0.117 A 
HETATM   24  N   UNL     1      44.060 -11.349  10.358  1.00  0.00    -0.271 NA
HETATM   25  C   UNL     1      43.802 -12.344   9.470  1.00  0.00     0.146 A 
ENDBRANCH   3  19
TORSDOF 6
ENDMDL
MODEL 8
REMARK VINA RESULT:      -6.5      2.524      7.223
REMARK  6 active torsions:
REMARK  status: ('A' for Active; 'I' for Inactive)
REMARK    1  A    between atoms: C_2  and  C_3 
REMARK    2  A    between atoms: C_3  and  N_4 
REMARK    3  A    between atoms: C_3  and  C_15 
REMARK       I    between atoms: N_4  and  C_5 
REMARK       I    between atoms: C_5  and  N_6 
REMARK    4  A    between atoms: N_6  and  C_7 
REMARK    5  A    between atoms: C_16  and  O_17 
REMARK    6  A    between atoms: O_17  and  C_18 
ROOT
HETATM    1  N   UNL     1      42.950 -17.042   1.513  1.00  0.00    -0.334 N 
HETATM    2  C   UNL     1      42.842 -18.181   2.274  1.00  0.00     0.321 C 
HETATM    3  N   UNL     1      44.018 -18.895   2.244  1.00  0.00    -0.307 N 
HETATM    4  O   UNL     1      41.843 -18.458   2.923  1.00  0.00    -0.247 OA
HETATM    5  H   UNL     1      43.569 -17.065   0.715  1.00  0.00     0.165 HD
HETATM    6  H   UNL     1      44.812 -18.369   1.914  1.00  0.00     0.170 HD
ENDROOT
BRANCH   1   7
HETATM    7  C   UNL     1      41.897 -16.043   1.448  1.00  0.00     0.122 C 
BRANCH   7   8
HETATM    8  C   UNL     1      41.715 -15.417   0.049  1.00  0.00     0.026 C 
HETATM    9  C   UNL     1      41.839 -13.901  -0.023  1.00  0.00     0.007 C 
ENDBRANCH   7   8
BRANCH   7  10
HETATM   10  C   UNL     1      42.043 -15.006   2.558  1.00  0.00    -0.002 A 
HETATM   11  C   UNL     1      40.952 -14.378   3.197  1.00  0.00     0.077 A 
HETATM   12  C   UNL     1      41.186 -13.421   4.194  1.00  0.00     0.037 A 
HETATM   13  C   UNL     1      42.487 -13.100   4.580  1.00  0.00     0.003 A 
HETATM   14  C   UNL     1      43.569 -13.727   3.973  1.00  0.00     0.001 A 
HETATM   15  C   UNL     1      43.348 -14.673   2.972  1.00  0.00     0.012 A 
BRANCH  11  16
HETATM   16  O   UNL     1      39.693 -14.722   2.764  1.00  0.00    -0.351 OA
BRANCH  16  17
HETATM   17  C   UNL     1      38.923 -13.687   2.149  1.00  0.00     0.171 C 
HETATM   18  C   UNL     1      38.075 -14.317   1.059  1.00  0.00     0.034 C 
ENDBRANCH  16  17
ENDBRANCH  11  16
ENDBRANCH   7  10
ENDBRANCH   1   7
BRANCH   3  19
HETATM   19  C   UNL     1      44.268 -20.141   2.860  1.00  0.00     0.059 A 
HETATM   20  C   UNL     1      44.646 -20.181   4.215  1.00  0.00    -0.032 A 
HETATM   21  C   UNL     1      44.757 -18.944   5.060  1.00  0.00     0.050 C 
HETATM   22  C   UNL     1      44.904 -21.427   4.806  1.00  0.00     0.028 A 
HETATM   23  C   UNL     1      44.790 -22.575   4.039  1.00  0.00     0.117 A 
HETATM   24  N   UNL     1      44.440 -22.571   2.740  1.00  0.00    -0.271 NA
HETATM   25  C   UNL     1      44.184 -21.359   2.182  1.00  0.00     0.146 A 
ENDBRANCH   3  19
TORSDOF 6
ENDMDL
MODEL 9
REMARK VINA RESULT:      -6.4      2.681      7.837
REMARK  6 active torsions:
REMARK  status: ('A' for Active; 'I' for Inactive)
REMARK    1  A    between atoms: C_2  and  C_3 
REMARK    2  A    between atoms: C_3  and  N_4 
REMARK    3  A    between atoms: C_3  and  C_15 
REMARK       I    between atoms: N_4  and  C_5 
REMARK       I    between atoms: C_5  and  N_6 
REMARK    4  A    between atoms: N_6  and  C_7 
REMARK    5  A    between atoms: C_16  and  O_17 
REMARK    6  A    between atoms: O_17  and  C_18 
ROOT
HETATM    1  N   UNL     1      41.919 -15.978   2.414  1.00  0.00    -0.334 N 
HETATM    2  C   UNL     1      42.821 -16.977   2.136  1.00  0.00     0.321 C 
HETATM    3  N   UNL     1      42.504 -18.120   2.834  1.00  0.00    -0.307 N 
HETATM    4  O   UNL     1      43.732 -16.849   1.331  1.00  0.00    -0.247 OA
HETATM    5  H   UNL     1      41.485 -15.973   3.326  1.00  0.00     0.165 HD
HETATM    6  H   UNL     1      41.566 -18.133   3.202  1.00  0.00     0.170 HD
ENDROOT
BRANCH   1   7
HETATM    7  C   UNL     1      41.943 -14.692   1.737  1.00  0.00     0.122 C 
BRANCH   7   8
HETATM    8  C   UNL     1      42.382 -13.519   2.639  1.00  0.00     0.026 C 
HETATM    9  C   UNL     1      43.569 -13.791   3.552  1.00  0.00     0.007 C 
ENDBRANCH   7   8
BRANCH   7  10
HETATM   10  C   UNL     1      40.636 -14.427   0.996  1.00  0.00    -0.002 A 
HETATM   11  C   UNL     1      40.557 -14.150  -0.386  1.00  0.00     0.077 A 
HETATM   12  C   UNL     1      39.310 -13.898  -0.975  1.00  0.00     0.037 A 
HETATM   13  C   UNL     1      38.142 -13.943  -0.214  1.00  0.00     0.003 A 
HETATM   14  C   UNL     1      38.205 -14.236   1.143  1.00  0.00     0.001 A 
HETATM   15  C   UNL     1      39.441 -14.477   1.742  1.00  0.00     0.012 A 
BRANCH  11  16
HETATM   16  O   UNL     1      41.741 -14.103  -1.081  1.00  0.00    -0.351 OA
BRANCH  16  17
HETATM   17  C   UNL     1      41.992 -12.917  -1.839  1.00  0.00     0.171 C 
HETATM   18  C   UNL     1      42.503 -11.851  -0.887  1.00  0.00     0.034 C 
ENDBRANCH  16  17
ENDBRANCH  11  16
ENDBRANCH   7  10
ENDBRANCH   1   7
BRANCH   3  19
HETATM   19  C   UNL     1      43.229 -19.332   2.847  1.00  0.00     0.059 A 
HETATM   20  C   UNL     1      44.153 -19.577   3.880  1.00  0.00    -0.032 A 
HETATM   21  C   UNL     1      44.379 -18.610   5.008  1.00  0.00     0.050 C 
HETATM   22  C   UNL     1      44.874 -20.780   3.869  1.00  0.00     0.028 A 
HETATM   23  C   UNL     1      44.662 -21.684   2.840  1.00  0.00     0.117 A 
HETATM   24  N   UNL     1      43.794 -21.478   1.835  1.00  0.00    -0.271 NA
HETATM   25  C   UNL     1      43.096 -20.313   1.862  1.00  0.00     0.146 A 
ENDBRANCH   3  19
TORSDOF 6
ENDMDL
MODEL 10
REMARK VINA RESULT:      -6.4      3.580      8.065
REMARK  6 active torsions:
REMARK  status: ('A' for Active; 'I' for Inactive)
REMARK    1  A    between atoms: C_2  and  C_3 
REMARK    2  A    between atoms: C_3  and  N_4 
REMARK    3  A    between atoms: C_3  and  C_15 
REMARK       I    between atoms: N_4  and  C_5 
REMARK       I    between atoms: C_5  and  N_6 
REMARK    4  A    between atoms: N_6  and  C_7 
REMARK    5  A    between atoms: C_16  and  O_17 
REMARK    6  A    between atoms: O_17  and  C_18 
ROOT
HETATM    1  N   UNL     1      41.959 -15.784  -0.561  1.00  0.00    -0.334 N 
HETATM    2  C   UNL     1      41.925 -16.714   0.450  1.00  0.00     0.321 C 
HETATM    3  N   UNL     1      43.154 -16.804   1.063  1.00  0.00    -0.307 N 
HETATM    4  O   UNL     1      40.910 -17.316   0.769  1.00  0.00    -0.247 OA
HETATM    5  H   UNL     1      42.836 -15.641  -1.042  1.00  0.00     0.165 HD
HETATM    6  H   UNL     1      43.769 -16.029   0.872  1.00  0.00     0.170 HD
ENDROOT
BRANCH   1   7
HETATM    7  C   UNL     1      40.775 -15.402  -1.312  1.00  0.00     0.122 C 
BRANCH   7   8
HETATM    8  C   UNL     1      40.958 -15.466  -2.843  1.00  0.00     0.026 C 
HETATM    9  C   UNL     1      39.678 -15.457  -3.667  1.00  0.00     0.007 C 
ENDBRANCH   7   8
BRANCH   7  10
HETATM   10  C   UNL     1      40.214 -14.068  -0.827  1.00  0.00    -0.002 A 
HETATM   11  C   UNL     1      40.974 -12.883  -0.730  1.00  0.00     0.077 A 
HETATM   12  C   UNL     1      40.375 -11.709  -0.252  1.00  0.00     0.037 A 
HETATM   13  C   UNL     1      39.027 -11.694   0.106  1.00  0.00     0.003 A 
HETATM   14  C   UNL     1      38.263 -12.849  -0.005  1.00  0.00     0.001 A 
HETATM   15  C   UNL     1      38.851 -14.026  -0.468  1.00  0.00     0.012 A 
BRANCH  11  16
HETATM   16  O   UNL     1      42.300 -12.962  -1.081  1.00  0.00    -0.351 OA
BRANCH  16  17
HETATM   17  C   UNL     1      42.821 -11.884  -1.863  1.00  0.00     0.171 C 
HETATM   18  C   UNL     1      42.476 -12.149  -3.317  1.00  0.00     0.034 C 
ENDBRANCH  16  17
ENDBRANCH  11  16
ENDBRANCH   7  10
ENDBRANCH   1   7
BRANCH   3  19
HETATM   19  C   UNL     1      43.517 -17.686   2.105  1.00  0.00     0.059 A 
HETATM   20  C   UNL     1      43.543 -17.218   3.432  1.00  0.00    -0.032 A 
HETATM   21  C   UNL     1      43.157 -15.814   3.802  1.00  0.00     0.050 C 
HETATM   22  C   UNL     1      43.920 -18.105   4.452  1.00  0.00     0.028 A 
HETATM   23  C   UNL     1      44.263 -19.405   4.122  1.00  0.00     0.117 A 
HETATM   24  N   UNL     1      44.258 -19.882   2.865  1.00  0.00    -0.271 NA
HETATM   25  C   UNL     1      43.882 -19.016   1.888  1.00  0.00     0.146 A 
ENDBRANCH   3  19
TORSDOF 6
ENDMDL
