MODEL 1
REMARK VINA RESULT:      -8.4      0.000      0.000
REMARK  4 active torsions:
REMARK  status: ('A' for Active; 'I' for Inactive)
REMARK    1  A    between atoms: C_2  and  N_3 
REMARK    2  A    between atoms: N_7  and  C_8 
REMARK    3  A    between atoms: C_11  and  N_12 
REMARK    4  A    between atoms: C_13  and  C_14 
ROOT
HETATM    1  C   UNL     1      39.853 -14.392   0.057  1.00  0.00     0.030 A 
HETATM    2  C   UNL     1      41.010 -15.052  -0.378  1.00  0.00     0.031 A 
HETATM    3  C   UNL     1      41.643 -16.020   0.415  1.00  0.00     0.034 A 
HETATM    4  C   UNL     1      41.139 -16.370   1.666  1.00  0.00     0.056 A 
HETATM    5  C   UNL     1      39.979 -15.736   2.107  1.00  0.00     0.034 A 
HETATM    6  C   UNL     1      39.357 -14.756   1.319  1.00  0.00     0.031 A 
ENDROOT
BRANCH   4   7
HETATM    7  N   UNL     1      41.763 -17.413   2.361  1.00  0.00    -0.260 NA
HETATM    8  C   UNL     1      42.986 -17.268   2.751  1.00  0.00     0.131 C 
BRANCH   8   9
HETATM    9  C   UNL     1      43.620 -18.331   3.505  1.00  0.00     0.009 A 
HETATM   10  C   UNL     1      43.825 -19.688   3.095  1.00  0.00     0.004 A 
HETATM   11  C   UNL     1      44.490 -20.342   4.134  1.00  0.00     0.043 A 
HETATM   12  C   UNL     1      43.521 -20.425   1.929  1.00  0.00     0.014 A 
HETATM   13  C   UNL     1      44.863 -21.691   4.069  1.00  0.00     0.030 A 
HETATM   14  N   UNL     1      44.677 -19.423   5.139  1.00  0.00    -0.364 N 
HETATM   15  C   UNL     1      44.551 -22.394   2.903  1.00  0.00     0.002 A 
HETATM   16  C   UNL     1      43.890 -21.773   1.847  1.00  0.00     0.001 A 
HETATM   17  H   UNL     1      45.137 -19.619   6.018  1.00  0.00     0.165 HD
HETATM   18  C   UNL     1      44.162 -18.211   4.772  1.00  0.00     0.102 A 
ENDBRANCH   8   9
ENDBRANCH   4   7
BRANCH   1  19
HETATM   19  N   UNL     1      39.168 -13.461  -0.716  1.00  0.00    -0.378 N 
HETATM   20  C   UNL     1      38.549 -13.847  -1.993  1.00  0.00     0.150 C 
HETATM   21  C   UNL     1      39.426 -13.438  -3.193  1.00  0.00     0.254 C 
HETATM   22  N   UNL     1      39.770 -11.945  -3.122  1.00  0.00    -0.068 N 
HETATM   23  H   UNL     1      38.881 -11.428  -3.119  1.00  0.00     0.280 HD
HETATM   24  C   UNL     1      40.459 -11.630  -1.784  1.00  0.00     0.254 C 
HETATM   25  C   UNL     1      39.560 -12.045  -0.599  1.00  0.00     0.150 C 
BRANCH  22  26
HETATM   26  C   UNL     1      40.591 -11.460  -4.291  1.00  0.00     0.230 C 
HETATM   27  C   UNL     1      42.074 -11.599  -4.003  1.00  0.00     0.034 C 
ENDBRANCH  22  26
ENDBRANCH   1  19
TORSDOF 4
ENDMDL
MODEL 2
REMARK VINA RESULT:      -8.2      1.323      2.094
REMARK  4 active torsions:
REMARK  status: ('A' for Active; 'I' for Inactive)
REMARK    1  A    between atoms: C_2  and  N_3 
REMARK    2  A    between atoms: N_7  and  C_8 
REMARK    3  A    between atoms: C_11  and  N_12 
REMARK    4  A    between atoms: C_13  and  C_14 
ROOT
HETATM    1  C   UNL     1      40.577 -14.614  -0.231  1.00  0.00     0.030 A 
HETATM    2  C   UNL     1      41.675 -15.448  -0.473  1.00  0.00     0.031 A 
HETATM    3  C   UNL     1      42.172 -16.311   0.516  1.00  0.00     0.034 A 
HETATM    4  C   UNL     1      41.583 -16.377   1.777  1.00  0.00     0.056 A 
HETATM    5  C   UNL     1      40.478 -15.566   2.029  1.00  0.00     0.034 A 
HETATM    6  C   UNL     1      39.993 -14.693   1.044  1.00  0.00     0.031 A 
ENDROOT
BRANCH   4   7
HETATM    7  N   UNL     1      42.066 -17.330   2.682  1.00  0.00    -0.260 NA
HETATM    8  C   UNL     1      43.334 -17.577   2.721  1.00  0.00     0.131 C 
BRANCH   8   9
HETATM    9  C   UNL     1      43.840 -18.534   3.684  1.00  0.00     0.009 A 
HETATM   10  C   UNL     1      44.094 -19.929   3.477  1.00  0.00     0.004 A 
HETATM   11  C   UNL     1      44.591 -20.445   4.676  1.00  0.00     0.043 A 
HETATM   12  C   UNL     1      43.961 -20.804   2.377  1.00  0.00     0.014 A 
HETATM   13  C   UNL     1      44.959 -21.787   4.831  1.00  0.00     0.030 A 
HETATM   14  N   UNL     1      44.632 -19.409   5.578  1.00  0.00    -0.364 N 
HETATM   15  C   UNL     1      44.819 -22.630   3.725  1.00  0.00     0.002 A 
HETATM   16  C   UNL     1      44.327 -22.148   2.515  1.00  0.00     0.001 A 
HETATM   17  H   UNL     1      44.955 -19.493   6.533  1.00  0.00     0.165 HD
HETATM   18  C   UNL     1      44.187 -18.256   4.993  1.00  0.00     0.102 A 
ENDBRANCH   8   9
ENDBRANCH   4   7
BRANCH   1  19
HETATM   19  N   UNL     1      40.024 -13.779  -1.197  1.00  0.00    -0.378 N 
HETATM   20  C   UNL     1      38.660 -13.252  -1.050  1.00  0.00     0.150 C 
HETATM   21  C   UNL     1      37.651 -14.053  -1.898  1.00  0.00     0.254 C 
HETATM   22  N   UNL     1      38.112 -14.120  -3.359  1.00  0.00    -0.068 N 
HETATM   23  H   UNL     1      38.195 -13.153  -3.697  1.00  0.00     0.280 HD
HETATM   24  C   UNL     1      39.522 -14.728  -3.434  1.00  0.00     0.254 C 
HETATM   25  C   UNL     1      40.514 -13.908  -2.581  1.00  0.00     0.150 C 
BRANCH  22  26
HETATM   26  C   UNL     1      37.149 -14.852  -4.261  1.00  0.00     0.230 C 
HETATM   27  C   UNL     1      35.986 -13.958  -4.646  1.00  0.00     0.034 C 
ENDBRANCH  22  26
ENDBRANCH   1  19
TORSDOF 4
ENDMDL
MODEL 3
REMARK VINA RESULT:      -7.7      5.511      6.870
REMARK  4 active torsions:
REMARK  status: ('A' for Active; 'I' for Inactive)
REMARK    1  A    between atoms: C_2  and  N_3 
REMARK    2  A    between atoms: N_7  and  C_8 
REMARK    3  A    between atoms: C_11  and  N_12 
REMARK    4  A    between atoms: C_13  and  C_14 
ROOT
HETATM    1  C   UNL     1      41.133 -13.240   5.871  1.00  0.00     0.030 A 
HETATM    2  C   UNL     1      40.273 -14.345   5.816  1.00  0.00     0.031 A 
HETATM    3  C   UNL     1      40.767 -15.650   5.670  1.00  0.00     0.034 A 
HETATM    4  C   UNL     1      42.135 -15.899   5.584  1.00  0.00     0.056 A 
HETATM    5  C   UNL     1      43.005 -14.812   5.656  1.00  0.00     0.034 A 
HETATM    6  C   UNL     1      42.509 -13.507   5.785  1.00  0.00     0.031 A 
ENDROOT
BRANCH   4   7
HETATM    7  N   UNL     1      42.562 -17.231   5.540  1.00  0.00    -0.260 NA
HETATM    8  C   UNL     1      43.512 -17.563   4.729  1.00  0.00     0.131 C 
BRANCH   8   9
HETATM    9  C   UNL     1      43.982 -18.933   4.710  1.00  0.00     0.009 A 
HETATM   10  C   UNL     1      43.958 -19.848   3.608  1.00  0.00     0.004 A 
HETATM   11  C   UNL     1      44.531 -21.044   4.047  1.00  0.00     0.043 A 
HETATM   12  C   UNL     1      43.516 -19.772   2.270  1.00  0.00     0.014 A 
HETATM   13  C   UNL     1      44.682 -22.164   3.219  1.00  0.00     0.030 A 
HETATM   14  N   UNL     1      44.883 -20.867   5.364  1.00  0.00    -0.364 N 
HETATM   15  C   UNL     1      44.237 -22.059   1.900  1.00  0.00     0.002 A 
HETATM   16  C   UNL     1      43.662 -20.881   1.429  1.00  0.00     0.001 A 
HETATM   17  H   UNL     1      45.325 -21.572   5.940  1.00  0.00     0.165 HD
HETATM   18  C   UNL     1      44.562 -19.602   5.772  1.00  0.00     0.102 A 
ENDBRANCH   8   9
ENDBRANCH   4   7
BRANCH   1  19
HETATM   19  N   UNL     1      40.689 -11.936   6.062  1.00  0.00    -0.378 N 
HETATM   20  C   UNL     1      41.638 -10.845   6.327  1.00  0.00     0.150 C 
HETATM   21  C   UNL     1      41.699 -10.501   7.829  1.00  0.00     0.254 C 
HETATM   22  N   UNL     1      40.293 -10.216   8.371  1.00  0.00    -0.068 N 
HETATM   23  H   UNL     1      39.910  -9.432   7.826  1.00  0.00     0.280 HD
HETATM   24  C   UNL     1      39.375 -11.419   8.102  1.00  0.00     0.254 C 
HETATM   25  C   UNL     1      39.328 -11.741   6.593  1.00  0.00     0.150 C 
BRANCH  22  26
HETATM   26  C   UNL     1      40.278  -9.826   9.829  1.00  0.00     0.230 C 
HETATM   27  C   UNL     1      41.217 -10.706  10.632  1.00  0.00     0.034 C 
ENDBRANCH  22  26
ENDBRANCH   1  19
TORSDOF 4
ENDMDL
MODEL 4
REMARK VINA RESULT:      -7.7      1.432      2.747
REMARK  4 active torsions:
REMARK  status: ('A' for Active; 'I' for Inactive)
REMARK    1  A    between atoms: C_2  and  N_3 
REMARK    2  A    between atoms: N_7  and  C_8 
REMARK    3  A    between atoms: C_11  and  N_12 
REMARK    4  A    between atoms: C_13  and  C_14 
ROOT
HETATM    1  C   UNL     1      39.940 -14.409   0.193  1.00  0.00     0.030 A 
HETATM    2  C   UNL     1      39.466 -14.873   1.427  1.00  0.00     0.031 A 
HETATM    3  C   UNL     1      40.079 -15.947   2.090  1.00  0.00     0.034 A 
HETATM    4  C   UNL     1      41.192 -16.587   1.550  1.00  0.00     0.056 A 
HETATM    5  C   UNL     1      41.688 -16.125   0.331  1.00  0.00     0.034 A 
HETATM    6  C   UNL     1      41.063 -15.063  -0.338  1.00  0.00     0.031 A 
ENDROOT
BRANCH   4   7
HETATM    7  N   UNL     1      41.815 -17.584   2.310  1.00  0.00    -0.260 NA
HETATM    8  C   UNL     1      43.046 -17.428   2.669  1.00  0.00     0.131 C 
BRANCH   8   9
HETATM    9  C   UNL     1      43.680 -18.441   3.489  1.00  0.00     0.009 A 
HETATM   10  C   UNL     1      43.909 -19.815   3.156  1.00  0.00     0.004 A 
HETATM   11  C   UNL     1      44.563 -20.403   4.241  1.00  0.00     0.043 A 
HETATM   12  C   UNL     1      43.635 -20.617   2.027  1.00  0.00     0.014 A 
HETATM   13  C   UNL     1      44.954 -21.748   4.255  1.00  0.00     0.030 A 
HETATM   14  N   UNL     1      44.720 -19.429   5.198  1.00  0.00    -0.364 N 
HETATM   15  C   UNL     1      44.673 -22.517   3.123  1.00  0.00     0.002 A 
HETATM   16  C   UNL     1      44.023 -21.962   2.024  1.00  0.00     0.001 A 
HETATM   17  H   UNL     1      45.167 -19.572   6.094  1.00  0.00     0.165 HD
HETATM   18  C   UNL     1      44.197 -18.246   4.757  1.00  0.00     0.102 A 
ENDBRANCH   8   9
ENDBRANCH   4   7
BRANCH   1  19
HETATM   19  N   UNL     1      39.391 -13.319  -0.475  1.00  0.00    -0.378 N 
HETATM   20  C   UNL     1      40.201 -12.131  -0.778  1.00  0.00     0.150 C 
HETATM   21  C   UNL     1      39.939 -10.995   0.232  1.00  0.00     0.254 C 
HETATM   22  N   UNL     1      38.438 -10.690   0.316  1.00  0.00    -0.068 N 
HETATM   23  H   UNL     1      38.127 -10.427  -0.628  1.00  0.00     0.280 HD
HETATM   24  C   UNL     1      37.665 -11.966   0.687  1.00  0.00     0.254 C 
HETATM   25  C   UNL     1      37.942 -13.087  -0.339  1.00  0.00     0.150 C 
BRANCH  22  26
HETATM   26  C   UNL     1      38.106  -9.555   1.254  1.00  0.00     0.230 C 
HETATM   27  C   UNL     1      37.389 -10.067   2.488  1.00  0.00     0.034 C 
ENDBRANCH  22  26
ENDBRANCH   1  19
TORSDOF 4
ENDMDL
MODEL 5
REMARK VINA RESULT:      -7.5      1.171      1.694
REMARK  4 active torsions:
REMARK  status: ('A' for Active; 'I' for Inactive)
REMARK    1  A    between atoms: C_2  and  N_3 
REMARK    2  A    between atoms: N_7  and  C_8 
REMARK    3  A    between atoms: C_11  and  N_12 
REMARK    4  A    between atoms: C_13  and  C_14 
ROOT
HETATM    1  C   UNL     1      40.014 -13.686   0.916  1.00  0.00     0.030 A 
HETATM    2  C   UNL     1      39.274 -14.727   1.489  1.00  0.00     0.031 A 
HETATM    3  C   UNL     1      39.901 -15.848   2.054  1.00  0.00     0.034 A 
HETATM    4  C   UNL     1      41.289 -15.963   2.075  1.00  0.00     0.056 A 
HETATM    5  C   UNL     1      42.042 -14.927   1.525  1.00  0.00     0.034 A 
HETATM    6  C   UNL     1      41.413 -13.816   0.946  1.00  0.00     0.031 A 
ENDROOT
BRANCH   4   7
HETATM    7  N   UNL     1      41.851 -17.058   2.743  1.00  0.00    -0.260 NA
HETATM    8  C   UNL     1      43.136 -17.133   2.863  1.00  0.00     0.131 C 
BRANCH   8   9
HETATM    9  C   UNL     1      43.717 -18.245   3.587  1.00  0.00     0.009 A 
HETATM   10  C   UNL     1      43.869 -19.596   3.135  1.00  0.00     0.004 A 
HETATM   11  C   UNL     1      44.495 -20.310   4.160  1.00  0.00     0.043 A 
HETATM   12  C   UNL     1      43.545 -20.282   1.945  1.00  0.00     0.014 A 
HETATM   13  C   UNL     1      44.812 -21.670   4.054  1.00  0.00     0.030 A 
HETATM   14  N   UNL     1      44.710 -19.432   5.195  1.00  0.00    -0.364 N 
HETATM   15  C   UNL     1      44.482 -22.322   2.864  1.00  0.00     0.002 A 
HETATM   16  C   UNL     1      43.858 -21.640   1.823  1.00  0.00     0.001 A 
HETATM   17  H   UNL     1      45.153 -19.674   6.071  1.00  0.00     0.165 HD
HETATM   18  C   UNL     1      44.250 -18.188   4.862  1.00  0.00     0.102 A 
ENDBRANCH   8   9
ENDBRANCH   4   7
BRANCH   1  19
HETATM   19  N   UNL     1      39.435 -12.538   0.388  1.00  0.00    -0.378 N 
HETATM   20  C   UNL     1      38.006 -12.500   0.046  1.00  0.00     0.150 C 
HETATM   21  C   UNL     1      37.781 -12.693  -1.468  1.00  0.00     0.254 C 
HETATM   22  N   UNL     1      38.614 -11.683  -2.266  1.00  0.00    -0.068 N 
HETATM   23  H   UNL     1      38.324 -10.743  -1.965  1.00  0.00     0.280 HD
HETATM   24  C   UNL     1      40.099 -11.818  -1.893  1.00  0.00     0.254 C 
HETATM   25  C   UNL     1      40.298 -11.618  -0.375  1.00  0.00     0.150 C 
BRANCH  22  26
HETATM   26  C   UNL     1      38.411 -11.781  -3.759  1.00  0.00     0.230 C 
HETATM   27  C   UNL     1      37.235 -10.930  -4.199  1.00  0.00     0.034 C 
ENDBRANCH  22  26
ENDBRANCH   1  19
TORSDOF 4
ENDMDL
MODEL 6
REMARK VINA RESULT:      -7.5      1.414      1.633
REMARK  4 active torsions:
REMARK  status: ('A' for Active; 'I' for Inactive)
REMARK    1  A    between atoms: C_2  and  N_3 
REMARK    2  A    between atoms: N_7  and  C_8 
REMARK    3  A    between atoms: C_11  and  N_12 
REMARK    4  A    between atoms: C_13  and  C_14 
ROOT
HETATM    1  C   UNL     1      40.504 -14.004   1.150  1.00  0.00     0.030 A 
HETATM    2  C   UNL     1      40.870 -15.170   0.465  1.00  0.00     0.031 A 
HETATM    3  C   UNL     1      41.448 -16.260   1.132  1.00  0.00     0.034 A 
HETATM    4  C   UNL     1      41.672 -16.229   2.506  1.00  0.00     0.056 A 
HETATM    5  C   UNL     1      41.296 -15.083   3.207  1.00  0.00     0.034 A 
HETATM    6  C   UNL     1      40.734 -13.988   2.535  1.00  0.00     0.031 A 
ENDROOT
BRANCH   4   7
HETATM    7  N   UNL     1      42.159 -17.387   3.123  1.00  0.00    -0.260 NA
HETATM    8  C   UNL     1      43.413 -17.463   3.424  1.00  0.00     0.131 C 
BRANCH   8   9
HETATM    9  C   UNL     1      43.911 -18.645   4.098  1.00  0.00     0.009 A 
HETATM   10  C   UNL     1      44.100 -19.951   3.541  1.00  0.00     0.004 A 
HETATM   11  C   UNL     1      44.615 -20.765   4.552  1.00  0.00     0.043 A 
HETATM   12  C   UNL     1      43.895 -20.521   2.265  1.00  0.00     0.014 A 
HETATM   13  C   UNL     1      44.933 -22.115   4.354  1.00  0.00     0.030 A 
HETATM   14  N   UNL     1      44.729 -19.988   5.680  1.00  0.00    -0.364 N 
HETATM   15  C   UNL     1      44.722 -22.651   3.082  1.00  0.00     0.002 A 
HETATM   16  C   UNL     1      44.210 -21.867   2.051  1.00  0.00     0.001 A 
HETATM   17  H   UNL     1      45.080 -20.317   6.570  1.00  0.00     0.165 HD
HETATM   18  C   UNL     1      44.313 -18.712   5.419  1.00  0.00     0.102 A 
ENDBRANCH   8   9
ENDBRANCH   4   7
BRANCH   1  19
HETATM   19  N   UNL     1      39.886 -12.920   0.536  1.00  0.00    -0.378 N 
HETATM   20  C   UNL     1      39.706 -12.877  -0.922  1.00  0.00     0.150 C 
HETATM   21  C   UNL     1      40.777 -11.998  -1.599  1.00  0.00     0.254 C 
HETATM   22  N   UNL     1      40.808 -10.604  -0.960  1.00  0.00    -0.068 N 
HETATM   23  H   UNL     1      39.870 -10.198  -1.070  1.00  0.00     0.280 HD
HETATM   24  C   UNL     1      41.051 -10.729   0.553  1.00  0.00     0.254 C 
HETATM   25  C   UNL     1      39.966 -11.610   1.207  1.00  0.00     0.150 C 
BRANCH  22  26
HETATM   26  C   UNL     1      41.804  -9.670  -1.603  1.00  0.00     0.230 C 
HETATM   27  C   UNL     1      43.185 -10.295  -1.638  1.00  0.00     0.034 C 
ENDBRANCH  22  26
ENDBRANCH   1  19
TORSDOF 4
ENDMDL
MODEL 7
REMARK VINA RESULT:      -7.4      5.711      7.650
REMARK  4 active torsions:
REMARK  status: ('A' for Active; 'I' for Inactive)
REMARK    1  A    between atoms: C_2  and  N_3 
REMARK    2  A    between atoms: N_7  and  C_8 
REMARK    3  A    between atoms: C_11  and  N_12 
REMARK    4  A    between atoms: C_13  and  C_14 
ROOT
HETATM    1  C   UNL     1      41.094 -12.383   6.450  1.00  0.00     0.030 A 
HETATM    2  C   UNL     1      42.391 -12.832   6.169  1.00  0.00     0.031 A 
HETATM    3  C   UNL     1      42.618 -14.047   5.505  1.00  0.00     0.034 A 
HETATM    4  C   UNL     1      41.559 -14.850   5.089  1.00  0.00     0.056 A 
HETATM    5  C   UNL     1      40.261 -14.409   5.344  1.00  0.00     0.034 A 
HETATM    6  C   UNL     1      40.037 -13.203   6.023  1.00  0.00     0.031 A 
ENDROOT
BRANCH   4   7
HETATM    7  N   UNL     1      41.853 -15.999   4.345  1.00  0.00    -0.260 NA
HETATM    8  C   UNL     1      43.011 -16.106   3.781  1.00  0.00     0.131 C 
BRANCH   8   9
HETATM    9  C   UNL     1      43.333 -17.311   3.043  1.00  0.00     0.009 A 
HETATM   10  C   UNL     1      43.818 -18.552   3.570  1.00  0.00     0.004 A 
HETATM   11  C   UNL     1      43.968 -19.430   2.494  1.00  0.00     0.043 A 
HETATM   12  C   UNL     1      44.134 -19.020   4.864  1.00  0.00     0.014 A 
HETATM   13  C   UNL     1      44.417 -20.748   2.646  1.00  0.00     0.030 A 
HETATM   14  N   UNL     1      43.595 -18.751   1.359  1.00  0.00    -0.364 N 
HETATM   15  C   UNL     1      44.719 -21.185   3.938  1.00  0.00     0.002 A 
HETATM   16  C   UNL     1      44.581 -20.336   5.032  1.00  0.00     0.001 A 
HETATM   17  H   UNL     1      43.600 -19.144   0.427  1.00  0.00     0.165 HD
HETATM   18  C   UNL     1      43.209 -17.478   1.677  1.00  0.00     0.102 A 
ENDBRANCH   8   9
ENDBRANCH   4   7
BRANCH   1  19
HETATM   19  N   UNL     1      40.824 -11.165   7.063  1.00  0.00    -0.378 N 
HETATM   20  C   UNL     1      41.894 -10.385   7.701  1.00  0.00     0.150 C 
HETATM   21  C   UNL     1      41.897 -10.574   9.232  1.00  0.00     0.254 C 
HETATM   22  N   UNL     1      40.510 -10.272   9.811  1.00  0.00    -0.068 N 
HETATM   23  H   UNL     1      40.279  -9.302   9.558  1.00  0.00     0.280 HD
HETATM   24  C   UNL     1      39.455 -11.160   9.133  1.00  0.00     0.254 C 
HETATM   25  C   UNL     1      39.469 -10.950   7.603  1.00  0.00     0.150 C 
BRANCH  22  26
HETATM   26  C   UNL     1      40.446 -10.392  11.314  1.00  0.00     0.230 C 
HETATM   27  C   UNL     1      41.840 -10.421  11.912  1.00  0.00     0.034 C 
ENDBRANCH  22  26
ENDBRANCH   1  19
TORSDOF 4
ENDMDL
MODEL 8
REMARK VINA RESULT:      -7.3      6.493      9.739
REMARK  4 active torsions:
REMARK  status: ('A' for Active; 'I' for Inactive)
REMARK    1  A    between atoms: C_2  and  N_3 
REMARK    2  A    between atoms: N_7  and  C_8 
REMARK    3  A    between atoms: C_11  and  N_12 
REMARK    4  A    between atoms: C_13  and  C_14 
ROOT
HETATM    1  C   UNL     1      43.241 -15.966   4.569  1.00  0.00     0.030 A 
HETATM    2  C   UNL     1      43.615 -16.532   5.795  1.00  0.00     0.031 A 
HETATM    3  C   UNL     1      44.096 -15.742   6.850  1.00  0.00     0.034 A 
HETATM    4  C   UNL     1      44.211 -14.360   6.721  1.00  0.00     0.056 A 
HETATM    5  C   UNL     1      43.826 -13.778   5.514  1.00  0.00     0.034 A 
HETATM    6  C   UNL     1      43.362 -14.571   4.455  1.00  0.00     0.031 A 
ENDROOT
BRANCH   4   7
HETATM    7  N   UNL     1      44.602 -13.622   7.845  1.00  0.00    -0.260 NA
HETATM    8  C   UNL     1      43.965 -12.538   8.142  1.00  0.00     0.131 C 
BRANCH   8   9
HETATM    9  C   UNL     1      44.344 -11.794   9.327  1.00  0.00     0.009 A 
HETATM   10  C   UNL     1      43.474 -11.157  10.270  1.00  0.00     0.004 A 
HETATM   11  C   UNL     1      44.279 -10.581  11.256  1.00  0.00     0.043 A 
HETATM   12  C   UNL     1      42.074 -11.024  10.391  1.00  0.00     0.014 A 
HETATM   13  C   UNL     1      43.757  -9.880  12.350  1.00  0.00     0.030 A 
HETATM   14  N   UNL     1      45.585 -10.850  10.922  1.00  0.00    -0.364 N 
HETATM   15  C   UNL     1      42.368  -9.766  12.445  1.00  0.00     0.002 A 
HETATM   16  C   UNL     1      41.536 -10.329  11.480  1.00  0.00     0.001 A 
HETATM   17  H   UNL     1      46.388 -10.555  11.462  1.00  0.00     0.165 HD
HETATM   18  C   UNL     1      45.636 -11.582   9.768  1.00  0.00     0.102 A 
ENDBRANCH   8   9
ENDBRANCH   4   7
BRANCH   1  19
HETATM   19  N   UNL     1      42.716 -16.706   3.515  1.00  0.00    -0.378 N 
HETATM   20  C   UNL     1      42.001 -17.967   3.758  1.00  0.00     0.150 C 
HETATM   21  C   UNL     1      42.903 -19.189   3.495  1.00  0.00     0.254 C 
HETATM   22  N   UNL     1      43.516 -19.111   2.092  1.00  0.00    -0.068 N 
HETATM   23  H   UNL     1      42.738 -19.073   1.421  1.00  0.00     0.280 HD
HETATM   24  C   UNL     1      44.290 -17.792   1.933  1.00  0.00     0.254 C 
HETATM   25  C   UNL     1      43.365 -16.584   2.197  1.00  0.00     0.150 C 
BRANCH  22  26
HETATM   26  C   UNL     1      44.379 -20.300   1.745  1.00  0.00     0.230 C 
HETATM   27  C   UNL     1      43.585 -21.588   1.844  1.00  0.00     0.034 C 
ENDBRANCH  22  26
ENDBRANCH   1  19
TORSDOF 4
ENDMDL
MODEL 9
REMARK VINA RESULT:      -7.0      6.265      8.721
REMARK  4 active torsions:
REMARK  status: ('A' for Active; 'I' for Inactive)
REMARK    1  A    between atoms: C_2  and  N_3 
REMARK    2  A    between atoms: N_7  and  C_8 
REMARK    3  A    between atoms: C_11  and  N_12 
REMARK    4  A    between atoms: C_13  and  C_14 
ROOT
HETATM    1  C   UNL     1      43.043 -16.118   4.313  1.00  0.00     0.030 A 
HETATM    2  C   UNL     1      43.332 -16.743   5.533  1.00  0.00     0.031 A 
HETATM    3  C   UNL     1      43.826 -16.018   6.628  1.00  0.00     0.034 A 
HETATM    4  C   UNL     1      44.039 -14.644   6.547  1.00  0.00     0.056 A 
HETATM    5  C   UNL     1      43.739 -14.003   5.345  1.00  0.00     0.034 A 
HETATM    6  C   UNL     1      43.262 -14.732   4.247  1.00  0.00     0.031 A 
ENDROOT
BRANCH   4   7
HETATM    7  N   UNL     1      44.438 -13.968   7.705  1.00  0.00    -0.260 NA
HETATM    8  C   UNL     1      44.058 -12.746   7.886  1.00  0.00     0.131 C 
BRANCH   8   9
HETATM    9  C   UNL     1      44.437 -12.057   9.103  1.00  0.00     0.009 A 
HETATM   10  C   UNL     1      43.614 -11.216   9.921  1.00  0.00     0.004 A 
HETATM   11  C   UNL     1      44.396 -10.788  10.997  1.00  0.00     0.043 A 
HETATM   12  C   UNL     1      42.271 -10.784   9.858  1.00  0.00     0.014 A 
HETATM   13  C   UNL     1      43.905  -9.953  12.008  1.00  0.00     0.030 A 
HETATM   14  N   UNL     1      45.644 -11.341  10.838  1.00  0.00    -0.364 N 
HETATM   15  C   UNL     1      42.572  -9.544  11.921  1.00  0.00     0.002 A 
HETATM   16  C   UNL     1      41.765  -9.952  10.862  1.00  0.00     0.001 A 
HETATM   17  H   UNL     1      46.418 -11.203  11.474  1.00  0.00     0.165 HD
HETATM   18  C   UNL     1      45.680 -12.108   9.706  1.00  0.00     0.102 A 
ENDBRANCH   8   9
ENDBRANCH   4   7
BRANCH   1  19
HETATM   19  N   UNL     1      42.508 -16.790   3.219  1.00  0.00    -0.378 N 
HETATM   20  C   UNL     1      43.162 -16.735   1.904  1.00  0.00     0.150 C 
HETATM   21  C   UNL     1      42.472 -15.719   0.971  1.00  0.00     0.254 C 
HETATM   22  N   UNL     1      40.969 -16.012   0.880  1.00  0.00    -0.068 N 
HETATM   23  H   UNL     1      40.867 -16.972   0.525  1.00  0.00     0.280 HD
HETATM   24  C   UNL     1      40.348 -16.002   2.286  1.00  0.00     0.254 C 
HETATM   25  C   UNL     1      41.054 -17.028   3.199  1.00  0.00     0.150 C 
BRANCH  22  26
HETATM   26  C   UNL     1      40.231 -15.084  -0.054  1.00  0.00     0.230 C 
HETATM   27  C   UNL     1      41.004 -14.891  -1.345  1.00  0.00     0.034 C 
ENDBRANCH  22  26
ENDBRANCH   1  19
TORSDOF 4
ENDMDL
MODEL 10
REMARK VINA RESULT:      -6.9      1.258      2.285
REMARK  4 active torsions:
REMARK  status: ('A' for Active; 'I' for Inactive)
REMARK    1  A    between atoms: C_2  and  N_3 
REMARK    2  A    between atoms: N_7  and  C_8 
REMARK    3  A    between atoms: C_11  and  N_12 
REMARK    4  A    between atoms: C_13  and  C_14 
ROOT
HETATM    1  C   UNL     1      39.677 -14.219   0.337  1.00  0.00     0.030 A 
HETATM    2  C   UNL     1      39.282 -14.872   1.512  1.00  0.00     0.031 A 
HETATM    3  C   UNL     1      39.916 -16.047   1.945  1.00  0.00     0.034 A 
HETATM    4  C   UNL     1      40.970 -16.605   1.227  1.00  0.00     0.056 A 
HETATM    5  C   UNL     1      41.388 -15.958   0.065  1.00  0.00     0.034 A 
HETATM    6  C   UNL     1      40.743 -14.793  -0.376  1.00  0.00     0.031 A 
ENDROOT
BRANCH   4   7
HETATM    7  N   UNL     1      41.621 -17.720   1.768  1.00  0.00    -0.260 NA
HETATM    8  C   UNL     1      42.870 -17.629   2.086  1.00  0.00     0.131 C 
BRANCH   8   9
HETATM    9  C   UNL     1      43.535 -18.770   2.683  1.00  0.00     0.009 A 
HETATM   10  C   UNL     1      43.596 -19.114   4.072  1.00  0.00     0.004 A 
HETATM   11  C   UNL     1      44.325 -20.302   4.176  1.00  0.00     0.043 A 
HETATM   12  C   UNL     1      43.090 -18.537   5.257  1.00  0.00     0.014 A 
HETATM   13  C   UNL     1      44.573 -20.937   5.398  1.00  0.00     0.030 A 
HETATM   14  N   UNL     1      44.697 -20.662   2.902  1.00  0.00    -0.364 N 
HETATM   15  C   UNL     1      44.058 -20.345   6.553  1.00  0.00     0.002 A 
HETATM   16  C   UNL     1      43.327 -19.161   6.487  1.00  0.00     0.001 A 
HETATM   17  H   UNL     1      45.235 -21.487   2.674  1.00  0.00     0.165 HD
HETATM   18  C   UNL     1      44.225 -19.752   1.997  1.00  0.00     0.102 A 
ENDBRANCH   8   9
ENDBRANCH   4   7
BRANCH   1  19
HETATM   19  N   UNL     1      39.109 -13.029  -0.103  1.00  0.00    -0.378 N 
HETATM   20  C   UNL     1      37.897 -13.031  -0.935  1.00  0.00     0.150 C 
HETATM   21  C   UNL     1      38.233 -12.828  -2.426  1.00  0.00     0.254 C 
HETATM   22  N   UNL     1      39.085 -11.567  -2.615  1.00  0.00    -0.068 N 
HETATM   23  H   UNL     1      38.544 -10.775  -2.245  1.00  0.00     0.280 HD
HETATM   24  C   UNL     1      40.357 -11.662  -1.756  1.00  0.00     0.254 C 
HETATM   25  C   UNL     1      39.994 -11.862  -0.269  1.00  0.00     0.150 C 
BRANCH  22  26
HETATM   26  C   UNL     1      39.417 -11.276  -4.059  1.00  0.00     0.230 C 
HETATM   27  C   UNL     1      38.355 -10.395  -4.689  1.00  0.00     0.034 C 
ENDBRANCH  22  26
ENDBRANCH   1  19
TORSDOF 4
ENDMDL
