MODEL 1
REMARK VINA RESULT:      -7.4      0.000      0.000
REMARK  4 active torsions:
REMARK  status: ('A' for Active; 'I' for Inactive)
REMARK    1  A    between atoms: O_2  and  C_3 
REMARK    2  A    between atoms: C_5  and  O_6 
REMARK    3  A    between atoms: C_8  and  N_9 
REMARK    4  A    between atoms: N_9  and  C_10 
ROOT
HETATM    1  C   UNL     1      42.084 -15.243   0.469  1.00  0.00     0.153 A 
HETATM    2  S   UNL     1      41.995 -14.245   1.846  1.00  0.00    -0.011 SA
HETATM    3  C   UNL     1      42.567 -15.286   3.114  1.00  0.00     0.228 A 
HETATM    4  O   UNL     1      42.597 -14.878   4.267  1.00  0.00    -0.279 OA
HETATM    5  C   UNL     1      43.023 -16.650   2.806  1.00  0.00     0.048 A 
HETATM    6  C   UNL     1      42.997 -17.155   1.505  1.00  0.00     0.048 A 
HETATM    7  C   UNL     1      43.503 -17.444   3.864  1.00  0.00     0.018 A 
HETATM    8  C   UNL     1      43.955 -18.741   3.630  1.00  0.00     0.001 A 
HETATM    9  C   UNL     1      43.933 -19.253   2.338  1.00  0.00     0.002 A 
HETATM   10  C   UNL     1      43.458 -18.465   1.286  1.00  0.00     0.030 A 
HETATM   11  N   UNL     1      42.551 -16.467   0.425  1.00  0.00    -0.336 N 
HETATM   12  H   UNL     1      42.610 -16.876  -0.498  1.00  0.00     0.168 HD
ENDROOT
BRANCH   1  13
HETATM   13  N   UNL     1      41.664 -14.646  -0.739  1.00  0.00    -0.334 N 
HETATM   14  H   UNL     1      42.285 -13.900  -1.053  1.00  0.00     0.168 HD
BRANCH  13  15
HETATM   15  C   UNL     1      40.609 -14.865  -1.643  1.00  0.00     0.068 A 
HETATM   16  C   UNL     1      39.404 -14.147  -1.463  1.00  0.00     0.097 A 
HETATM   17  C   UNL     1      38.355 -14.278  -2.383  1.00  0.00     0.075 A 
HETATM   18  C   UNL     1      38.492 -15.126  -3.483  1.00  0.00     0.070 A 
HETATM   19  C   UNL     1      39.674 -15.848  -3.650  1.00  0.00     0.039 A 
HETATM   20  C   UNL     1      40.727 -15.720  -2.741  1.00  0.00     0.035 A 
BRANCH  16  21
HETATM   21  O   UNL     1      39.380 -13.343  -0.346  1.00  0.00    -0.354 OA
HETATM   22  C   UNL     1      38.383 -13.614   0.633  1.00  0.00     0.210 C 
ENDBRANCH  16  21
BRANCH  18  23
HETATM   23  O   UNL     1      37.555 -15.343  -4.455  1.00  0.00    -0.356 OA
HETATM   24  C   UNL     1      36.471 -14.426  -4.532  1.00  0.00     0.210 C 
ENDBRANCH  18  23
ENDBRANCH  13  15
ENDBRANCH   1  13
TORSDOF 4
ENDMDL
MODEL 2
REMARK VINA RESULT:      -7.4      3.318      4.628
REMARK  4 active torsions:
REMARK  status: ('A' for Active; 'I' for Inactive)
REMARK    1  A    between atoms: O_2  and  C_3 
REMARK    2  A    between atoms: C_5  and  O_6 
REMARK    3  A    between atoms: C_8  and  N_9 
REMARK    4  A    between atoms: N_9  and  C_10 
ROOT
HETATM    1  C   UNL     1      43.490 -17.645   3.050  1.00  0.00     0.153 A 
HETATM    2  S   UNL     1      43.853 -17.384   4.693  1.00  0.00    -0.011 SA
HETATM    3  C   UNL     1      44.301 -18.970   5.244  1.00  0.00     0.228 A 
HETATM    4  O   UNL     1      44.594 -19.144   6.420  1.00  0.00    -0.279 OA
HETATM    5  C   UNL     1      44.340 -20.100   4.304  1.00  0.00     0.048 A 
HETATM    6  C   UNL     1      44.006 -19.945   2.958  1.00  0.00     0.048 A 
HETATM    7  C   UNL     1      44.737 -21.358   4.794  1.00  0.00     0.018 A 
HETATM    8  C   UNL     1      44.799 -22.462   3.947  1.00  0.00     0.001 A 
HETATM    9  C   UNL     1      44.468 -22.318   2.606  1.00  0.00     0.002 A 
HETATM   10  C   UNL     1      44.075 -21.069   2.117  1.00  0.00     0.030 A 
HETATM   11  N   UNL     1      43.611 -18.775   2.396  1.00  0.00    -0.336 N 
HETATM   12  H   UNL     1      43.435 -18.722   1.402  1.00  0.00     0.168 HD
ENDROOT
BRANCH   1  13
HETATM   13  N   UNL     1      43.079 -16.502   2.332  1.00  0.00    -0.334 N 
HETATM   14  H   UNL     1      43.798 -16.145   1.703  1.00  0.00     0.168 HD
BRANCH  13  15
HETATM   15  C   UNL     1      41.890 -15.755   2.245  1.00  0.00     0.068 A 
HETATM   16  C   UNL     1      41.963 -14.349   2.380  1.00  0.00     0.097 A 
HETATM   17  C   UNL     1      40.815 -13.560   2.225  1.00  0.00     0.075 A 
HETATM   18  C   UNL     1      39.588 -14.161   1.942  1.00  0.00     0.070 A 
HETATM   19  C   UNL     1      39.513 -15.550   1.827  1.00  0.00     0.039 A 
HETATM   20  C   UNL     1      40.652 -16.343   1.975  1.00  0.00     0.035 A 
BRANCH  16  21
HETATM   21  O   UNL     1      43.221 -13.866   2.658  1.00  0.00    -0.354 OA
HETATM   22  C   UNL     1      43.551 -13.654   4.027  1.00  0.00     0.210 C 
ENDBRANCH  16  21
BRANCH  18  23
HETATM   23  O   UNL     1      38.396 -13.515   1.763  1.00  0.00    -0.356 OA
HETATM   24  C   UNL     1      37.512 -14.039   0.779  1.00  0.00     0.210 C 
ENDBRANCH  18  23
ENDBRANCH  13  15
ENDBRANCH   1  13
TORSDOF 4
ENDMDL
MODEL 3
REMARK VINA RESULT:      -7.3      5.882      7.250
REMARK  4 active torsions:
REMARK  status: ('A' for Active; 'I' for Inactive)
REMARK    1  A    between atoms: O_2  and  C_3 
REMARK    2  A    between atoms: C_5  and  O_6 
REMARK    3  A    between atoms: C_8  and  N_9 
REMARK    4  A    between atoms: N_9  and  C_10 
ROOT
HETATM    1  C   UNL     1      43.715 -17.600   4.838  1.00  0.00     0.153 A 
HETATM    2  S   UNL     1      43.445 -17.270   3.190  1.00  0.00    -0.011 SA
HETATM    3  C   UNL     1      43.782 -18.797   2.432  1.00  0.00     0.228 A 
HETATM    4  O   UNL     1      43.714 -18.897   1.213  1.00  0.00    -0.279 OA
HETATM    5  C   UNL     1      44.137 -19.969   3.246  1.00  0.00     0.048 A 
HETATM    6  C   UNL     1      44.233 -19.893   4.637  1.00  0.00     0.048 A 
HETATM    7  C   UNL     1      44.373 -21.189   2.586  1.00  0.00     0.018 A 
HETATM    8  C   UNL     1      44.706 -22.333   3.307  1.00  0.00     0.001 A 
HETATM    9  C   UNL     1      44.804 -22.268   4.692  1.00  0.00     0.002 A 
HETATM   10  C   UNL     1      44.569 -21.057   5.349  1.00  0.00     0.030 A 
HETATM   11  N   UNL     1      44.026 -18.763   5.358  1.00  0.00    -0.336 N 
HETATM   12  H   UNL     1      44.060 -18.791   6.368  1.00  0.00     0.168 HD
ENDROOT
BRANCH   1  13
HETATM   13  N   UNL     1      43.518 -16.511   5.714  1.00  0.00    -0.334 N 
HETATM   14  H   UNL     1      44.226 -16.454   6.446  1.00  0.00     0.168 HD
BRANCH  13  15
HETATM   15  C   UNL     1      42.595 -15.452   5.793  1.00  0.00     0.068 A 
HETATM   16  C   UNL     1      43.089 -14.129   5.873  1.00  0.00     0.097 A 
HETATM   17  C   UNL     1      42.207 -13.041   5.878  1.00  0.00     0.075 A 
HETATM   18  C   UNL     1      40.830 -13.258   5.809  1.00  0.00     0.070 A 
HETATM   19  C   UNL     1      40.342 -14.564   5.749  1.00  0.00     0.039 A 
HETATM   20  C   UNL     1      41.215 -15.654   5.739  1.00  0.00     0.035 A 
BRANCH  16  21
HETATM   21  O   UNL     1      44.461 -14.034   5.936  1.00  0.00    -0.354 OA
HETATM   22  C   UNL     1      45.039 -13.759   7.207  1.00  0.00     0.210 C 
ENDBRANCH  16  21
BRANCH  18  23
HETATM   23  O   UNL     1      39.861 -12.293   5.801  1.00  0.00    -0.356 OA
HETATM   24  C   UNL     1      39.856 -11.364   6.879  1.00  0.00     0.210 C 
ENDBRANCH  18  23
ENDBRANCH  13  15
ENDBRANCH   1  13
TORSDOF 4
ENDMDL
MODEL 4
REMARK VINA RESULT:      -7.3      2.603      7.386
REMARK  4 active torsions:
REMARK  status: ('A' for Active; 'I' for Inactive)
REMARK    1  A    between atoms: O_2  and  C_3 
REMARK    2  A    between atoms: C_5  and  O_6 
REMARK    3  A    between atoms: C_8  and  N_9 
REMARK    4  A    between atoms: N_9  and  C_10 
ROOT
HETATM    1  C   UNL     1      41.568 -16.234   1.035  1.00  0.00     0.153 A 
HETATM    2  S   UNL     1      42.003 -14.780   1.808  1.00  0.00    -0.011 SA
HETATM    3  C   UNL     1      41.949 -13.625   0.512  1.00  0.00     0.228 A 
HETATM    4  O   UNL     1      42.251 -12.458   0.726  1.00  0.00    -0.279 OA
HETATM    5  C   UNL     1      41.534 -14.039  -0.837  1.00  0.00     0.048 A 
HETATM    6  C   UNL     1      41.190 -15.361  -1.124  1.00  0.00     0.048 A 
HETATM    7  C   UNL     1      41.480 -13.059  -1.845  1.00  0.00     0.018 A 
HETATM    8  C   UNL     1      41.086 -13.393  -3.139  1.00  0.00     0.001 A 
HETATM    9  C   UNL     1      40.743 -14.706  -3.435  1.00  0.00     0.002 A 
HETATM   10  C   UNL     1      40.794 -15.680  -2.434  1.00  0.00     0.030 A 
HETATM   11  N   UNL     1      41.214 -16.372  -0.220  1.00  0.00    -0.336 N 
HETATM   12  H   UNL     1      40.901 -17.297  -0.483  1.00  0.00     0.168 HD
ENDROOT
BRANCH   1  13
HETATM   13  N   UNL     1      41.534 -17.374   1.865  1.00  0.00    -0.334 N 
HETATM   14  H   UNL     1      40.599 -17.769   1.964  1.00  0.00     0.168 HD
BRANCH  13  15
HETATM   15  C   UNL     1      42.497 -18.128   2.562  1.00  0.00     0.068 A 
HETATM   16  C   UNL     1      42.474 -18.114   3.975  1.00  0.00     0.097 A 
HETATM   17  C   UNL     1      43.366 -18.909   4.708  1.00  0.00     0.075 A 
HETATM   18  C   UNL     1      44.289 -19.717   4.043  1.00  0.00     0.070 A 
HETATM   19  C   UNL     1      44.323 -19.717   2.648  1.00  0.00     0.039 A 
HETATM   20  C   UNL     1      43.435 -18.932   1.910  1.00  0.00     0.035 A 
BRANCH  16  21
HETATM   21  O   UNL     1      41.524 -17.282   4.523  1.00  0.00    -0.354 OA
HETATM   22  C   UNL     1      41.509 -17.152   5.941  1.00  0.00     0.210 C 
ENDBRANCH  16  21
BRANCH  18  23
HETATM   23  O   UNL     1      45.209 -20.541   4.630  1.00  0.00    -0.356 OA
HETATM   24  C   UNL     1      44.823 -21.891   4.858  1.00  0.00     0.210 C 
ENDBRANCH  18  23
ENDBRANCH  13  15
ENDBRANCH   1  13
TORSDOF 4
ENDMDL
MODEL 5
REMARK VINA RESULT:      -7.2      2.691      3.569
REMARK  4 active torsions:
REMARK  status: ('A' for Active; 'I' for Inactive)
REMARK    1  A    between atoms: O_2  and  C_3 
REMARK    2  A    between atoms: C_5  and  O_6 
REMARK    3  A    between atoms: C_8  and  N_9 
REMARK    4  A    between atoms: N_9  and  C_10 
ROOT
HETATM    1  C   UNL     1      42.764 -17.277   1.970  1.00  0.00     0.153 A 
HETATM    2  S   UNL     1      43.256 -16.604   3.455  1.00  0.00    -0.011 SA
HETATM    3  C   UNL     1      43.941 -17.967   4.286  1.00  0.00     0.228 A 
HETATM    4  O   UNL     1      44.368 -17.831   5.426  1.00  0.00    -0.279 OA
HETATM    5  C   UNL     1      44.019 -19.279   3.625  1.00  0.00     0.048 A 
HETATM    6  C   UNL     1      43.536 -19.477   2.331  1.00  0.00     0.048 A 
HETATM    7  C   UNL     1      44.608 -20.344   4.331  1.00  0.00     0.018 A 
HETATM    8  C   UNL     1      44.716 -21.606   3.752  1.00  0.00     0.001 A 
HETATM    9  C   UNL     1      44.238 -21.813   2.464  1.00  0.00     0.002 A 
HETATM   10  C   UNL     1      43.654 -20.756   1.761  1.00  0.00     0.030 A 
HETATM   11  N   UNL     1      42.952 -18.514   1.575  1.00  0.00    -0.336 N 
HETATM   12  H   UNL     1      42.672 -18.713   0.625  1.00  0.00     0.168 HD
ENDROOT
BRANCH   1  13
HETATM   13  N   UNL     1      42.151 -16.378   1.071  1.00  0.00    -0.334 N 
HETATM   14  H   UNL     1      42.688 -16.241   0.215  1.00  0.00     0.168 HD
BRANCH  13  15
HETATM   15  C   UNL     1      40.946 -15.651   1.056  1.00  0.00     0.068 A 
HETATM   16  C   UNL     1      40.741 -14.704   0.027  1.00  0.00     0.097 A 
HETATM   17  C   UNL     1      39.525 -14.013  -0.070  1.00  0.00     0.075 A 
HETATM   18  C   UNL     1      38.510 -14.253   0.857  1.00  0.00     0.070 A 
HETATM   19  C   UNL     1      38.720 -15.175   1.884  1.00  0.00     0.039 A 
HETATM   20  C   UNL     1      39.926 -15.871   1.984  1.00  0.00     0.035 A 
BRANCH  16  21
HETATM   21  O   UNL     1      41.808 -14.549  -0.829  1.00  0.00    -0.354 OA
HETATM   22  C   UNL     1      41.976 -13.274  -1.438  1.00  0.00     0.210 C 
ENDBRANCH  16  21
BRANCH  18  23
HETATM   23  O   UNL     1      37.279 -13.656   0.877  1.00  0.00    -0.356 OA
HETATM   24  C   UNL     1      37.230 -12.255   0.636  1.00  0.00     0.210 C 
ENDBRANCH  18  23
ENDBRANCH  13  15
ENDBRANCH   1  13
TORSDOF 4
ENDMDL
MODEL 6
REMARK VINA RESULT:      -7.2      2.224      3.106
REMARK  4 active torsions:
REMARK  status: ('A' for Active; 'I' for Inactive)
REMARK    1  A    between atoms: O_2  and  C_3 
REMARK    2  A    between atoms: C_5  and  O_6 
REMARK    3  A    between atoms: C_8  and  N_9 
REMARK    4  A    between atoms: N_9  and  C_10 
ROOT
HETATM    1  C   UNL     1      41.136 -16.315   0.921  1.00  0.00     0.153 A 
HETATM    2  S   UNL     1      40.449 -15.715   2.359  1.00  0.00    -0.011 SA
HETATM    3  C   UNL     1      41.232 -16.665   3.585  1.00  0.00     0.228 A 
HETATM    4  O   UNL     1      40.931 -16.506   4.761  1.00  0.00    -0.279 OA
HETATM    5  C   UNL     1      42.260 -17.651   3.218  1.00  0.00     0.048 A 
HETATM    6  C   UNL     1      42.625 -17.868   1.888  1.00  0.00     0.048 A 
HETATM    7  C   UNL     1      42.884 -18.375   4.250  1.00  0.00     0.018 A 
HETATM    8  C   UNL     1      43.870 -19.317   3.962  1.00  0.00     0.001 A 
HETATM    9  C   UNL     1      44.240 -19.540   2.641  1.00  0.00     0.002 A 
HETATM   10  C   UNL     1      43.622 -18.821   1.615  1.00  0.00     0.030 A 
HETATM   11  N   UNL     1      42.079 -17.222   0.828  1.00  0.00    -0.336 N 
HETATM   12  H   UNL     1      42.428 -17.390  -0.105  1.00  0.00     0.168 HD
ENDROOT
BRANCH   1  13
HETATM   13  N   UNL     1      40.670 -15.716  -0.268  1.00  0.00    -0.334 N 
HETATM   14  H   UNL     1      39.725 -16.008  -0.519  1.00  0.00     0.168 HD
BRANCH  13  15
HETATM   15  C   UNL     1      41.184 -14.771  -1.175  1.00  0.00     0.068 A 
HETATM   16  C   UNL     1      40.983 -14.982  -2.558  1.00  0.00     0.097 A 
HETATM   17  C   UNL     1      41.412 -14.030  -3.492  1.00  0.00     0.075 A 
HETATM   18  C   UNL     1      42.048 -12.865  -3.060  1.00  0.00     0.070 A 
HETATM   19  C   UNL     1      42.262 -12.665  -1.696  1.00  0.00     0.039 A 
HETATM   20  C   UNL     1      41.834 -13.607  -0.758  1.00  0.00     0.035 A 
BRANCH  16  21
HETATM   21  O   UNL     1      40.347 -16.163  -2.869  1.00  0.00    -0.354 OA
HETATM   22  C   UNL     1      39.328 -16.114  -3.863  1.00  0.00     0.210 C 
ENDBRANCH  16  21
BRANCH  18  23
HETATM   23  O   UNL     1      42.511 -11.856  -3.858  1.00  0.00    -0.356 OA
HETATM   24  C   UNL     1      41.834 -10.606  -3.788  1.00  0.00     0.210 C 
ENDBRANCH  18  23
ENDBRANCH  13  15
ENDBRANCH   1  13
TORSDOF 4
ENDMDL
MODEL 7
REMARK VINA RESULT:      -7.2      2.654      3.627
REMARK  4 active torsions:
REMARK  status: ('A' for Active; 'I' for Inactive)
REMARK    1  A    between atoms: O_2  and  C_3 
REMARK    2  A    between atoms: C_5  and  O_6 
REMARK    3  A    between atoms: C_8  and  N_9 
REMARK    4  A    between atoms: N_9  and  C_10 
ROOT
HETATM    1  C   UNL     1      42.241 -17.433   2.814  1.00  0.00     0.153 A 
HETATM    2  S   UNL     1      43.053 -16.929   4.223  1.00  0.00    -0.011 SA
HETATM    3  C   UNL     1      44.046 -18.302   4.607  1.00  0.00     0.228 A 
HETATM    4  O   UNL     1      44.748 -18.282   5.610  1.00  0.00    -0.279 OA
HETATM    5  C   UNL     1      44.053 -19.483   3.730  1.00  0.00     0.048 A 
HETATM    6  C   UNL     1      43.261 -19.548   2.583  1.00  0.00     0.048 A 
HETATM    7  C   UNL     1      44.896 -20.557   4.070  1.00  0.00     0.018 A 
HETATM    8  C   UNL     1      44.949 -21.697   3.272  1.00  0.00     0.001 A 
HETATM    9  C   UNL     1      44.163 -21.772   2.128  1.00  0.00     0.002 A 
HETATM   10  C   UNL     1      43.328 -20.705   1.788  1.00  0.00     0.030 A 
HETATM   11  N   UNL     1      42.419 -18.565   2.176  1.00  0.00    -0.336 N 
HETATM   12  H   UNL     1      41.913 -18.657   1.306  1.00  0.00     0.168 HD
ENDROOT
BRANCH   1  13
HETATM   13  N   UNL     1      41.339 -16.496   2.267  1.00  0.00    -0.334 N 
HETATM   14  H   UNL     1      40.496 -16.379   2.829  1.00  0.00     0.168 HD
BRANCH  13  15
HETATM   15  C   UNL     1      41.344 -15.647   1.145  1.00  0.00     0.068 A 
HETATM   16  C   UNL     1      41.516 -14.258   1.349  1.00  0.00     0.097 A 
HETATM   17  C   UNL     1      41.602 -13.385   0.256  1.00  0.00     0.075 A 
HETATM   18  C   UNL     1      41.513 -13.884  -1.044  1.00  0.00     0.070 A 
HETATM   19  C   UNL     1      41.324 -15.252  -1.245  1.00  0.00     0.039 A 
HETATM   20  C   UNL     1      41.242 -16.129  -0.161  1.00  0.00     0.035 A 
BRANCH  16  21
HETATM   21  O   UNL     1      41.592 -13.880   2.670  1.00  0.00    -0.354 OA
HETATM   22  C   UNL     1      42.807 -13.282   3.110  1.00  0.00     0.210 C 
ENDBRANCH  16  21
BRANCH  18  23
HETATM   23  O   UNL     1      41.586 -13.150  -2.196  1.00  0.00    -0.356 OA
HETATM   24  C   UNL     1      41.293 -13.820  -3.416  1.00  0.00     0.210 C 
ENDBRANCH  18  23
ENDBRANCH  13  15
ENDBRANCH   1  13
TORSDOF 4
ENDMDL
MODEL 8
REMARK VINA RESULT:      -7.1      4.031      5.964
REMARK  4 active torsions:
REMARK  status: ('A' for Active; 'I' for Inactive)
REMARK    1  A    between atoms: O_2  and  C_3 
REMARK    2  A    between atoms: C_5  and  O_6 
REMARK    3  A    between atoms: C_8  and  N_9 
REMARK    4  A    between atoms: N_9  and  C_10 
ROOT
HETATM    1  C   UNL     1      41.400 -17.011   5.148  1.00  0.00     0.153 A 
HETATM    2  S   UNL     1      42.277 -17.215   6.593  1.00  0.00    -0.011 SA
HETATM    3  C   UNL     1      43.490 -18.376   6.146  1.00  0.00     0.228 A 
HETATM    4  O   UNL     1      44.285 -18.778   6.986  1.00  0.00    -0.279 OA
HETATM    5  C   UNL     1      43.572 -18.870   4.763  1.00  0.00     0.048 A 
HETATM    6  C   UNL     1      42.680 -18.443   3.778  1.00  0.00     0.048 A 
HETATM    7  C   UNL     1      44.590 -19.788   4.446  1.00  0.00     0.018 A 
HETATM    8  C   UNL     1      44.720 -20.284   3.150  1.00  0.00     0.001 A 
HETATM    9  C   UNL     1      43.836 -19.865   2.163  1.00  0.00     0.002 A 
HETATM   10  C   UNL     1      42.826 -18.952   2.476  1.00  0.00     0.030 A 
HETATM   11  N   UNL     1      41.668 -17.565   3.990  1.00  0.00    -0.336 N 
HETATM   12  H   UNL     1      41.091 -17.258   3.219  1.00  0.00     0.168 HD
ENDROOT
BRANCH   1  13
HETATM   13  N   UNL     1      40.321 -16.104   5.218  1.00  0.00    -0.334 N 
HETATM   14  H   UNL     1      39.470 -16.524   5.592  1.00  0.00     0.168 HD
BRANCH  13  15
HETATM   15  C   UNL     1      40.149 -14.737   4.932  1.00  0.00     0.068 A 
HETATM   16  C   UNL     1      39.897 -14.352   3.595  1.00  0.00     0.097 A 
HETATM   17  C   UNL     1      39.645 -13.011   3.278  1.00  0.00     0.075 A 
HETATM   18  C   UNL     1      39.647 -12.043   4.283  1.00  0.00     0.070 A 
HETATM   19  C   UNL     1      39.913 -12.420   5.600  1.00  0.00     0.039 A 
HETATM   20  C   UNL     1      40.160 -13.755   5.926  1.00  0.00     0.035 A 
BRANCH  16  21
HETATM   21  O   UNL     1      39.920 -15.388   2.689  1.00  0.00    -0.354 OA
HETATM   22  C   UNL     1      40.586 -15.159   1.452  1.00  0.00     0.210 C 
ENDBRANCH  16  21
BRANCH  18  23
HETATM   23  O   UNL     1      39.413 -10.706   4.115  1.00  0.00    -0.356 OA
HETATM   24  C   UNL     1      39.388  -9.897   5.285  1.00  0.00     0.210 C 
ENDBRANCH  18  23
ENDBRANCH  13  15
ENDBRANCH   1  13
TORSDOF 4
ENDMDL
MODEL 9
REMARK VINA RESULT:      -7.0      4.333      5.840
REMARK  4 active torsions:
REMARK  status: ('A' for Active; 'I' for Inactive)
REMARK    1  A    between atoms: O_2  and  C_3 
REMARK    2  A    between atoms: C_5  and  O_6 
REMARK    3  A    between atoms: C_8  and  N_9 
REMARK    4  A    between atoms: N_9  and  C_10 
ROOT
HETATM    1  C   UNL     1      43.685 -17.612   3.572  1.00  0.00     0.153 A 
HETATM    2  S   UNL     1      43.870 -17.545   5.263  1.00  0.00    -0.011 SA
HETATM    3  C   UNL     1      44.198 -19.200   5.680  1.00  0.00     0.228 A 
HETATM    4  O   UNL     1      44.350 -19.511   6.854  1.00  0.00    -0.279 OA
HETATM    5  C   UNL     1      44.303 -20.224   4.629  1.00  0.00     0.048 A 
HETATM    6  C   UNL     1      44.127 -19.910   3.281  1.00  0.00     0.048 A 
HETATM    7  C   UNL     1      44.597 -21.544   5.017  1.00  0.00     0.018 A 
HETATM    8  C   UNL     1      44.716 -22.553   4.064  1.00  0.00     0.001 A 
HETATM    9  C   UNL     1      44.542 -22.252   2.719  1.00  0.00     0.002 A 
HETATM   10  C   UNL     1      44.252 -20.940   2.332  1.00  0.00     0.030 A 
HETATM   11  N   UNL     1      43.839 -18.670   2.813  1.00  0.00    -0.336 N 
HETATM   12  H   UNL     1      43.778 -18.503   1.818  1.00  0.00     0.168 HD
ENDROOT
BRANCH   1  13
HETATM   13  N   UNL     1      43.398 -16.380   2.946  1.00  0.00    -0.334 N 
HETATM   14  H   UNL     1      43.795 -16.306   2.009  1.00  0.00     0.168 HD
BRANCH  13  15
HETATM   15  C   UNL     1      42.652 -15.237   3.291  1.00  0.00     0.068 A 
HETATM   16  C   UNL     1      41.256 -15.370   3.469  1.00  0.00     0.097 A 
HETATM   17  C   UNL     1      40.486 -14.276   3.886  1.00  0.00     0.075 A 
HETATM   18  C   UNL     1      41.096 -13.043   4.123  1.00  0.00     0.070 A 
HETATM   19  C   UNL     1      42.472 -12.908   3.929  1.00  0.00     0.039 A 
HETATM   20  C   UNL     1      43.246 -13.994   3.519  1.00  0.00     0.035 A 
BRANCH  16  21
HETATM   21  O   UNL     1      40.763 -16.628   3.208  1.00  0.00    -0.354 OA
HETATM   22  C   UNL     1      40.108 -16.827   1.960  1.00  0.00     0.210 C 
ENDBRANCH  16  21
BRANCH  18  23
HETATM   23  O   UNL     1      40.470 -11.899   4.536  1.00  0.00    -0.356 OA
HETATM   24  C   UNL     1      39.108 -12.009   4.932  1.00  0.00     0.210 C 
ENDBRANCH  18  23
ENDBRANCH  13  15
ENDBRANCH   1  13
TORSDOF 4
ENDMDL
MODEL 10
REMARK VINA RESULT:      -7.0      3.492      4.290
REMARK  4 active torsions:
REMARK  status: ('A' for Active; 'I' for Inactive)
REMARK    1  A    between atoms: O_2  and  C_3 
REMARK    2  A    between atoms: C_5  and  O_6 
REMARK    3  A    between atoms: C_8  and  N_9 
REMARK    4  A    between atoms: N_9  and  C_10 
ROOT
HETATM    1  C   UNL     1      40.405 -16.598   2.167  1.00  0.00     0.153 A 
HETATM    2  S   UNL     1      41.379 -16.743   0.777  1.00  0.00    -0.011 SA
HETATM    3  C   UNL     1      42.805 -17.527   1.387  1.00  0.00     0.228 A 
HETATM    4  O   UNL     1      43.743 -17.753   0.633  1.00  0.00    -0.279 OA
HETATM    5  C   UNL     1      42.885 -17.929   2.799  1.00  0.00     0.048 A 
HETATM    6  C   UNL     1      41.841 -17.682   3.692  1.00  0.00     0.048 A 
HETATM    7  C   UNL     1      44.050 -18.587   3.237  1.00  0.00     0.018 A 
HETATM    8  C   UNL     1      44.179 -18.997   4.562  1.00  0.00     0.001 A 
HETATM    9  C   UNL     1      43.145 -18.755   5.458  1.00  0.00     0.002 A 
HETATM   10  C   UNL     1      41.987 -18.104   5.025  1.00  0.00     0.030 A 
HETATM   11  N   UNL     1      40.685 -17.055   3.364  1.00  0.00    -0.336 N 
HETATM   12  H   UNL     1      39.948 -16.956   4.048  1.00  0.00     0.168 HD
ENDROOT
BRANCH   1  13
HETATM   13  N   UNL     1      39.155 -15.976   1.967  1.00  0.00    -0.334 N 
HETATM   14  H   UNL     1      38.380 -16.638   1.929  1.00  0.00     0.168 HD
BRANCH  13  15
HETATM   15  C   UNL     1      38.713 -14.645   1.849  1.00  0.00     0.068 A 
HETATM   16  C   UNL     1      39.281 -13.666   2.697  1.00  0.00     0.097 A 
HETATM   17  C   UNL     1      38.926 -12.317   2.563  1.00  0.00     0.075 A 
HETATM   18  C   UNL     1      38.001 -11.932   1.592  1.00  0.00     0.070 A 
HETATM   19  C   UNL     1      37.427 -12.901   0.767  1.00  0.00     0.039 A 
HETATM   20  C   UNL     1      37.779 -14.246   0.891  1.00  0.00     0.035 A 
BRANCH  16  21
HETATM   21  O   UNL     1      40.180 -14.159   3.616  1.00  0.00    -0.354 OA
HETATM   22  C   UNL     1      39.851 -14.013   4.994  1.00  0.00     0.210 C 
ENDBRANCH  16  21
BRANCH  18  23
HETATM   23  O   UNL     1      37.569 -10.657   1.349  1.00  0.00    -0.356 OA
HETATM   24  C   UNL     1      36.280 -10.505   0.769  1.00  0.00     0.210 C 
ENDBRANCH  18  23
ENDBRANCH  13  15
ENDBRANCH   1  13
TORSDOF 4
ENDMDL
