MODEL 1
REMARK VINA RESULT:      -8.9      0.000      0.000
REMARK  6 active torsions:
REMARK  status: ('A' for Active; 'I' for Inactive)
REMARK    1  A    between atoms: O_2  and  C_3 
REMARK    2  A    between atoms: C_6  and  C_7 
REMARK    3  A    between atoms: C_7  and  N_8 
REMARK       I    between atoms: N_8  and  C_9 
REMARK    4  A    between atoms: C_9  and  C_10 
REMARK    5  A    between atoms: C_10  and  O_11 
REMARK    6  A    between atoms: N_12  and  C_13 
ROOT
HETATM    1  C   UNL     1      41.181 -14.794   2.116  1.00  0.00     0.256 C 
HETATM    2  N   UNL     1      41.173 -13.866   0.979  1.00  0.00    -0.254 N 
HETATM    3  C   UNL     1      41.956 -12.715   1.118  1.00  0.00     0.330 C 
HETATM    4  O   UNL     1      42.357 -11.990   0.210  1.00  0.00    -0.246 OA
HETATM    5  N   UNL     1      42.192 -12.298   2.411  1.00  0.00    -0.308 N 
HETATM    6  C   UNL     1      41.527 -12.811   3.525  1.00  0.00     0.048 A 
HETATM    7  C   UNL     1      40.890 -14.044   3.396  1.00  0.00     0.034 A 
HETATM    8  C   UNL     1      41.469 -12.092   4.716  1.00  0.00     0.030 A 
HETATM    9  C   UNL     1      40.721 -12.596   5.781  1.00  0.00     0.002 A 
HETATM   10  C   UNL     1      40.045 -13.810   5.651  1.00  0.00     0.001 A 
HETATM   11  C   UNL     1      40.132 -14.540   4.464  1.00  0.00     0.015 A 
HETATM   12  H   UNL     1      42.650 -11.396   2.470  1.00  0.00     0.170 HD
ENDROOT
BRANCH   1  13
HETATM   13  C   UNL     1      42.609 -15.506   2.166  1.00  0.00     0.279 C 
HETATM   14  N   UNL     1      42.710 -16.738   1.548  1.00  0.00    -0.352 N 
HETATM   15  H   UNL     1      41.934 -17.092   1.002  1.00  0.00     0.162 HD
HETATM   16  O   UNL     1      43.603 -14.950   2.639  1.00  0.00    -0.268 OA
BRANCH  14  17
HETATM   17  C   UNL     1      43.957 -17.463   1.486  1.00  0.00     0.161 C 
BRANCH  17  18
HETATM   18  C   UNL     1      44.063 -18.467   2.605  1.00  0.00    -0.040 A 
HETATM   19  C   UNL     1      44.373 -19.806   2.339  1.00  0.00     0.011 A 
HETATM   20  C   UNL     1      44.514 -20.720   3.387  1.00  0.00     0.037 A 
HETATM   21  C   UNL     1      44.361 -20.315   4.715  1.00  0.00     0.068 A 
HETATM   22  C   UNL     1      44.045 -18.985   4.988  1.00  0.00     0.037 A 
HETATM   23  C   UNL     1      43.902 -18.067   3.941  1.00  0.00     0.011 A 
BRANCH  21  24
HETATM   24  O   UNL     1      44.542 -21.305   5.642  1.00  0.00    -0.356 OA
HETATM   25  C   UNL     1      45.178 -22.494   5.192  1.00  0.00     0.210 C 
ENDBRANCH  21  24
ENDBRANCH  17  18
ENDBRANCH  14  17
ENDBRANCH   1  13
BRANCH   1  26
HETATM   26  O   UNL     1      40.242 -15.864   1.969  1.00  0.00    -0.359 OA
HETATM   27  H   UNL     1      40.788 -16.631   1.716  1.00  0.00     0.213 HD
ENDBRANCH   1  26
BRANCH   2  28
HETATM   28  C   UNL     1      40.599 -14.210  -0.282  1.00  0.00     0.043 A 
HETATM   29  C   UNL     1      39.311 -13.791  -0.640  1.00  0.00     0.031 A 
HETATM   30  C   UNL     1      38.738 -14.184  -1.856  1.00  0.00     0.026 A 
HETATM   31  C   UNL     1      39.447 -15.011  -2.720  1.00  0.00     0.034 A 
HETATM   32 CL   UNL     1      38.742 -15.506  -4.209  1.00  0.00    -0.084 Cl
HETATM   33  C   UNL     1      40.723 -15.448  -2.380  1.00  0.00     0.026 A 
HETATM   34  C   UNL     1      41.292 -15.053  -1.164  1.00  0.00     0.031 A 
ENDBRANCH   2  28
TORSDOF 6
ENDMDL
MODEL 2
REMARK VINA RESULT:      -8.7      2.013      2.643
REMARK  6 active torsions:
REMARK  status: ('A' for Active; 'I' for Inactive)
REMARK    1  A    between atoms: O_2  and  C_3 
REMARK    2  A    between atoms: C_6  and  C_7 
REMARK    3  A    between atoms: C_7  and  N_8 
REMARK       I    between atoms: N_8  and  C_9 
REMARK    4  A    between atoms: C_9  and  C_10 
REMARK    5  A    between atoms: C_10  and  O_11 
REMARK    6  A    between atoms: N_12  and  C_13 
ROOT
HETATM    1  C   UNL     1      40.877 -15.535   2.488  1.00  0.00     0.256 C 
HETATM    2  N   UNL     1      40.936 -14.167   1.957  1.00  0.00    -0.254 N 
HETATM    3  C   UNL     1      42.181 -13.534   2.024  1.00  0.00     0.330 C 
HETATM    4  O   UNL     1      42.542 -12.559   1.366  1.00  0.00    -0.246 OA
HETATM    5  N   UNL     1      43.034 -13.981   3.012  1.00  0.00    -0.308 N 
HETATM    6  C   UNL     1      42.645 -14.835   4.044  1.00  0.00     0.048 A 
HETATM    7  C   UNL     1      41.477 -15.576   3.875  1.00  0.00     0.034 A 
HETATM    8  C   UNL     1      43.381 -14.910   5.223  1.00  0.00     0.030 A 
HETATM    9  C   UNL     1      42.913 -15.708   6.269  1.00  0.00     0.002 A 
HETATM   10  C   UNL     1      41.725 -16.424   6.127  1.00  0.00     0.001 A 
HETATM   11  C   UNL     1      41.007 -16.366   4.931  1.00  0.00     0.015 A 
HETATM   12  H   UNL     1      43.870 -13.417   3.112  1.00  0.00     0.170 HD
ENDROOT
BRANCH   1  13
HETATM   13  C   UNL     1      41.664 -16.493   1.481  1.00  0.00     0.279 C 
HETATM   14  N   UNL     1      42.703 -17.233   2.014  1.00  0.00    -0.352 N 
HETATM   15  H   UNL     1      42.860 -17.233   3.014  1.00  0.00     0.162 HD
HETATM   16  O   UNL     1      41.306 -16.651   0.311  1.00  0.00    -0.268 OA
BRANCH  14  17
HETATM   17  C   UNL     1      43.462 -18.168   1.218  1.00  0.00     0.161 C 
BRANCH  17  18
HETATM   18  C   UNL     1      43.868 -19.373   2.028  1.00  0.00    -0.040 A 
HETATM   19  C   UNL     1      44.337 -19.229   3.340  1.00  0.00     0.011 A 
HETATM   20  C   UNL     1      44.667 -20.355   4.099  1.00  0.00     0.037 A 
HETATM   21  C   UNL     1      44.526 -21.640   3.571  1.00  0.00     0.068 A 
HETATM   22  C   UNL     1      44.069 -21.792   2.264  1.00  0.00     0.037 A 
HETATM   23  C   UNL     1      43.737 -20.666   1.500  1.00  0.00     0.011 A 
BRANCH  21  24
HETATM   24  O   UNL     1      44.870 -22.652   4.425  1.00  0.00    -0.356 OA
HETATM   25  C   UNL     1      44.805 -22.365   5.816  1.00  0.00     0.210 C 
ENDBRANCH  21  24
ENDBRANCH  17  18
ENDBRANCH  14  17
ENDBRANCH   1  13
BRANCH   1  26
HETATM   26  O   UNL     1      39.547 -16.060   2.530  1.00  0.00    -0.359 OA
HETATM   27  H   UNL     1      39.566 -16.816   1.915  1.00  0.00     0.213 HD
ENDBRANCH   1  26
BRANCH   2  28
HETATM   28  C   UNL     1      39.865 -13.594   1.208  1.00  0.00     0.043 A 
HETATM   29  C   UNL     1      39.768 -13.761  -0.180  1.00  0.00     0.031 A 
HETATM   30  C   UNL     1      38.744 -13.145  -0.909  1.00  0.00     0.026 A 
HETATM   31  C   UNL     1      37.813 -12.346  -0.256  1.00  0.00     0.034 A 
HETATM   32 CL   UNL     1      36.561 -11.577  -1.151  1.00  0.00    -0.084 Cl
HETATM   33  C   UNL     1      37.896 -12.156   1.120  1.00  0.00     0.026 A 
HETATM   34  C   UNL     1      38.921 -12.773   1.845  1.00  0.00     0.031 A 
ENDBRANCH   2  28
TORSDOF 6
ENDMDL
MODEL 3
REMARK VINA RESULT:      -8.7      4.707      7.921
REMARK  6 active torsions:
REMARK  status: ('A' for Active; 'I' for Inactive)
REMARK    1  A    between atoms: O_2  and  C_3 
REMARK    2  A    between atoms: C_6  and  C_7 
REMARK    3  A    between atoms: C_7  and  N_8 
REMARK       I    between atoms: N_8  and  C_9 
REMARK    4  A    between atoms: C_9  and  C_10 
REMARK    5  A    between atoms: C_10  and  O_11 
REMARK    6  A    between atoms: N_12  and  C_13 
ROOT
HETATM    1  C   UNL     1      42.551 -14.976   5.691  1.00  0.00     0.256 C 
HETATM    2  N   UNL     1      43.000 -15.807   4.566  1.00  0.00    -0.254 N 
HETATM    3  C   UNL     1      43.195 -15.144   3.350  1.00  0.00     0.330 C 
HETATM    4  O   UNL     1      43.862 -15.544   2.398  1.00  0.00    -0.246 OA
HETATM    5  N   UNL     1      42.467 -13.986   3.170  1.00  0.00    -0.308 N 
HETATM    6  C   UNL     1      41.423 -13.588   4.005  1.00  0.00     0.048 A 
HETATM    7  C   UNL     1      41.351 -14.153   5.277  1.00  0.00     0.034 A 
HETATM    8  C   UNL     1      40.460 -12.685   3.563  1.00  0.00     0.030 A 
HETATM    9  C   UNL     1      39.381 -12.379   4.394  1.00  0.00     0.002 A 
HETATM   10  C   UNL     1      39.276 -12.968   5.654  1.00  0.00     0.001 A 
HETATM   11  C   UNL     1      40.261 -13.851   6.102  1.00  0.00     0.015 A 
HETATM   12  H   UNL     1      42.536 -13.604   2.234  1.00  0.00     0.170 HD
ENDROOT
BRANCH   1  13
HETATM   13  C   UNL     1      43.769 -14.049   6.141  1.00  0.00     0.279 C 
HETATM   14  N   UNL     1      43.960 -13.893   7.502  1.00  0.00    -0.352 N 
HETATM   15  H   UNL     1      43.411 -14.441   8.153  1.00  0.00     0.162 HD
HETATM   16  O   UNL     1      44.568 -13.574   5.330  1.00  0.00    -0.268 OA
BRANCH  14  17
HETATM   17  C   UNL     1      45.053 -13.115   8.036  1.00  0.00     0.161 C 
BRANCH  17  18
HETATM   18  C   UNL     1      44.566 -12.113   9.052  1.00  0.00    -0.040 A 
HETATM   19  C   UNL     1      43.422 -11.344   8.809  1.00  0.00     0.011 A 
HETATM   20  C   UNL     1      42.952 -10.452   9.776  1.00  0.00     0.037 A 
HETATM   21  C   UNL     1      43.605 -10.318  11.003  1.00  0.00     0.068 A 
HETATM   22  C   UNL     1      44.749 -11.074  11.251  1.00  0.00     0.037 A 
HETATM   23  C   UNL     1      45.223 -11.969  10.285  1.00  0.00     0.011 A 
BRANCH  21  24
HETATM   24  O   UNL     1      43.031  -9.422  11.864  1.00  0.00    -0.356 OA
HETATM   25  C   UNL     1      43.435  -9.495  13.225  1.00  0.00     0.210 C 
ENDBRANCH  21  24
ENDBRANCH  17  18
ENDBRANCH  14  17
ENDBRANCH   1  13
BRANCH   1  26
HETATM   26  O   UNL     1      42.223 -15.742   6.854  1.00  0.00    -0.359 OA
HETATM   27  H   UNL     1      42.823 -16.509   6.815  1.00  0.00     0.213 HD
ENDBRANCH   1  26
BRANCH   2  28
HETATM   28  C   UNL     1      43.437 -17.154   4.741  1.00  0.00     0.043 A 
HETATM   29  C   UNL     1      44.416 -17.491   5.686  1.00  0.00     0.031 A 
HETATM   30  C   UNL     1      44.876 -18.808   5.807  1.00  0.00     0.026 A 
HETATM   31  C   UNL     1      44.368 -19.798   4.974  1.00  0.00     0.034 A 
HETATM   32 CL   UNL     1      44.941 -21.414   5.111  1.00  0.00    -0.084 Cl
HETATM   33  C   UNL     1      43.404 -19.484   4.021  1.00  0.00     0.026 A 
HETATM   34  C   UNL     1      42.947 -18.167   3.904  1.00  0.00     0.031 A 
ENDBRANCH   2  28
TORSDOF 6
ENDMDL
MODEL 4
REMARK VINA RESULT:      -8.7      1.962      3.012
REMARK  6 active torsions:
REMARK  status: ('A' for Active; 'I' for Inactive)
REMARK    1  A    between atoms: O_2  and  C_3 
REMARK    2  A    between atoms: C_6  and  C_7 
REMARK    3  A    between atoms: C_7  and  N_8 
REMARK       I    between atoms: N_8  and  C_9 
REMARK    4  A    between atoms: C_9  and  C_10 
REMARK    5  A    between atoms: C_10  and  O_11 
REMARK    6  A    between atoms: N_12  and  C_13 
ROOT
HETATM    1  C   UNL     1      40.765 -14.552   4.587  1.00  0.00     0.256 C 
HETATM    2  N   UNL     1      41.737 -14.286   3.519  1.00  0.00    -0.254 N 
HETATM    3  C   UNL     1      42.978 -13.785   3.926  1.00  0.00     0.330 C 
HETATM    4  O   UNL     1      44.023 -13.804   3.278  1.00  0.00    -0.246 OA
HETATM    5  N   UNL     1      42.990 -13.101   5.124  1.00  0.00    -0.308 N 
HETATM    6  C   UNL     1      41.837 -12.704   5.801  1.00  0.00     0.048 A 
HETATM    7  C   UNL     1      40.639 -13.341   5.482  1.00  0.00     0.034 A 
HETATM    8  C   UNL     1      41.878 -11.675   6.738  1.00  0.00     0.030 A 
HETATM    9  C   UNL     1      40.689 -11.245   7.331  1.00  0.00     0.002 A 
HETATM   10  C   UNL     1      39.478 -11.846   6.990  1.00  0.00     0.001 A 
HETATM   11  C   UNL     1      39.448 -12.898   6.072  1.00  0.00     0.015 A 
HETATM   12  H   UNL     1      43.873 -12.646   5.323  1.00  0.00     0.170 HD
ENDROOT
BRANCH   1  13
HETATM   13  C   UNL     1      41.260 -15.833   5.401  1.00  0.00     0.279 C 
HETATM   14  N   UNL     1      42.574 -16.218   5.212  1.00  0.00    -0.352 N 
HETATM   15  H   UNL     1      43.197 -15.634   4.668  1.00  0.00     0.162 HD
HETATM   16  O   UNL     1      40.548 -16.395   6.237  1.00  0.00    -0.268 OA
BRANCH  14  17
HETATM   17  C   UNL     1      43.154 -17.333   5.924  1.00  0.00     0.161 C 
BRANCH  17  18
HETATM   18  C   UNL     1      43.610 -18.411   4.974  1.00  0.00    -0.040 A 
HETATM   19  C   UNL     1      43.102 -18.481   3.672  1.00  0.00     0.011 A 
HETATM   20  C   UNL     1      43.565 -19.455   2.784  1.00  0.00     0.037 A 
HETATM   21  C   UNL     1      44.546 -20.369   3.173  1.00  0.00     0.068 A 
HETATM   22  C   UNL     1      45.052 -20.313   4.470  1.00  0.00     0.037 A 
HETATM   23  C   UNL     1      44.591 -19.337   5.363  1.00  0.00     0.011 A 
BRANCH  21  24
HETATM   24  O   UNL     1      44.920 -21.259   2.203  1.00  0.00    -0.356 OA
HETATM   25  C   UNL     1      43.873 -21.915   1.499  1.00  0.00     0.210 C 
ENDBRANCH  21  24
ENDBRANCH  17  18
ENDBRANCH  14  17
ENDBRANCH   1  13
BRANCH   1  26
HETATM   26  O   UNL     1      39.473 -14.911   4.087  1.00  0.00    -0.359 OA
HETATM   27  H   UNL     1      39.537 -14.764   3.126  1.00  0.00     0.213 HD
ENDBRANCH   1  26
BRANCH   2  28
HETATM   28  C   UNL     1      41.532 -14.722   2.175  1.00  0.00     0.043 A 
HETATM   29  C   UNL     1      41.842 -16.027   1.772  1.00  0.00     0.031 A 
HETATM   30  C   UNL     1      41.689 -16.423   0.438  1.00  0.00     0.026 A 
HETATM   31  C   UNL     1      41.234 -15.512  -0.508  1.00  0.00     0.034 A 
HETATM   32 CL   UNL     1      41.057 -15.992  -2.150  1.00  0.00    -0.084 Cl
HETATM   33  C   UNL     1      40.930 -14.207  -0.132  1.00  0.00     0.026 A 
HETATM   34  C   UNL     1      41.085 -13.815   1.202  1.00  0.00     0.031 A 
ENDBRANCH   2  28
TORSDOF 6
ENDMDL
MODEL 5
REMARK VINA RESULT:      -8.6      2.834      5.204
REMARK  6 active torsions:
REMARK  status: ('A' for Active; 'I' for Inactive)
REMARK    1  A    between atoms: O_2  and  C_3 
REMARK    2  A    between atoms: C_6  and  C_7 
REMARK    3  A    between atoms: C_7  and  N_8 
REMARK       I    between atoms: N_8  and  C_9 
REMARK    4  A    between atoms: C_9  and  C_10 
REMARK    5  A    between atoms: C_10  and  O_11 
REMARK    6  A    between atoms: N_12  and  C_13 
ROOT
HETATM    1  C   UNL     1      41.384 -14.033   0.550  1.00  0.00     0.256 C 
HETATM    2  N   UNL     1      40.081 -13.850   1.201  1.00  0.00    -0.254 N 
HETATM    3  C   UNL     1      38.960 -14.221   0.451  1.00  0.00     0.330 C 
HETATM    4  O   UNL     1      37.837 -14.466   0.887  1.00  0.00    -0.246 OA
HETATM    5  N   UNL     1      39.113 -14.187  -0.920  1.00  0.00    -0.308 N 
HETATM    6  C   UNL     1      40.206 -13.608  -1.564  1.00  0.00     0.048 A 
HETATM    7  C   UNL     1      41.367 -13.400  -0.823  1.00  0.00     0.034 A 
HETATM    8  C   UNL     1      40.122 -13.213  -2.896  1.00  0.00     0.030 A 
HETATM    9  C   UNL     1      41.205 -12.556  -3.482  1.00  0.00     0.002 A 
HETATM   10  C   UNL     1      42.359 -12.306  -2.740  1.00  0.00     0.001 A 
HETATM   11  C   UNL     1      42.447 -12.730  -1.412  1.00  0.00     0.015 A 
HETATM   12  H   UNL     1      38.249 -14.337  -1.428  1.00  0.00     0.170 HD
ENDROOT
BRANCH   1  13
HETATM   13  C   UNL     1      41.684 -15.599   0.469  1.00  0.00     0.279 C 
HETATM   14  N   UNL     1      42.208 -16.189   1.604  1.00  0.00    -0.352 N 
HETATM   15  H   UNL     1      42.280 -15.656   2.461  1.00  0.00     0.162 HD
HETATM   16  O   UNL     1      41.372 -16.277  -0.513  1.00  0.00    -0.268 OA
BRANCH  14  17
HETATM   17  C   UNL     1      42.481 -17.606   1.671  1.00  0.00     0.161 C 
BRANCH  17  18
HETATM   18  C   UNL     1      42.727 -18.048   3.092  1.00  0.00    -0.040 A 
HETATM   19  C   UNL     1      43.839 -18.834   3.415  1.00  0.00     0.011 A 
HETATM   20  C   UNL     1      44.084 -19.200   4.741  1.00  0.00     0.037 A 
HETATM   21  C   UNL     1      43.234 -18.781   5.767  1.00  0.00     0.068 A 
HETATM   22  C   UNL     1      42.120 -18.005   5.454  1.00  0.00     0.037 A 
HETATM   23  C   UNL     1      41.872 -17.636   4.126  1.00  0.00     0.011 A 
BRANCH  21  24
HETATM   24  O   UNL     1      43.598 -19.196   7.019  1.00  0.00    -0.356 OA
HETATM   25  C   UNL     1      43.897 -18.181   7.968  1.00  0.00     0.210 C 
ENDBRANCH  21  24
ENDBRANCH  17  18
ENDBRANCH  14  17
ENDBRANCH   1  13
BRANCH   1  26
HETATM   26  O   UNL     1      42.468 -13.490   1.310  1.00  0.00    -0.359 OA
HETATM   27  H   UNL     1      42.077 -12.730   1.779  1.00  0.00     0.213 HD
ENDBRANCH   1  26
BRANCH   2  28
HETATM   28  C   UNL     1      39.959 -13.538   2.589  1.00  0.00     0.043 A 
HETATM   29  C   UNL     1      40.011 -14.535   3.572  1.00  0.00     0.031 A 
HETATM   30  C   UNL     1      39.833 -14.220   4.925  1.00  0.00     0.026 A 
HETATM   31  C   UNL     1      39.590 -12.905   5.305  1.00  0.00     0.034 A 
HETATM   32 CL   UNL     1      39.358 -12.518   6.965  1.00  0.00    -0.084 Cl
HETATM   33  C   UNL     1      39.523 -11.901   4.344  1.00  0.00     0.026 A 
HETATM   34  C   UNL     1      39.701 -12.219   2.993  1.00  0.00     0.031 A 
ENDBRANCH   2  28
TORSDOF 6
ENDMDL
MODEL 6
REMARK VINA RESULT:      -8.4      3.422      5.641
REMARK  6 active torsions:
REMARK  status: ('A' for Active; 'I' for Inactive)
REMARK    1  A    between atoms: O_2  and  C_3 
REMARK    2  A    between atoms: C_6  and  C_7 
REMARK    3  A    between atoms: C_7  and  N_8 
REMARK       I    between atoms: N_8  and  C_9 
REMARK    4  A    between atoms: C_9  and  C_10 
REMARK    5  A    between atoms: C_10  and  O_11 
REMARK    6  A    between atoms: N_12  and  C_13 
ROOT
HETATM    1  C   UNL     1      42.229 -13.792   4.101  1.00  0.00     0.256 C 
HETATM    2  N   UNL     1      41.086 -13.116   4.729  1.00  0.00    -0.254 N 
HETATM    3  C   UNL     1      39.978 -13.920   5.017  1.00  0.00     0.330 C 
HETATM    4  O   UNL     1      39.077 -13.664   5.813  1.00  0.00    -0.246 OA
HETATM    5  N   UNL     1      39.834 -15.051   4.241  1.00  0.00    -0.308 N 
HETATM    6  C   UNL     1      40.574 -15.297   3.085  1.00  0.00     0.048 A 
HETATM    7  C   UNL     1      41.762 -14.592   2.905  1.00  0.00     0.034 A 
HETATM    8  C   UNL     1      40.116 -16.192   2.121  1.00  0.00     0.030 A 
HETATM    9  C   UNL     1      40.839 -16.347   0.937  1.00  0.00     0.002 A 
HETATM   10  C   UNL     1      42.008 -15.617   0.728  1.00  0.00     0.001 A 
HETATM   11  C   UNL     1      42.477 -14.742   1.711  1.00  0.00     0.015 A 
HETATM   12  H   UNL     1      38.958 -15.538   4.391  1.00  0.00     0.170 HD
ENDROOT
BRANCH   1  13
HETATM   13  C   UNL     1      42.917 -14.726   5.197  1.00  0.00     0.279 C 
HETATM   14  N   UNL     1      43.143 -16.042   4.837  1.00  0.00    -0.352 N 
HETATM   15  H   UNL     1      42.975 -16.338   3.884  1.00  0.00     0.162 HD
HETATM   16  O   UNL     1      43.325 -14.284   6.274  1.00  0.00    -0.268 OA
BRANCH  14  17
HETATM   17  C   UNL     1      43.799 -16.975   5.723  1.00  0.00     0.161 C 
BRANCH  17  18
HETATM   18  C   UNL     1      44.080 -18.283   5.028  1.00  0.00    -0.040 A 
HETATM   19  C   UNL     1      44.497 -19.405   5.754  1.00  0.00     0.011 A 
HETATM   20  C   UNL     1      44.710 -20.625   5.108  1.00  0.00     0.037 A 
HETATM   21  C   UNL     1      44.502 -20.753   3.733  1.00  0.00     0.068 A 
HETATM   22  C   UNL     1      44.096 -19.639   3.001  1.00  0.00     0.037 A 
HETATM   23  C   UNL     1      43.881 -18.414   3.645  1.00  0.00     0.011 A 
BRANCH  21  24
HETATM   24  O   UNL     1      44.733 -22.004   3.231  1.00  0.00    -0.356 OA
HETATM   25  C   UNL     1      44.492 -22.190   1.842  1.00  0.00     0.210 C 
ENDBRANCH  21  24
ENDBRANCH  17  18
ENDBRANCH  14  17
ENDBRANCH   1  13
BRANCH   1  26
HETATM   26  O   UNL     1      43.257 -12.885   3.693  1.00  0.00    -0.359 OA
HETATM   27  H   UNL     1      43.176 -12.134   4.310  1.00  0.00     0.213 HD
ENDBRANCH   1  26
BRANCH   2  28
HETATM   28  C   UNL     1      41.170 -11.783   5.230  1.00  0.00     0.043 A 
HETATM   29  C   UNL     1      40.954 -10.673   4.402  1.00  0.00     0.031 A 
HETATM   30  C   UNL     1      41.097  -9.370   4.894  1.00  0.00     0.026 A 
HETATM   31  C   UNL     1      41.469  -9.166   6.218  1.00  0.00     0.034 A 
HETATM   32 CL   UNL     1      41.658  -7.567   6.822  1.00  0.00    -0.084 Cl
HETATM   33  C   UNL     1      41.700 -10.253   7.055  1.00  0.00     0.026 A 
HETATM   34  C   UNL     1      41.557 -11.554   6.559  1.00  0.00     0.031 A 
ENDBRANCH   2  28
TORSDOF 6
ENDMDL
MODEL 7
REMARK VINA RESULT:      -8.3      3.198      5.533
REMARK  6 active torsions:
REMARK  status: ('A' for Active; 'I' for Inactive)
REMARK    1  A    between atoms: O_2  and  C_3 
REMARK    2  A    between atoms: C_6  and  C_7 
REMARK    3  A    between atoms: C_7  and  N_8 
REMARK       I    between atoms: N_8  and  C_9 
REMARK    4  A    between atoms: C_9  and  C_10 
REMARK    5  A    between atoms: C_10  and  O_11 
REMARK    6  A    between atoms: N_12  and  C_13 
ROOT
HETATM    1  C   UNL     1      40.801 -13.680  -1.403  1.00  0.00     0.256 C 
HETATM    2  N   UNL     1      40.493 -12.245  -1.458  1.00  0.00    -0.254 N 
HETATM    3  C   UNL     1      39.141 -11.901  -1.363  1.00  0.00     0.330 C 
HETATM    4  O   UNL     1      38.687 -10.800  -1.059  1.00  0.00    -0.246 OA
HETATM    5  N   UNL     1      38.243 -12.866  -1.769  1.00  0.00    -0.308 N 
HETATM    6  C   UNL     1      38.606 -14.026  -2.453  1.00  0.00     0.048 A 
HETATM    7  C   UNL     1      39.938 -14.431  -2.393  1.00  0.00     0.034 A 
HETATM    8  C   UNL     1      37.673 -14.733  -3.206  1.00  0.00     0.030 A 
HETATM    9  C   UNL     1      38.092 -15.838  -3.948  1.00  0.00     0.002 A 
HETATM   10  C   UNL     1      39.431 -16.230  -3.929  1.00  0.00     0.001 A 
HETATM   11  C   UNL     1      40.356 -15.533  -3.148  1.00  0.00     0.015 A 
HETATM   12  H   UNL     1      37.285 -12.538  -1.807  1.00  0.00     0.170 HD
ENDROOT
BRANCH   1  13
HETATM   13  C   UNL     1      40.551 -14.185   0.091  1.00  0.00     0.279 C 
HETATM   14  N   UNL     1      40.645 -15.547   0.309  1.00  0.00    -0.352 N 
HETATM   15  H   UNL     1      40.969 -16.154  -0.433  1.00  0.00     0.162 HD
HETATM   16  O   UNL     1      40.385 -13.402   1.029  1.00  0.00    -0.268 OA
BRANCH  14  17
HETATM   17  C   UNL     1      40.485 -16.123   1.623  1.00  0.00     0.161 C 
BRANCH  17  18
HETATM   18  C   UNL     1      41.641 -17.027   1.969  1.00  0.00    -0.040 A 
HETATM   19  C   UNL     1      41.732 -17.624   3.232  1.00  0.00     0.011 A 
HETATM   20  C   UNL     1      42.782 -18.498   3.526  1.00  0.00     0.037 A 
HETATM   21  C   UNL     1      43.752 -18.800   2.569  1.00  0.00     0.068 A 
HETATM   22  C   UNL     1      43.674 -18.203   1.311  1.00  0.00     0.037 A 
HETATM   23  C   UNL     1      42.623 -17.328   1.012  1.00  0.00     0.011 A 
BRANCH  21  24
HETATM   24  O   UNL     1      44.714 -19.679   2.983  1.00  0.00    -0.356 OA
HETATM   25  C   UNL     1      44.499 -21.052   2.680  1.00  0.00     0.210 C 
ENDBRANCH  21  24
ENDBRANCH  17  18
ENDBRANCH  14  17
ENDBRANCH   1  13
BRANCH   1  26
HETATM   26  O   UNL     1      42.179 -13.965  -1.662  1.00  0.00    -0.359 OA
HETATM   27  H   UNL     1      42.591 -13.088  -1.770  1.00  0.00     0.213 HD
ENDBRANCH   1  26
BRANCH   2  28
HETATM   28  C   UNL     1      41.508 -11.245  -1.378  1.00  0.00     0.043 A 
HETATM   29  C   UNL     1      41.980 -10.776  -0.145  1.00  0.00     0.031 A 
HETATM   30  C   UNL     1      42.935  -9.754  -0.081  1.00  0.00     0.026 A 
HETATM   31  C   UNL     1      43.418  -9.183  -1.253  1.00  0.00     0.034 A 
HETATM   32 CL   UNL     1      44.582  -7.919  -1.179  1.00  0.00    -0.084 Cl
HETATM   33  C   UNL     1      42.955  -9.626  -2.489  1.00  0.00     0.026 A 
HETATM   34  C   UNL     1      42.002 -10.647  -2.548  1.00  0.00     0.031 A 
ENDBRANCH   2  28
TORSDOF 6
ENDMDL
MODEL 8
REMARK VINA RESULT:      -8.2      3.144      5.312
REMARK  6 active torsions:
REMARK  status: ('A' for Active; 'I' for Inactive)
REMARK    1  A    between atoms: O_2  and  C_3 
REMARK    2  A    between atoms: C_6  and  C_7 
REMARK    3  A    between atoms: C_7  and  N_8 
REMARK       I    between atoms: N_8  and  C_9 
REMARK    4  A    between atoms: C_9  and  C_10 
REMARK    5  A    between atoms: C_10  and  O_11 
REMARK    6  A    between atoms: N_12  and  C_13 
ROOT
HETATM    1  C   UNL     1      41.744 -14.095   2.249  1.00  0.00     0.256 C 
HETATM    2  N   UNL     1      41.484 -14.459   3.648  1.00  0.00    -0.254 N 
HETATM    3  C   UNL     1      40.449 -15.375   3.863  1.00  0.00     0.330 C 
HETATM    4  O   UNL     1      40.275 -16.058   4.871  1.00  0.00    -0.246 OA
HETATM    5  N   UNL     1      39.468 -15.418   2.894  1.00  0.00    -0.308 N 
HETATM    6  C   UNL     1      39.345 -14.474   1.874  1.00  0.00     0.048 A 
HETATM    7  C   UNL     1      40.454 -13.685   1.575  1.00  0.00     0.034 A 
HETATM    8  C   UNL     1      38.137 -14.301   1.204  1.00  0.00     0.030 A 
HETATM    9  C   UNL     1      38.025 -13.288   0.250  1.00  0.00     0.002 A 
HETATM   10  C   UNL     1      39.116 -12.464  -0.029  1.00  0.00     0.001 A 
HETATM   11  C   UNL     1      40.333 -12.662   0.626  1.00  0.00     0.015 A 
HETATM   12  H   UNL     1      38.675 -15.995   3.144  1.00  0.00     0.170 HD
ENDROOT
BRANCH   1  13
HETATM   13  C   UNL     1      42.409 -15.351   1.523  1.00  0.00     0.279 C 
HETATM   14  N   UNL     1      43.333 -16.073   2.256  1.00  0.00    -0.352 N 
HETATM   15  H   UNL     1      43.475 -15.861   3.236  1.00  0.00     0.162 HD
HETATM   16  O   UNL     1      42.050 -15.730   0.406  1.00  0.00    -0.268 OA
BRANCH  14  17
HETATM   17  C   UNL     1      43.971 -17.256   1.728  1.00  0.00     0.161 C 
BRANCH  17  18
HETATM   18  C   UNL     1      44.084 -18.331   2.779  1.00  0.00    -0.040 A 
HETATM   19  C   UNL     1      44.538 -19.613   2.446  1.00  0.00     0.011 A 
HETATM   20  C   UNL     1      44.683 -20.590   3.435  1.00  0.00     0.037 A 
HETATM   21  C   UNL     1      44.392 -20.305   4.770  1.00  0.00     0.068 A 
HETATM   22  C   UNL     1      43.932 -19.034   5.109  1.00  0.00     0.037 A 
HETATM   23  C   UNL     1      43.785 -18.052   4.121  1.00  0.00     0.011 A 
BRANCH  21  24
HETATM   24  O   UNL     1      44.592 -21.344   5.637  1.00  0.00    -0.356 OA
HETATM   25  C   UNL     1      45.038 -22.571   5.072  1.00  0.00     0.210 C 
ENDBRANCH  21  24
ENDBRANCH  17  18
ENDBRANCH  14  17
ENDBRANCH   1  13
BRANCH   1  26
HETATM   26  O   UNL     1      42.704 -13.043   2.116  1.00  0.00    -0.359 OA
HETATM   27  H   UNL     1      42.214 -12.322   1.680  1.00  0.00     0.213 HD
ENDBRANCH   1  26
BRANCH   2  28
HETATM   28  C   UNL     1      42.368 -14.095   4.706  1.00  0.00     0.043 A 
HETATM   29  C   UNL     1      43.464 -14.895   5.055  1.00  0.00     0.031 A 
HETATM   30  C   UNL     1      44.290 -14.554   6.134  1.00  0.00     0.026 A 
HETATM   31  C   UNL     1      44.019 -13.414   6.881  1.00  0.00     0.034 A 
HETATM   32 CL   UNL     1      45.023 -12.999   8.214  1.00  0.00    -0.084 Cl
HETATM   33  C   UNL     1      42.929 -12.611   6.560  1.00  0.00     0.026 A 
HETATM   34  C   UNL     1      42.106 -12.954   5.481  1.00  0.00     0.031 A 
ENDBRANCH   2  28
TORSDOF 6
ENDMDL
MODEL 9
REMARK VINA RESULT:      -8.0      2.734      6.773
REMARK  6 active torsions:
REMARK  status: ('A' for Active; 'I' for Inactive)
REMARK    1  A    between atoms: O_2  and  C_3 
REMARK    2  A    between atoms: C_6  and  C_7 
REMARK    3  A    between atoms: C_7  and  N_8 
REMARK       I    between atoms: N_8  and  C_9 
REMARK    4  A    between atoms: C_9  and  C_10 
REMARK    5  A    between atoms: C_10  and  O_11 
REMARK    6  A    between atoms: N_12  and  C_13 
ROOT
HETATM    1  C   UNL     1      42.108 -14.230   2.836  1.00  0.00     0.256 C 
HETATM    2  N   UNL     1      41.387 -15.503   2.708  1.00  0.00    -0.254 N 
HETATM    3  C   UNL     1      40.017 -15.411   2.442  1.00  0.00     0.330 C 
HETATM    4  O   UNL     1      39.301 -16.296   1.979  1.00  0.00    -0.246 OA
HETATM    5  N   UNL     1      39.399 -14.249   2.856  1.00  0.00    -0.308 N 
HETATM    6  C   UNL     1      39.998 -13.307   3.692  1.00  0.00     0.048 A 
HETATM    7  C   UNL     1      41.386 -13.325   3.809  1.00  0.00     0.034 A 
HETATM    8  C   UNL     1      39.226 -12.404   4.418  1.00  0.00     0.030 A 
HETATM    9  C   UNL     1      39.854 -11.535   5.312  1.00  0.00     0.002 A 
HETATM   10  C   UNL     1      41.240 -11.570   5.468  1.00  0.00     0.001 A 
HETATM   11  C   UNL     1      42.010 -12.458   4.715  1.00  0.00     0.015 A 
HETATM   12  H   UNL     1      38.390 -14.271   2.763  1.00  0.00     0.170 HD
ENDROOT
BRANCH   1  13
HETATM   13  C   UNL     1      42.211 -13.569   1.387  1.00  0.00     0.279 C 
HETATM   14  N   UNL     1      41.850 -14.365   0.315  1.00  0.00    -0.352 N 
HETATM   15  H   UNL     1      41.438 -15.275   0.481  1.00  0.00     0.162 HD
HETATM   16  O   UNL     1      42.496 -12.380   1.227  1.00  0.00    -0.268 OA
BRANCH  14  17
HETATM   17  C   UNL     1      41.857 -13.870  -1.041  1.00  0.00     0.161 C 
BRANCH  17  18
HETATM   18  C   UNL     1      40.556 -14.171  -1.740  1.00  0.00    -0.040 A 
HETATM   19  C   UNL     1      40.525 -14.994  -2.873  1.00  0.00     0.011 A 
HETATM   20  C   UNL     1      39.309 -15.305  -3.486  1.00  0.00     0.037 A 
HETATM   21  C   UNL     1      38.105 -14.815  -2.978  1.00  0.00     0.068 A 
HETATM   22  C   UNL     1      38.127 -13.989  -1.855  1.00  0.00     0.037 A 
HETATM   23  C   UNL     1      39.344 -13.674  -1.238  1.00  0.00     0.011 A 
BRANCH  21  24
HETATM   24  O   UNL     1      36.988 -15.208  -3.664  1.00  0.00    -0.356 OA
HETATM   25  C   UNL     1      36.412 -14.256  -4.548  1.00  0.00     0.210 C 
ENDBRANCH  21  24
ENDBRANCH  17  18
ENDBRANCH  14  17
ENDBRANCH   1  13
BRANCH   1  26
HETATM   26  O   UNL     1      43.464 -14.398   3.261  1.00  0.00    -0.359 OA
HETATM   27  H   UNL     1      43.675 -15.322   3.033  1.00  0.00     0.213 HD
ENDBRANCH   1  26
BRANCH   2  28
HETATM   28  C   UNL     1      42.063 -16.757   2.625  1.00  0.00     0.043 A 
HETATM   29  C   UNL     1      42.228 -17.578   3.748  1.00  0.00     0.031 A 
HETATM   30  C   UNL     1      42.944 -18.778   3.664  1.00  0.00     0.026 A 
HETATM   31  C   UNL     1      43.512 -19.163   2.454  1.00  0.00     0.034 A 
HETATM   32 CL   UNL     1      44.403 -20.630   2.350  1.00  0.00    -0.084 Cl
HETATM   33  C   UNL     1      43.371 -18.357   1.328  1.00  0.00     0.026 A 
HETATM   34  C   UNL     1      42.655 -17.159   1.417  1.00  0.00     0.031 A 
ENDBRANCH   2  28
TORSDOF 6
ENDMDL
MODEL 10
REMARK VINA RESULT:      -8.0      3.120      7.243
REMARK  6 active torsions:
REMARK  status: ('A' for Active; 'I' for Inactive)
REMARK    1  A    between atoms: O_2  and  C_3 
REMARK    2  A    between atoms: C_6  and  C_7 
REMARK    3  A    between atoms: C_7  and  N_8 
REMARK       I    between atoms: N_8  and  C_9 
REMARK    4  A    between atoms: C_9  and  C_10 
REMARK    5  A    between atoms: C_10  and  O_11 
REMARK    6  A    between atoms: N_12  and  C_13 
ROOT
HETATM    1  C   UNL     1      41.882 -14.877   4.019  1.00  0.00     0.256 C 
HETATM    2  N   UNL     1      41.798 -16.089   4.842  1.00  0.00    -0.254 N 
HETATM    3  C   UNL     1      40.607 -16.268   5.554  1.00  0.00     0.330 C 
HETATM    4  O   UNL     1      40.188 -17.325   6.023  1.00  0.00    -0.246 OA
HETATM    5  N   UNL     1      39.904 -15.120   5.854  1.00  0.00    -0.308 N 
HETATM    6  C   UNL     1      40.416 -13.833   5.691  1.00  0.00     0.048 A 
HETATM    7  C   UNL     1      41.509 -13.666   4.844  1.00  0.00     0.034 A 
HETATM    8  C   UNL     1      39.874 -12.756   6.388  1.00  0.00     0.030 A 
HETATM    9  C   UNL     1      40.468 -11.498   6.268  1.00  0.00     0.002 A 
HETATM   10  C   UNL     1      41.588 -11.326   5.455  1.00  0.00     0.001 A 
HETATM   11  C   UNL     1      42.108 -12.404   4.736  1.00  0.00     0.015 A 
HETATM   12  H   UNL     1      39.119 -15.275   6.476  1.00  0.00     0.170 HD
ENDROOT
BRANCH   1  13
HETATM   13  C   UNL     1      40.906 -15.056   2.768  1.00  0.00     0.279 C 
HETATM   14  N   UNL     1      41.490 -15.441   1.576  1.00  0.00    -0.352 N 
HETATM   15  H   UNL     1      42.469 -15.699   1.555  1.00  0.00     0.162 HD
HETATM   16  O   UNL     1      39.681 -14.959   2.873  1.00  0.00    -0.268 OA
BRANCH  14  17
HETATM   17  C   UNL     1      40.709 -15.680   0.385  1.00  0.00     0.161 C 
BRANCH  17  18
HETATM   18  C   UNL     1      41.158 -14.794  -0.750  1.00  0.00    -0.040 A 
HETATM   19  C   UNL     1      40.942 -15.170  -2.081  1.00  0.00     0.011 A 
HETATM   20  C   UNL     1      41.319 -14.321  -3.125  1.00  0.00     0.037 A 
HETATM   21  C   UNL     1      41.908 -13.082  -2.862  1.00  0.00     0.068 A 
HETATM   22  C   UNL     1      42.135 -12.704  -1.540  1.00  0.00     0.037 A 
HETATM   23  C   UNL     1      41.757 -13.551  -0.492  1.00  0.00     0.011 A 
BRANCH  21  24
HETATM   24  O   UNL     1      42.214 -12.345  -3.973  1.00  0.00    -0.356 OA
HETATM   25  C   UNL     1      42.366 -10.943  -3.788  1.00  0.00     0.210 C 
ENDBRANCH  21  24
ENDBRANCH  17  18
ENDBRANCH  14  17
ENDBRANCH   1  13
BRANCH   1  26
HETATM   26  O   UNL     1      43.179 -14.681   3.447  1.00  0.00    -0.359 OA
HETATM   27  H   UNL     1      43.747 -14.457   4.207  1.00  0.00     0.213 HD
ENDBRANCH   1  26
BRANCH   2  28
HETATM   28  C   UNL     1      42.759 -17.140   4.752  1.00  0.00     0.043 A 
HETATM   29  C   UNL     1      42.715 -18.088   3.722  1.00  0.00     0.031 A 
HETATM   30  C   UNL     1      43.631 -19.147   3.679  1.00  0.00     0.026 A 
HETATM   31  C   UNL     1      44.593 -19.272   4.675  1.00  0.00     0.034 A 
HETATM   32 CL   UNL     1      45.711 -20.579   4.632  1.00  0.00    -0.084 Cl
HETATM   33  C   UNL     1      44.648 -18.348   5.714  1.00  0.00     0.026 A 
HETATM   34  C   UNL     1      43.731 -17.292   5.753  1.00  0.00     0.031 A 
ENDBRANCH   2  28
TORSDOF 6
ENDMDL
