MODEL 1
REMARK VINA RESULT:      -8.5      0.000      0.000
REMARK  8 active torsions:
REMARK  status: ('A' for Active; 'I' for Inactive)
REMARK    1  A    between atoms: O_2  and  C_3 
REMARK    2  A    between atoms: C_4  and  O_5 
REMARK    3  A    between atoms: C_8  and  N_9 
REMARK       I    between atoms: N_9  and  C_10 
REMARK    4  A    between atoms: C_10  and  C_11 
REMARK       I    between atoms: C_11  and  N_12 
REMARK    5  A    between atoms: N_12  and  C_13 
REMARK    6  A    between atoms: C_13  and  C_14 
REMARK    7  A    between atoms: C_14  and  S_15 
REMARK    8  A    between atoms: S_15  and  C_16 
ROOT
HETATM    1  C   UNL     1      44.701 -13.025   8.113  1.00  0.00     0.309 C 
HETATM    2  N   UNL     1      44.024 -13.938   7.342  1.00  0.00    -0.351 N 
HETATM    3  O   UNL     1      45.908 -13.006   8.315  1.00  0.00    -0.262 OA
HETATM    4  H   UNL     1      43.008 -13.869   7.339  1.00  0.00     0.162 HD
ENDROOT
BRANCH   1   5
HETATM    5  C   UNL     1      43.795 -11.972   8.789  1.00  0.00     0.313 C 
HETATM    6  N   UNL     1      43.889 -12.031  10.162  1.00  0.00    -0.319 N 
HETATM    7  H   UNL     1      44.540 -12.734  10.506  1.00  0.00     0.169 HD
HETATM    8  O   UNL     1      43.109 -11.245   8.085  1.00  0.00    -0.262 OA
BRANCH   6   9
HETATM    9  C   UNL     1      43.181 -11.275  11.113  1.00  0.00     0.037 A 
HETATM   10  C   UNL     1      41.785 -11.220  11.177  1.00  0.00     0.069 A 
HETATM   11  C   UNL     1      41.143 -10.461  12.165  1.00  0.00     0.103 A 
HETATM   12  C   UNL     1      41.915  -9.757  13.107  1.00  0.00     0.101 A 
HETATM   13  C   UNL     1      43.309  -9.791  13.029  1.00  0.00     0.042 A 
HETATM   14  C   UNL     1      43.936 -10.550  12.039  1.00  0.00     0.032 A 
BRANCH  11  15
HETATM   15  O   UNL     1      39.782 -10.355  12.306  1.00  0.00    -0.353 OA
HETATM   16  C   UNL     1      39.076  -9.600  11.332  1.00  0.00     0.210 C 
ENDBRANCH  11  15
BRANCH  12  17
HETATM   17  O   UNL     1      41.239  -9.014  14.044  1.00  0.00    -0.353 OA
HETATM   18  C   UNL     1      41.526  -9.343  15.398  1.00  0.00     0.210 C 
ENDBRANCH  12  17
ENDBRANCH   6   9
ENDBRANCH   1   5
BRANCH   2  19
HETATM   19  C   UNL     1      44.655 -15.082   6.706  1.00  0.00     0.144 C 
BRANCH  19  20
HETATM   20  C   UNL     1      43.657 -16.189   6.231  1.00  0.00     0.033 C 
HETATM   21  C   UNL     1      44.459 -17.429   5.779  1.00  0.00     0.049 C 
HETATM   22  C   UNL     1      45.074 -18.165   6.966  1.00  0.00     0.169 C 
HETATM   23  O   UNL     1      44.075 -18.509   7.922  1.00  0.00    -0.391 OA
HETATM   24  C   UNL     1      43.411 -17.367   8.461  1.00  0.00     0.169 C 
HETATM   25  C   UNL     1      42.688 -16.600   7.357  1.00  0.00     0.049 C 
BRANCH  20  26
HETATM   26  S   UNL     1      42.745 -15.428   4.773  1.00  0.00    -0.118 SA
BRANCH  26  27
HETATM   27  C   UNL     1      42.990 -16.600   3.455  1.00  0.00     0.001 A 
HETATM   28  C   UNL     1      43.879 -16.317   2.415  1.00  0.00     0.018 A 
HETATM   29  C   UNL     1      44.102 -17.253   1.402  1.00  0.00     0.001 A 
HETATM   30  C   UNL     1      43.451 -18.484   1.434  1.00  0.00     0.000 A 
HETATM   31  C   UNL     1      42.587 -18.786   2.485  1.00  0.00     0.001 A 
HETATM   32  C   UNL     1      42.365 -17.850   3.498  1.00  0.00     0.018 A 
ENDBRANCH  26  27
ENDBRANCH  20  26
ENDBRANCH  19  20
ENDBRANCH   2  19
TORSDOF 8
ENDMDL
MODEL 2
REMARK VINA RESULT:      -8.4      1.849      3.042
REMARK  8 active torsions:
REMARK  status: ('A' for Active; 'I' for Inactive)
REMARK    1  A    between atoms: O_2  and  C_3 
REMARK    2  A    between atoms: C_4  and  O_5 
REMARK    3  A    between atoms: C_8  and  N_9 
REMARK       I    between atoms: N_9  and  C_10 
REMARK    4  A    between atoms: C_10  and  C_11 
REMARK       I    between atoms: C_11  and  N_12 
REMARK    5  A    between atoms: N_12  and  C_13 
REMARK    6  A    between atoms: C_13  and  C_14 
REMARK    7  A    between atoms: C_14  and  S_15 
REMARK    8  A    between atoms: S_15  and  C_16 
ROOT
HETATM    1  C   UNL     1      45.031 -12.923   8.144  1.00  0.00     0.309 C 
HETATM    2  N   UNL     1      43.992 -13.553   7.503  1.00  0.00    -0.351 N 
HETATM    3  O   UNL     1      46.149 -12.728   7.685  1.00  0.00    -0.262 OA
HETATM    4  H   UNL     1      43.148 -13.713   8.050  1.00  0.00     0.162 HD
ENDROOT
BRANCH   1   5
HETATM    5  C   UNL     1      44.706 -12.477   9.587  1.00  0.00     0.313 C 
HETATM    6  N   UNL     1      43.562 -11.710   9.634  1.00  0.00    -0.319 N 
HETATM    7  H   UNL     1      43.112 -11.576   8.730  1.00  0.00     0.169 HD
HETATM    8  O   UNL     1      45.458 -12.809  10.491  1.00  0.00    -0.262 OA
BRANCH   6   9
HETATM    9  C   UNL     1      42.983 -11.083  10.751  1.00  0.00     0.037 A 
HETATM   10  C   UNL     1      41.606 -11.032  10.986  1.00  0.00     0.069 A 
HETATM   11  C   UNL     1      41.098 -10.406  12.133  1.00  0.00     0.103 A 
HETATM   12  C   UNL     1      41.987  -9.833  13.059  1.00  0.00     0.101 A 
HETATM   13  C   UNL     1      43.361  -9.861  12.813  1.00  0.00     0.042 A 
HETATM   14  C   UNL     1      43.855 -10.487  11.667  1.00  0.00     0.032 A 
BRANCH  11  15
HETATM   15  O   UNL     1      39.765 -10.316  12.446  1.00  0.00    -0.353 OA
HETATM   16  C   UNL     1      38.946  -9.507  11.613  1.00  0.00     0.210 C 
ENDBRANCH  11  15
BRANCH  12  17
HETATM   17  O   UNL     1      41.439  -9.216  14.157  1.00  0.00    -0.353 OA
HETATM   18  C   UNL     1      41.945  -9.656  15.413  1.00  0.00     0.210 C 
ENDBRANCH  12  17
ENDBRANCH   6   9
ENDBRANCH   1   5
BRANCH   2  19
HETATM   19  C   UNL     1      44.104 -14.157   6.187  1.00  0.00     0.144 C 
BRANCH  19  20
HETATM   20  C   UNL     1      42.738 -14.575   5.548  1.00  0.00     0.033 C 
HETATM   21  C   UNL     1      41.717 -13.434   5.750  1.00  0.00     0.049 C 
HETATM   22  C   UNL     1      42.031 -12.234   4.861  1.00  0.00     0.169 C 
HETATM   23  O   UNL     1      42.113 -12.625   3.493  1.00  0.00    -0.391 OA
HETATM   24  C   UNL     1      43.146 -13.580   3.253  1.00  0.00     0.169 C 
HETATM   25  C   UNL     1      42.881 -14.861   4.040  1.00  0.00     0.049 C 
BRANCH  20  26
HETATM   26  S   UNL     1      42.208 -16.109   6.498  1.00  0.00    -0.118 SA
BRANCH  26  27
HETATM   27  C   UNL     1      43.125 -17.427   5.729  1.00  0.00     0.001 A 
HETATM   28  C   UNL     1      42.618 -18.074   4.598  1.00  0.00     0.018 A 
HETATM   29  C   UNL     1      43.355 -19.081   3.971  1.00  0.00     0.001 A 
HETATM   30  C   UNL     1      44.611 -19.433   4.459  1.00  0.00     0.000 A 
HETATM   31  C   UNL     1      45.138 -18.771   5.567  1.00  0.00     0.001 A 
HETATM   32  C   UNL     1      44.400 -17.764   6.194  1.00  0.00     0.018 A 
ENDBRANCH  26  27
ENDBRANCH  20  26
ENDBRANCH  19  20
ENDBRANCH   2  19
TORSDOF 8
ENDMDL
MODEL 3
REMARK VINA RESULT:      -8.1      1.946      3.128
REMARK  8 active torsions:
REMARK  status: ('A' for Active; 'I' for Inactive)
REMARK    1  A    between atoms: O_2  and  C_3 
REMARK    2  A    between atoms: C_4  and  O_5 
REMARK    3  A    between atoms: C_8  and  N_9 
REMARK       I    between atoms: N_9  and  C_10 
REMARK    4  A    between atoms: C_10  and  C_11 
REMARK       I    between atoms: C_11  and  N_12 
REMARK    5  A    between atoms: N_12  and  C_13 
REMARK    6  A    between atoms: C_13  and  C_14 
REMARK    7  A    between atoms: C_14  and  S_15 
REMARK    8  A    between atoms: S_15  and  C_16 
ROOT
HETATM    1  C   UNL     1      44.918 -13.354   7.292  1.00  0.00     0.309 C 
HETATM    2  N   UNL     1      43.767 -13.960   6.850  1.00  0.00    -0.351 N 
HETATM    3  O   UNL     1      45.982 -13.300   6.689  1.00  0.00    -0.262 OA
HETATM    4  H   UNL     1      42.987 -13.991   7.505  1.00  0.00     0.162 HD
ENDROOT
BRANCH   1   5
HETATM    5  C   UNL     1      44.805 -12.733   8.702  1.00  0.00     0.313 C 
HETATM    6  N   UNL     1      43.643 -12.006   8.843  1.00  0.00    -0.319 N 
HETATM    7  H   UNL     1      43.048 -12.006   8.016  1.00  0.00     0.169 HD
HETATM    8  O   UNL     1      45.709 -12.919   9.503  1.00  0.00    -0.262 OA
BRANCH   6   9
HETATM    9  C   UNL     1      43.218 -11.257   9.954  1.00  0.00     0.037 A 
HETATM   10  C   UNL     1      41.885 -10.904  10.188  1.00  0.00     0.069 A 
HETATM   11  C   UNL     1      41.528 -10.172  11.329  1.00  0.00     0.103 A 
HETATM   12  C   UNL     1      42.524  -9.799  12.251  1.00  0.00     0.101 A 
HETATM   13  C   UNL     1      43.858 -10.128  12.005  1.00  0.00     0.042 A 
HETATM   14  C   UNL     1      44.201 -10.857  10.864  1.00  0.00     0.032 A 
BRANCH  11  15
HETATM   15  O   UNL     1      40.248  -9.789  11.642  1.00  0.00    -0.353 OA
HETATM   16  C   UNL     1      39.322  -9.654  10.573  1.00  0.00     0.210 C 
ENDBRANCH  11  15
BRANCH  12  17
HETATM   17  O   UNL     1      42.125  -9.067  13.343  1.00  0.00    -0.353 OA
HETATM   18  C   UNL     1      41.849  -9.829  14.513  1.00  0.00     0.210 C 
ENDBRANCH  12  17
ENDBRANCH   6   9
ENDBRANCH   1   5
BRANCH   2  19
HETATM   19  C   UNL     1      43.674 -14.705   5.607  1.00  0.00     0.144 C 
BRANCH  19  20
HETATM   20  C   UNL     1      43.298 -16.214   5.784  1.00  0.00     0.033 C 
HETATM   21  C   UNL     1      42.014 -16.316   6.635  1.00  0.00     0.049 C 
HETATM   22  C   UNL     1      40.784 -15.860   5.856  1.00  0.00     0.169 C 
HETATM   23  O   UNL     1      40.660 -16.585   4.635  1.00  0.00    -0.391 OA
HETATM   24  C   UNL     1      41.776 -16.396   3.766  1.00  0.00     0.169 C 
HETATM   25  C   UNL     1      43.057 -16.901   4.425  1.00  0.00     0.049 C 
BRANCH  20  26
HETATM   26  S   UNL     1      44.756 -16.974   6.697  1.00  0.00    -0.118 SA
BRANCH  26  27
HETATM   27  C   UNL     1      44.534 -18.727   6.474  1.00  0.00     0.001 A 
HETATM   28  C   UNL     1      43.823 -19.473   7.418  1.00  0.00     0.018 A 
HETATM   29  C   UNL     1      43.614 -20.841   7.224  1.00  0.00     0.001 A 
HETATM   30  C   UNL     1      44.097 -21.464   6.077  1.00  0.00     0.000 A 
HETATM   31  C   UNL     1      44.781 -20.721   5.116  1.00  0.00     0.001 A 
HETATM   32  C   UNL     1      44.989 -19.353   5.310  1.00  0.00     0.018 A 
ENDBRANCH  26  27
ENDBRANCH  20  26
ENDBRANCH  19  20
ENDBRANCH   2  19
TORSDOF 8
ENDMDL
MODEL 4
REMARK VINA RESULT:      -8.1      7.967     11.354
REMARK  8 active torsions:
REMARK  status: ('A' for Active; 'I' for Inactive)
REMARK    1  A    between atoms: O_2  and  C_3 
REMARK    2  A    between atoms: C_4  and  O_5 
REMARK    3  A    between atoms: C_8  and  N_9 
REMARK       I    between atoms: N_9  and  C_10 
REMARK    4  A    between atoms: C_10  and  C_11 
REMARK       I    between atoms: C_11  and  N_12 
REMARK    5  A    between atoms: N_12  and  C_13 
REMARK    6  A    between atoms: C_13  and  C_14 
REMARK    7  A    between atoms: C_14  and  S_15 
REMARK    8  A    between atoms: S_15  and  C_16 
ROOT
HETATM    1  C   UNL     1      40.392 -15.302   0.749  1.00  0.00     0.309 C 
HETATM    2  N   UNL     1      40.407 -15.049  -0.601  1.00  0.00    -0.351 N 
HETATM    3  O   UNL     1      39.494 -15.010   1.527  1.00  0.00    -0.262 OA
HETATM    4  H   UNL     1      41.265 -15.278  -1.100  1.00  0.00     0.162 HD
ENDROOT
BRANCH   1   5
HETATM    5  C   UNL     1      41.672 -15.986   1.277  1.00  0.00     0.313 C 
HETATM    6  N   UNL     1      41.375 -17.099   2.035  1.00  0.00    -0.319 N 
HETATM    7  H   UNL     1      40.379 -17.298   2.110  1.00  0.00     0.169 HD
HETATM    8  O   UNL     1      42.758 -15.496   1.007  1.00  0.00    -0.262 OA
BRANCH   6   9
HETATM    9  C   UNL     1      42.265 -17.943   2.722  1.00  0.00     0.037 A 
HETATM   10  C   UNL     1      43.050 -18.916   2.097  1.00  0.00     0.069 A 
HETATM   11  C   UNL     1      43.933 -19.711   2.843  1.00  0.00     0.103 A 
HETATM   12  C   UNL     1      44.032 -19.517   4.232  1.00  0.00     0.101 A 
HETATM   13  C   UNL     1      43.229 -18.563   4.860  1.00  0.00     0.042 A 
HETATM   14  C   UNL     1      42.354 -17.778   4.107  1.00  0.00     0.032 A 
BRANCH  11  15
HETATM   15  O   UNL     1      44.744 -20.682   2.313  1.00  0.00    -0.353 OA
HETATM   16  C   UNL     1      44.123 -21.855   1.807  1.00  0.00     0.210 C 
ENDBRANCH  11  15
BRANCH  12  17
HETATM   17  O   UNL     1      44.897 -20.333   4.919  1.00  0.00    -0.353 OA
HETATM   18  C   UNL     1      44.299 -21.129   5.936  1.00  0.00     0.210 C 
ENDBRANCH  12  17
ENDBRANCH   6   9
ENDBRANCH   1   5
BRANCH   2  19
HETATM   19  C   UNL     1      39.364 -14.313  -1.295  1.00  0.00     0.144 C 
BRANCH  19  20
HETATM   20  C   UNL     1      39.605 -14.142  -2.831  1.00  0.00     0.033 C 
HETATM   21  C   UNL     1      38.895 -15.288  -3.584  1.00  0.00     0.049 C 
HETATM   22  C   UNL     1      37.378 -15.117  -3.567  1.00  0.00     0.169 C 
HETATM   23  O   UNL     1      37.007 -13.843  -4.086  1.00  0.00    -0.391 OA
HETATM   24  C   UNL     1      37.538 -12.761  -3.323  1.00  0.00     0.169 C 
HETATM   25  C   UNL     1      39.064 -12.792  -3.344  1.00  0.00     0.049 C 
BRANCH  20  26
HETATM   26  S   UNL     1      41.470 -14.269  -3.047  1.00  0.00    -0.118 SA
BRANCH  26  27
HETATM   27  C   UNL     1      42.045 -12.604  -2.783  1.00  0.00     0.001 A 
HETATM   28  C   UNL     1      42.447 -12.190  -1.511  1.00  0.00     0.018 A 
HETATM   29  C   UNL     1      42.936 -10.896  -1.311  1.00  0.00     0.001 A 
HETATM   30  C   UNL     1      43.042 -10.017  -2.387  1.00  0.00     0.000 A 
HETATM   31  C   UNL     1      42.672 -10.434  -3.665  1.00  0.00     0.001 A 
HETATM   32  C   UNL     1      42.184 -11.727  -3.864  1.00  0.00     0.018 A 
ENDBRANCH  26  27
ENDBRANCH  20  26
ENDBRANCH  19  20
ENDBRANCH   2  19
TORSDOF 8
ENDMDL
MODEL 5
REMARK VINA RESULT:      -8.0      5.725      9.925
REMARK  8 active torsions:
REMARK  status: ('A' for Active; 'I' for Inactive)
REMARK    1  A    between atoms: O_2  and  C_3 
REMARK    2  A    between atoms: C_4  and  O_5 
REMARK    3  A    between atoms: C_8  and  N_9 
REMARK       I    between atoms: N_9  and  C_10 
REMARK    4  A    between atoms: C_10  and  C_11 
REMARK       I    between atoms: C_11  and  N_12 
REMARK    5  A    between atoms: N_12  and  C_13 
REMARK    6  A    between atoms: C_13  and  C_14 
REMARK    7  A    between atoms: C_14  and  S_15 
REMARK    8  A    between atoms: S_15  and  C_16 
ROOT
HETATM    1  C   UNL     1      40.586 -15.645   3.534  1.00  0.00     0.309 C 
HETATM    2  N   UNL     1      41.289 -16.824   3.514  1.00  0.00    -0.351 N 
HETATM    3  O   UNL     1      40.261 -15.016   4.533  1.00  0.00    -0.262 OA
HETATM    4  H   UNL     1      41.410 -17.269   2.605  1.00  0.00     0.162 HD
ENDROOT
BRANCH   1   5
HETATM    5  C   UNL     1      40.165 -15.136   2.138  1.00  0.00     0.313 C 
HETATM    6  N   UNL     1      41.249 -15.008   1.297  1.00  0.00    -0.319 N 
HETATM    7  H   UNL     1      42.137 -15.278   1.717  1.00  0.00     0.169 HD
HETATM    8  O   UNL     1      38.985 -14.892   1.929  1.00  0.00    -0.262 OA
BRANCH   6   9
HETATM    9  C   UNL     1      41.271 -14.525  -0.023  1.00  0.00     0.037 A 
HETATM   10  C   UNL     1      40.981 -15.313  -1.141  1.00  0.00     0.069 A 
HETATM   11  C   UNL     1      41.002 -14.761  -2.430  1.00  0.00     0.103 A 
HETATM   12  C   UNL     1      41.310 -13.399  -2.594  1.00  0.00     0.101 A 
HETATM   13  C   UNL     1      41.624 -12.618  -1.481  1.00  0.00     0.042 A 
HETATM   14  C   UNL     1      41.601 -13.179  -0.202  1.00  0.00     0.032 A 
BRANCH  11  15
HETATM   15  O   UNL     1      40.724 -15.456  -3.580  1.00  0.00    -0.353 OA
HETATM   16  C   UNL     1      39.363 -15.749  -3.860  1.00  0.00     0.210 C 
ENDBRANCH  11  15
BRANCH  12  17
HETATM   17  O   UNL     1      41.335 -12.911  -3.878  1.00  0.00    -0.353 OA
HETATM   18  C   UNL     1      40.447 -11.827  -4.131  1.00  0.00     0.210 C 
ENDBRANCH  12  17
ENDBRANCH   6   9
ENDBRANCH   1   5
BRANCH   2  19
HETATM   19  C   UNL     1      41.687 -17.546   4.710  1.00  0.00     0.144 C 
BRANCH  19  20
HETATM   20  C   UNL     1      43.228 -17.549   4.981  1.00  0.00     0.033 C 
HETATM   21  C   UNL     1      43.638 -16.185   5.577  1.00  0.00     0.049 C 
HETATM   22  C   UNL     1      43.150 -16.030   7.015  1.00  0.00     0.169 C 
HETATM   23  O   UNL     1      43.606 -17.112   7.823  1.00  0.00    -0.391 OA
HETATM   24  C   UNL     1      43.126 -18.378   7.374  1.00  0.00     0.169 C 
HETATM   25  C   UNL     1      43.630 -18.668   5.962  1.00  0.00     0.049 C 
BRANCH  20  26
HETATM   26  S   UNL     1      44.017 -17.792   3.291  1.00  0.00    -0.118 SA
BRANCH  26  27
HETATM   27  C   UNL     1      44.115 -19.562   3.115  1.00  0.00     0.001 A 
HETATM   28  C   UNL     1      43.601 -20.187   1.976  1.00  0.00     0.018 A 
HETATM   29  C   UNL     1      43.712 -21.571   1.820  1.00  0.00     0.001 A 
HETATM   30  C   UNL     1      44.356 -22.333   2.792  1.00  0.00     0.000 A 
HETATM   31  C   UNL     1      44.900 -21.712   3.916  1.00  0.00     0.001 A 
HETATM   32  C   UNL     1      44.788 -20.329   4.071  1.00  0.00     0.018 A 
ENDBRANCH  26  27
ENDBRANCH  20  26
ENDBRANCH  19  20
ENDBRANCH   2  19
TORSDOF 8
ENDMDL
MODEL 6
REMARK VINA RESULT:      -8.0      7.388     11.158
REMARK  8 active torsions:
REMARK  status: ('A' for Active; 'I' for Inactive)
REMARK    1  A    between atoms: O_2  and  C_3 
REMARK    2  A    between atoms: C_4  and  O_5 
REMARK    3  A    between atoms: C_8  and  N_9 
REMARK       I    between atoms: N_9  and  C_10 
REMARK    4  A    between atoms: C_10  and  C_11 
REMARK       I    between atoms: C_11  and  N_12 
REMARK    5  A    between atoms: N_12  and  C_13 
REMARK    6  A    between atoms: C_13  and  C_14 
REMARK    7  A    between atoms: C_14  and  S_15 
REMARK    8  A    between atoms: S_15  and  C_16 
ROOT
HETATM    1  C   UNL     1      40.516 -15.493   0.779  1.00  0.00     0.309 C 
HETATM    2  N   UNL     1      40.547 -15.099  -0.536  1.00  0.00    -0.351 N 
HETATM    3  O   UNL     1      39.570 -15.371   1.546  1.00  0.00    -0.262 OA
HETATM    4  H   UNL     1      41.438 -15.192  -1.020  1.00  0.00     0.162 HD
ENDROOT
BRANCH   1   5
HETATM    5  C   UNL     1      41.841 -16.104   1.287  1.00  0.00     0.313 C 
HETATM    6  N   UNL     1      41.626 -17.287   1.960  1.00  0.00    -0.319 N 
HETATM    7  H   UNL     1      40.649 -17.573   2.002  1.00  0.00     0.169 HD
HETATM    8  O   UNL     1      42.886 -15.509   1.073  1.00  0.00    -0.262 OA
BRANCH   6   9
HETATM    9  C   UNL     1      42.573 -18.101   2.608  1.00  0.00     0.037 A 
HETATM   10  C   UNL     1      43.122 -17.806   3.860  1.00  0.00     0.069 A 
HETATM   11  C   UNL     1      44.048 -18.674   4.457  1.00  0.00     0.103 A 
HETATM   12  C   UNL     1      44.418 -19.856   3.791  1.00  0.00     0.101 A 
HETATM   13  C   UNL     1      43.889 -20.138   2.529  1.00  0.00     0.042 A 
HETATM   14  C   UNL     1      42.969 -19.266   1.944  1.00  0.00     0.032 A 
BRANCH  11  15
HETATM   15  O   UNL     1      44.630 -18.468   5.682  1.00  0.00    -0.353 OA
HETATM   16  C   UNL     1      43.843 -18.727   6.837  1.00  0.00     0.210 C 
ENDBRANCH  11  15
BRANCH  12  17
HETATM   17  O   UNL     1      45.341 -20.662   4.410  1.00  0.00    -0.353 OA
HETATM   18  C   UNL     1      44.857 -21.939   4.810  1.00  0.00     0.210 C 
ENDBRANCH  12  17
ENDBRANCH   6   9
ENDBRANCH   1   5
BRANCH   2  19
HETATM   19  C   UNL     1      39.458 -14.397  -1.193  1.00  0.00     0.144 C 
BRANCH  19  20
HETATM   20  C   UNL     1      39.673 -14.156  -2.724  1.00  0.00     0.033 C 
HETATM   21  C   UNL     1      38.962 -15.275  -3.515  1.00  0.00     0.049 C 
HETATM   22  C   UNL     1      37.444 -15.120  -3.468  1.00  0.00     0.169 C 
HETATM   23  O   UNL     1      37.053 -13.828  -3.924  1.00  0.00    -0.391 OA
HETATM   24  C   UNL     1      37.586 -12.775  -3.123  1.00  0.00     0.169 C 
HETATM   25  C   UNL     1      39.112 -12.791  -3.168  1.00  0.00     0.049 C 
BRANCH  20  26
HETATM   26  S   UNL     1      41.535 -14.255  -2.973  1.00  0.00    -0.118 SA
BRANCH  26  27
HETATM   27  C   UNL     1      42.089 -12.580  -2.729  1.00  0.00     0.001 A 
HETATM   28  C   UNL     1      42.510 -12.153  -1.467  1.00  0.00     0.018 A 
HETATM   29  C   UNL     1      42.981 -10.850  -1.283  1.00  0.00     0.001 A 
HETATM   30  C   UNL     1      43.052  -9.975  -2.364  1.00  0.00     0.000 A 
HETATM   31  C   UNL     1      42.663 -10.404  -3.633  1.00  0.00     0.001 A 
HETATM   32  C   UNL     1      42.192 -11.706  -3.816  1.00  0.00     0.018 A 
ENDBRANCH  26  27
ENDBRANCH  20  26
ENDBRANCH  19  20
ENDBRANCH   2  19
TORSDOF 8
ENDMDL
MODEL 7
REMARK VINA RESULT:      -8.0      5.845      8.997
REMARK  8 active torsions:
REMARK  status: ('A' for Active; 'I' for Inactive)
REMARK    1  A    between atoms: O_2  and  C_3 
REMARK    2  A    between atoms: C_4  and  O_5 
REMARK    3  A    between atoms: C_8  and  N_9 
REMARK       I    between atoms: N_9  and  C_10 
REMARK    4  A    between atoms: C_10  and  C_11 
REMARK       I    between atoms: C_11  and  N_12 
REMARK    5  A    between atoms: N_12  and  C_13 
REMARK    6  A    between atoms: C_13  and  C_14 
REMARK    7  A    between atoms: C_14  and  S_15 
REMARK    8  A    between atoms: S_15  and  C_16 
ROOT
HETATM    1  C   UNL     1      40.763 -15.930   5.158  1.00  0.00     0.309 C 
HETATM    2  N   UNL     1      41.441 -17.001   4.628  1.00  0.00    -0.351 N 
HETATM    3  O   UNL     1      40.551 -15.728   6.346  1.00  0.00    -0.262 OA
HETATM    4  H   UNL     1      41.462 -17.072   3.612  1.00  0.00     0.162 HD
ENDROOT
BRANCH   1   5
HETATM    5  C   UNL     1      40.211 -14.947   4.102  1.00  0.00     0.313 C 
HETATM    6  N   UNL     1      40.115 -15.538   2.861  1.00  0.00    -0.319 N 
HETATM    7  H   UNL     1      40.404 -16.515   2.841  1.00  0.00     0.169 HD
HETATM    8  O   UNL     1      39.945 -13.804   4.442  1.00  0.00    -0.262 OA
BRANCH   6   9
HETATM    9  C   UNL     1      39.711 -14.951   1.649  1.00  0.00     0.037 A 
HETATM   10  C   UNL     1      40.580 -14.690   0.585  1.00  0.00     0.069 A 
HETATM   11  C   UNL     1      40.105 -14.120  -0.604  1.00  0.00     0.103 A 
HETATM   12  C   UNL     1      38.737 -13.818  -0.728  1.00  0.00     0.101 A 
HETATM   13  C   UNL     1      37.873 -14.055   0.343  1.00  0.00     0.042 A 
HETATM   14  C   UNL     1      38.358 -14.622   1.523  1.00  0.00     0.032 A 
BRANCH  11  15
HETATM   15  O   UNL     1      40.883 -13.837  -1.698  1.00  0.00    -0.353 OA
HETATM   16  C   UNL     1      41.710 -12.683  -1.637  1.00  0.00     0.210 C 
ENDBRANCH  11  15
BRANCH  12  17
HETATM   17  O   UNL     1      38.324 -13.244  -1.906  1.00  0.00    -0.353 OA
HETATM   18  C   UNL     1      37.676 -14.128  -2.814  1.00  0.00     0.210 C 
ENDBRANCH  12  17
ENDBRANCH   6   9
ENDBRANCH   1   5
BRANCH   2  19
HETATM   19  C   UNL     1      41.947 -18.107   5.422  1.00  0.00     0.144 C 
BRANCH  19  20
HETATM   20  C   UNL     1      43.507 -18.156   5.545  1.00  0.00     0.033 C 
HETATM   21  C   UNL     1      43.974 -17.025   6.487  1.00  0.00     0.049 C 
HETATM   22  C   UNL     1      43.617 -17.321   7.941  1.00  0.00     0.169 C 
HETATM   23  O   UNL     1      44.139 -18.585   8.343  1.00  0.00    -0.391 OA
HETATM   24  C   UNL     1      43.615 -19.667   7.576  1.00  0.00     0.169 C 
HETATM   25  C   UNL     1      43.989 -19.509   6.105  1.00  0.00     0.049 C 
BRANCH  20  26
HETATM   26  S   UNL     1      44.140 -17.862   3.798  1.00  0.00    -0.118 SA
BRANCH  26  27
HETATM   27  C   UNL     1      44.027 -19.463   3.027  1.00  0.00     0.001 A 
HETATM   28  C   UNL     1      42.982 -19.749   2.144  1.00  0.00     0.018 A 
HETATM   29  C   UNL     1      42.914 -20.991   1.508  1.00  0.00     0.001 A 
HETATM   30  C   UNL     1      43.902 -21.946   1.738  1.00  0.00     0.000 A 
HETATM   31  C   UNL     1      44.964 -21.658   2.593  1.00  0.00     0.001 A 
HETATM   32  C   UNL     1      45.031 -20.416   3.228  1.00  0.00     0.018 A 
ENDBRANCH  26  27
ENDBRANCH  20  26
ENDBRANCH  19  20
ENDBRANCH   2  19
TORSDOF 8
ENDMDL
MODEL 8
REMARK VINA RESULT:      -7.8      2.721     10.078
REMARK  8 active torsions:
REMARK  status: ('A' for Active; 'I' for Inactive)
REMARK    1  A    between atoms: O_2  and  C_3 
REMARK    2  A    between atoms: C_4  and  O_5 
REMARK    3  A    between atoms: C_8  and  N_9 
REMARK       I    between atoms: N_9  and  C_10 
REMARK    4  A    between atoms: C_10  and  C_11 
REMARK       I    between atoms: C_11  and  N_12 
REMARK    5  A    between atoms: N_12  and  C_13 
REMARK    6  A    between atoms: C_13  and  C_14 
REMARK    7  A    between atoms: C_14  and  S_15 
REMARK    8  A    between atoms: S_15  and  C_16 
ROOT
HETATM    1  C   UNL     1      41.279 -12.153   6.226  1.00  0.00     0.309 C 
HETATM    2  N   UNL     1      41.945 -11.752   7.358  1.00  0.00    -0.351 N 
HETATM    3  O   UNL     1      40.614 -11.436   5.489  1.00  0.00    -0.262 OA
HETATM    4  H   UNL     1      42.386 -12.485   7.911  1.00  0.00     0.162 HD
ENDROOT
BRANCH   1   5
HETATM    5  C   UNL     1      41.388 -13.664   5.929  1.00  0.00     0.313 C 
HETATM    6  N   UNL     1      42.684 -14.115   6.064  1.00  0.00    -0.319 N 
HETATM    7  H   UNL     1      43.347 -13.396   6.349  1.00  0.00     0.169 HD
HETATM    8  O   UNL     1      40.382 -14.276   5.603  1.00  0.00    -0.262 OA
BRANCH   6   9
HETATM    9  C   UNL     1      43.182 -15.408   5.827  1.00  0.00     0.037 A 
HETATM   10  C   UNL     1      43.064 -16.071   4.601  1.00  0.00     0.069 A 
HETATM   11  C   UNL     1      43.603 -17.354   4.428  1.00  0.00     0.103 A 
HETATM   12  C   UNL     1      44.278 -17.971   5.496  1.00  0.00     0.101 A 
HETATM   13  C   UNL     1      44.374 -17.320   6.727  1.00  0.00     0.042 A 
HETATM   14  C   UNL     1      43.832 -16.043   6.889  1.00  0.00     0.032 A 
BRANCH  11  15
HETATM   15  O   UNL     1      43.541 -18.074   3.261  1.00  0.00    -0.353 OA
HETATM   16  C   UNL     1      42.493 -17.765   2.352  1.00  0.00     0.210 C 
ENDBRANCH  11  15
BRANCH  12  17
HETATM   17  O   UNL     1      44.772 -19.235   5.281  1.00  0.00    -0.353 OA
HETATM   18  C   UNL     1      44.170 -20.261   6.062  1.00  0.00     0.210 C 
ENDBRANCH  12  17
ENDBRANCH   6   9
ENDBRANCH   1   5
BRANCH   2  19
HETATM   19  C   UNL     1      41.887 -10.403   7.893  1.00  0.00     0.144 C 
BRANCH  19  20
HETATM   20  C   UNL     1      41.434 -10.319   9.389  1.00  0.00     0.033 C 
HETATM   21  C   UNL     1      41.340  -8.835   9.804  1.00  0.00     0.049 C 
HETATM   22  C   UNL     1      40.142  -8.144   9.159  1.00  0.00     0.169 C 
HETATM   23  O   UNL     1      38.936  -8.845   9.451  1.00  0.00    -0.391 OA
HETATM   24  C   UNL     1      38.941 -10.182   8.954  1.00  0.00     0.169 C 
HETATM   25  C   UNL     1      40.062 -10.989   9.604  1.00  0.00     0.049 C 
BRANCH  20  26
HETATM   26  S   UNL     1      42.791 -11.190  10.357  1.00  0.00    -0.118 SA
BRANCH  26  27
HETATM   27  C   UNL     1      42.607 -10.560  12.012  1.00  0.00     0.001 A 
HETATM   28  C   UNL     1      41.551 -10.993  12.819  1.00  0.00     0.018 A 
HETATM   29  C   UNL     1      41.429 -10.529  14.131  1.00  0.00     0.001 A 
HETATM   30  C   UNL     1      42.373  -9.645  14.649  1.00  0.00     0.000 A 
HETATM   31  C   UNL     1      43.447  -9.234  13.861  1.00  0.00     0.001 A 
HETATM   32  C   UNL     1      43.568  -9.698  12.549  1.00  0.00     0.018 A 
ENDBRANCH  26  27
ENDBRANCH  20  26
ENDBRANCH  19  20
ENDBRANCH   2  19
TORSDOF 8
ENDMDL
MODEL 9
REMARK VINA RESULT:      -7.8      6.396     10.312
REMARK  8 active torsions:
REMARK  status: ('A' for Active; 'I' for Inactive)
REMARK    1  A    between atoms: O_2  and  C_3 
REMARK    2  A    between atoms: C_4  and  O_5 
REMARK    3  A    between atoms: C_8  and  N_9 
REMARK       I    between atoms: N_9  and  C_10 
REMARK    4  A    between atoms: C_10  and  C_11 
REMARK       I    between atoms: C_11  and  N_12 
REMARK    5  A    between atoms: N_12  and  C_13 
REMARK    6  A    between atoms: C_13  and  C_14 
REMARK    7  A    between atoms: C_14  and  S_15 
REMARK    8  A    between atoms: S_15  and  C_16 
ROOT
HETATM    1  C   UNL     1      41.199 -15.747   0.472  1.00  0.00     0.309 C 
HETATM    2  N   UNL     1      40.833 -15.833   1.793  1.00  0.00    -0.351 N 
HETATM    3  O   UNL     1      41.656 -16.654  -0.210  1.00  0.00    -0.262 OA
HETATM    4  H   UNL     1      40.547 -14.967   2.246  1.00  0.00     0.162 HD
ENDROOT
BRANCH   1   5
HETATM    5  C   UNL     1      41.028 -14.339  -0.140  1.00  0.00     0.313 C 
HETATM    6  N   UNL     1      41.956 -14.101  -1.131  1.00  0.00    -0.319 N 
HETATM    7  H   UNL     1      42.584 -14.883  -1.309  1.00  0.00     0.169 HD
HETATM    8  O   UNL     1      40.152 -13.607   0.298  1.00  0.00    -0.262 OA
BRANCH   6   9
HETATM    9  C   UNL     1      42.148 -12.924  -1.875  1.00  0.00     0.037 A 
HETATM   10  C   UNL     1      42.813 -11.796  -1.384  1.00  0.00     0.069 A 
HETATM   11  C   UNL     1      42.987 -10.662  -2.189  1.00  0.00     0.103 A 
HETATM   12  C   UNL     1      42.495 -10.666  -3.507  1.00  0.00     0.101 A 
HETATM   13  C   UNL     1      41.809 -11.782  -3.989  1.00  0.00     0.042 A 
HETATM   14  C   UNL     1      41.641 -12.906  -3.177  1.00  0.00     0.032 A 
BRANCH  11  15
HETATM   15  O   UNL     1      43.631  -9.516  -1.793  1.00  0.00    -0.353 OA
HETATM   16  C   UNL     1      43.302  -8.983  -0.518  1.00  0.00     0.210 C 
ENDBRANCH  11  15
BRANCH  12  17
HETATM   17  O   UNL     1      42.675  -9.524  -4.248  1.00  0.00    -0.353 OA
HETATM   18  C   UNL     1      41.514  -8.718  -4.409  1.00  0.00     0.210 C 
ENDBRANCH  12  17
ENDBRANCH   6   9
ENDBRANCH   1   5
BRANCH   2  19
HETATM   19  C   UNL     1      41.014 -17.025   2.604  1.00  0.00     0.144 C 
BRANCH  19  20
HETATM   20  C   UNL     1      42.153 -16.915   3.671  1.00  0.00     0.033 C 
HETATM   21  C   UNL     1      42.130 -15.500   4.288  1.00  0.00     0.049 C 
HETATM   22  C   UNL     1      40.928 -15.307   5.210  1.00  0.00     0.169 C 
HETATM   23  O   UNL     1      40.895 -16.316   6.216  1.00  0.00    -0.391 OA
HETATM   24  C   UNL     1      40.775 -17.631   5.675  1.00  0.00     0.169 C 
HETATM   25  C   UNL     1      41.979 -17.957   4.795  1.00  0.00     0.049 C 
BRANCH  20  26
HETATM   26  S   UNL     1      43.747 -17.189   2.711  1.00  0.00    -0.118 SA
BRANCH  26  27
HETATM   27  C   UNL     1      43.977 -18.954   2.759  1.00  0.00     0.001 A 
HETATM   28  C   UNL     1      44.659 -19.548   3.825  1.00  0.00     0.018 A 
HETATM   29  C   UNL     1      44.806 -20.936   3.883  1.00  0.00     0.001 A 
HETATM   30  C   UNL     1      44.254 -21.738   2.887  1.00  0.00     0.000 A 
HETATM   31  C   UNL     1      43.546 -21.156   1.837  1.00  0.00     0.001 A 
HETATM   32  C   UNL     1      43.400 -19.768   1.779  1.00  0.00     0.018 A 
ENDBRANCH  26  27
ENDBRANCH  20  26
ENDBRANCH  19  20
ENDBRANCH   2  19
TORSDOF 8
ENDMDL
MODEL 10
REMARK VINA RESULT:      -7.8      7.374     10.951
REMARK  8 active torsions:
REMARK  status: ('A' for Active; 'I' for Inactive)
REMARK    1  A    between atoms: O_2  and  C_3 
REMARK    2  A    between atoms: C_4  and  O_5 
REMARK    3  A    between atoms: C_8  and  N_9 
REMARK       I    between atoms: N_9  and  C_10 
REMARK    4  A    between atoms: C_10  and  C_11 
REMARK       I    between atoms: C_11  and  N_12 
REMARK    5  A    between atoms: N_12  and  C_13 
REMARK    6  A    between atoms: C_13  and  C_14 
REMARK    7  A    between atoms: C_14  and  S_15 
REMARK    8  A    between atoms: S_15  and  C_16 
ROOT
HETATM    1  C   UNL     1      41.120 -15.338   1.628  1.00  0.00     0.309 C 
HETATM    2  N   UNL     1      41.221 -15.109   0.278  1.00  0.00    -0.351 N 
HETATM    3  O   UNL     1      40.183 -15.014   2.346  1.00  0.00    -0.262 OA
HETATM    4  H   UNL     1      42.102 -15.365  -0.164  1.00  0.00     0.162 HD
ENDROOT
BRANCH   1   5
HETATM    5  C   UNL     1      42.350 -16.040   2.244  1.00  0.00     0.313 C 
HETATM    6  N   UNL     1      42.105 -17.375   2.482  1.00  0.00    -0.319 N 
HETATM    7  H   UNL     1      41.175 -17.684   2.205  1.00  0.00     0.169 HD
HETATM    8  O   UNL     1      43.355 -15.382   2.466  1.00  0.00    -0.262 OA
BRANCH   6   9
HETATM    9  C   UNL     1      42.957 -18.321   3.080  1.00  0.00     0.037 A 
HETATM   10  C   UNL     1      43.399 -18.238   4.404  1.00  0.00     0.069 A 
HETATM   11  C   UNL     1      44.233 -19.228   4.942  1.00  0.00     0.103 A 
HETATM   12  C   UNL     1      44.617 -20.319   4.142  1.00  0.00     0.101 A 
HETATM   13  C   UNL     1      44.196 -20.389   2.813  1.00  0.00     0.042 A 
HETATM   14  C   UNL     1      43.367 -19.396   2.288  1.00  0.00     0.032 A 
BRANCH  11  15
HETATM   15  O   UNL     1      44.709 -19.232   6.229  1.00  0.00    -0.353 OA
HETATM   16  C   UNL     1      43.756 -19.204   7.283  1.00  0.00     0.210 C 
ENDBRANCH  11  15
BRANCH  12  17
HETATM   17  O   UNL     1      45.449 -21.253   4.711  1.00  0.00    -0.353 OA
HETATM   18  C   UNL     1      44.863 -22.532   4.929  1.00  0.00     0.210 C 
ENDBRANCH  12  17
ENDBRANCH   6   9
ENDBRANCH   1   5
BRANCH   2  19
HETATM   19  C   UNL     1      40.238 -14.364  -0.490  1.00  0.00     0.144 C 
BRANCH  19  20
HETATM   20  C   UNL     1      40.762 -13.824  -1.861  1.00  0.00     0.033 C 
HETATM   21  C   UNL     1      41.238 -15.013  -2.722  1.00  0.00     0.049 C 
HETATM   22  C   UNL     1      40.065 -15.845  -3.233  1.00  0.00     0.169 C 
HETATM   23  O   UNL     1      39.136 -15.028  -3.940  1.00  0.00    -0.391 OA
HETATM   24  C   UNL     1      38.572 -14.001  -3.126  1.00  0.00     0.169 C 
HETATM   25  C   UNL     1      39.664 -13.058  -2.626  1.00  0.00     0.049 C 
BRANCH  20  26
HETATM   26  S   UNL     1      42.210 -12.707  -1.422  1.00  0.00    -0.118 SA
BRANCH  26  27
HETATM   27  C   UNL     1      42.166 -11.439  -2.671  1.00  0.00     0.001 A 
HETATM   28  C   UNL     1      41.973 -10.102  -2.313  1.00  0.00     0.018 A 
HETATM   29  C   UNL     1      41.978  -9.102  -3.289  1.00  0.00     0.001 A 
HETATM   30  C   UNL     1      42.196  -9.432  -4.625  1.00  0.00     0.000 A 
HETATM   31  C   UNL     1      42.420 -10.760  -4.986  1.00  0.00     0.001 A 
HETATM   32  C   UNL     1      42.415 -11.759  -4.010  1.00  0.00     0.018 A 
ENDBRANCH  26  27
ENDBRANCH  20  26
ENDBRANCH  19  20
ENDBRANCH   2  19
TORSDOF 8
ENDMDL
