MODEL 1
REMARK VINA RESULT:      -9.5      0.000      0.000
REMARK  6 active torsions:
REMARK  status: ('A' for Active; 'I' for Inactive)
REMARK    1  A    between atoms: N_6  and  C_7 
REMARK    2  A    between atoms: C_8  and  N_9 
REMARK    3  A    between atoms: C_10  and  N_11 
REMARK       I    between atoms: N_11  and  C_12 
REMARK    4  A    between atoms: C_12  and  C_13 
REMARK    5  A    between atoms: C_14  and  C_15 
REMARK    6  A    between atoms: C_17  and  C_18 
ROOT
HETATM    1  N   UNL     1      41.452 -11.821   6.996  1.00  0.00    -0.300 N 
HETATM    2  C   UNL     1      41.581 -11.831   5.616  1.00  0.00     0.247 C 
HETATM    3  O   UNL     1      41.700 -10.835   4.914  1.00  0.00    -0.268 OA
HETATM    4  H   UNL     1      41.609 -12.694   7.477  1.00  0.00     0.171 HD
ENDROOT
BRANCH   1   5
HETATM    5  C   UNL     1      40.866 -10.847   7.768  1.00  0.00     0.179 C 
HETATM    6  N   UNL     1      41.405 -10.613   9.001  1.00  0.00    -0.331 N 
HETATM    7  H   UNL     1      40.834  -9.997   9.577  1.00  0.00     0.168 HD
HETATM    8  S   UNL     1      39.476  -9.990   7.399  1.00  0.00    -0.040 SA
BRANCH   6   9
HETATM    9  C   UNL     1      42.670 -10.868   9.575  1.00  0.00     0.061 A 
HETATM   10  C   UNL     1      42.883 -10.358  10.892  1.00  0.00     0.057 A 
HETATM   11  C   UNL     1      44.176 -10.458  11.427  1.00  0.00     0.031 A 
HETATM   12  C   UNL     1      45.211 -11.073  10.719  1.00  0.00     0.002 A 
HETATM   13  C   UNL     1      44.982 -11.578   9.445  1.00  0.00     0.002 A 
HETATM   14  C   UNL     1      43.720 -11.463   8.866  1.00  0.00     0.032 A 
BRANCH  10  15
HETATM   15  N   UNL     1      41.814  -9.771  11.600  1.00  0.00    -0.376 N 
HETATM   16  C   UNL     1      41.903  -8.360  12.029  1.00  0.00     0.150 C 
HETATM   17  C   UNL     1      42.416  -8.200  13.479  1.00  0.00     0.254 C 
HETATM   18  N   UNL     1      41.650  -9.105  14.440  1.00  0.00    -0.072 N 
HETATM   19  C   UNL     1      42.137  -8.970  15.851  1.00  0.00     0.269 C 
HETATM   20  H   UNL     1      40.666  -8.804  14.418  1.00  0.00     0.279 HD
HETATM   21  C   UNL     1      41.685 -10.557  13.967  1.00  0.00     0.254 C 
HETATM   22  C   UNL     1      41.110 -10.671  12.543  1.00  0.00     0.150 C 
ENDBRANCH  10  15
ENDBRANCH   6   9
ENDBRANCH   1   5
BRANCH   2  23
HETATM   23  C   UNL     1      41.770 -13.196   5.059  1.00  0.00     0.077 C 
HETATM   24  C   UNL     1      42.554 -13.324   3.980  1.00  0.00     0.042 C 
BRANCH  24  25
HETATM   25  C   UNL     1      42.767 -14.577   3.343  1.00  0.00     0.076 A 
HETATM   26  O   UNL     1      43.236 -15.713   3.967  1.00  0.00    -0.310 OA
HETATM   27  C   UNL     1      43.248 -16.736   3.059  1.00  0.00     0.086 A 
HETATM   28  C   UNL     1      42.838 -16.265   1.832  1.00  0.00     0.041 A 
HETATM   29  C   UNL     1      42.521 -14.901   2.016  1.00  0.00     0.040 A 
BRANCH  27  30
HETATM   30  C   UNL     1      43.655 -18.051   3.549  1.00  0.00     0.001 A 
HETATM   31  C   UNL     1      43.667 -18.347   4.919  1.00  0.00     0.038 A 
HETATM   32  C   UNL     1      44.014 -19.624   5.365  1.00  0.00     0.036 A 
HETATM   33 CL   UNL     1      44.011 -19.964   7.053  1.00  0.00    -0.084 Cl
HETATM   34  C   UNL     1      44.355 -20.627   4.463  1.00  0.00     0.047 A 
HETATM   35  C   UNL     1      44.351 -20.339   3.103  1.00  0.00     0.036 A 
HETATM   36 CL   UNL     1      44.773 -21.565   1.970  1.00  0.00    -0.084 Cl
HETATM   37  C   UNL     1      44.004 -19.066   2.644  1.00  0.00     0.038 A 
ENDBRANCH  27  30
ENDBRANCH  24  25
ENDBRANCH   2  23
TORSDOF 6
ENDMDL
MODEL 2
REMARK VINA RESULT:      -9.4      1.485      1.602
REMARK  6 active torsions:
REMARK  status: ('A' for Active; 'I' for Inactive)
REMARK    1  A    between atoms: N_6  and  C_7 
REMARK    2  A    between atoms: C_8  and  N_9 
REMARK    3  A    between atoms: C_10  and  N_11 
REMARK       I    between atoms: N_11  and  C_12 
REMARK    4  A    between atoms: C_12  and  C_13 
REMARK    5  A    between atoms: C_14  and  C_15 
REMARK    6  A    between atoms: C_17  and  C_18 
ROOT
HETATM    1  N   UNL     1      41.291 -10.475   6.546  1.00  0.00    -0.300 N 
HETATM    2  C   UNL     1      40.306 -11.448   6.600  1.00  0.00     0.247 C 
HETATM    3  O   UNL     1      39.150 -11.260   6.955  1.00  0.00    -0.268 OA
HETATM    4  H   UNL     1      42.119 -10.691   6.013  1.00  0.00     0.171 HD
ENDROOT
BRANCH   1   5
HETATM    5  C   UNL     1      41.409  -9.368   7.353  1.00  0.00     0.179 C 
HETATM    6  N   UNL     1      41.889  -9.560   8.617  1.00  0.00    -0.331 N 
HETATM    7  H   UNL     1      41.805  -8.735   9.207  1.00  0.00     0.168 HD
HETATM    8  S   UNL     1      40.910  -7.813   6.985  1.00  0.00    -0.040 SA
BRANCH   6   9
HETATM    9  C   UNL     1      42.663 -10.577   9.220  1.00  0.00     0.061 A 
HETATM   10  C   UNL     1      42.612 -10.650  10.645  1.00  0.00     0.057 A 
HETATM   11  C   UNL     1      43.485 -11.545  11.283  1.00  0.00     0.031 A 
HETATM   12  C   UNL     1      44.343 -12.369  10.551  1.00  0.00     0.002 A 
HETATM   13  C   UNL     1      44.367 -12.296   9.164  1.00  0.00     0.002 A 
HETATM   14  C   UNL     1      43.541 -11.393   8.499  1.00  0.00     0.032 A 
BRANCH  10  15
HETATM   15  N   UNL     1      41.713  -9.832  11.360  1.00  0.00    -0.376 N 
HETATM   16  C   UNL     1      42.189  -8.570  11.965  1.00  0.00     0.150 C 
HETATM   17  C   UNL     1      42.590  -8.725  13.450  1.00  0.00     0.254 C 
HETATM   18  N   UNL     1      41.500  -9.436  14.247  1.00  0.00    -0.072 N 
HETATM   19  C   UNL     1      41.874  -9.602  15.689  1.00  0.00     0.269 C 
HETATM   20  H   UNL     1      40.662  -8.841  14.208  1.00  0.00     0.279 HD
HETATM   21  C   UNL     1      41.134 -10.771  13.600  1.00  0.00     0.254 C 
HETATM   22  C   UNL     1      40.685 -10.555  12.144  1.00  0.00     0.150 C 
ENDBRANCH  10  15
ENDBRANCH   6   9
ENDBRANCH   1   5
BRANCH   2  23
HETATM   23  C   UNL     1      40.725 -12.735   5.985  1.00  0.00     0.077 C 
HETATM   24  C   UNL     1      40.293 -13.002   4.745  1.00  0.00     0.042 C 
BRANCH  24  25
HETATM   25  C   UNL     1      40.599 -14.220   4.082  1.00  0.00     0.076 A 
HETATM   26  O   UNL     1      41.650 -15.054   4.402  1.00  0.00    -0.310 OA
HETATM   27  C   UNL     1      41.591 -16.158   3.597  1.00  0.00     0.086 A 
HETATM   28  C   UNL     1      40.540 -16.030   2.718  1.00  0.00     0.041 A 
HETATM   29  C   UNL     1      39.904 -14.809   3.034  1.00  0.00     0.040 A 
BRANCH  27  30
HETATM   30  C   UNL     1      42.589 -17.200   3.830  1.00  0.00     0.001 A 
HETATM   31  C   UNL     1      43.433 -17.165   4.948  1.00  0.00     0.038 A 
HETATM   32  C   UNL     1      44.348 -18.195   5.179  1.00  0.00     0.036 A 
HETATM   33 CL   UNL     1      45.366 -18.133   6.567  1.00  0.00    -0.084 Cl
HETATM   34  C   UNL     1      44.444 -19.273   4.304  1.00  0.00     0.047 A 
HETATM   35  C   UNL     1      43.614 -19.311   3.189  1.00  0.00     0.036 A 
HETATM   36 CL   UNL     1      43.719 -20.635   2.093  1.00  0.00    -0.084 Cl
HETATM   37  C   UNL     1      42.694 -18.289   2.949  1.00  0.00     0.038 A 
ENDBRANCH  27  30
ENDBRANCH  24  25
ENDBRANCH   2  23
TORSDOF 6
ENDMDL
MODEL 3
REMARK VINA RESULT:      -9.4      5.283     10.413
REMARK  6 active torsions:
REMARK  status: ('A' for Active; 'I' for Inactive)
REMARK    1  A    between atoms: N_6  and  C_7 
REMARK    2  A    between atoms: C_8  and  N_9 
REMARK    3  A    between atoms: C_10  and  N_11 
REMARK       I    between atoms: N_11  and  C_12 
REMARK    4  A    between atoms: C_12  and  C_13 
REMARK    5  A    between atoms: C_14  and  C_15 
REMARK    6  A    between atoms: C_17  and  C_18 
ROOT
HETATM    1  N   UNL     1      43.580 -15.760   5.093  1.00  0.00    -0.300 N 
HETATM    2  C   UNL     1      43.974 -16.282   6.315  1.00  0.00     0.247 C 
HETATM    3  O   UNL     1      44.318 -17.440   6.507  1.00  0.00    -0.268 OA
HETATM    4  H   UNL     1      43.559 -14.756   5.009  1.00  0.00     0.171 HD
ENDROOT
BRANCH   1   5
HETATM    5  C   UNL     1      42.945 -16.427   4.073  1.00  0.00     0.179 C 
HETATM    6  N   UNL     1      41.627 -16.140   3.860  1.00  0.00    -0.331 N 
HETATM    7  H   UNL     1      41.181 -16.775   3.199  1.00  0.00     0.168 HD
HETATM    8  S   UNL     1      43.592 -17.650   3.131  1.00  0.00    -0.040 SA
BRANCH   6   9
HETATM    9  C   UNL     1      40.804 -15.040   4.189  1.00  0.00     0.061 A 
HETATM   10  C   UNL     1      40.577 -14.085   3.152  1.00  0.00     0.057 A 
HETATM   11  C   UNL     1      39.894 -12.907   3.490  1.00  0.00     0.031 A 
HETATM   12  C   UNL     1      39.413 -12.691   4.784  1.00  0.00     0.002 A 
HETATM   13  C   UNL     1      39.630 -13.638   5.776  1.00  0.00     0.002 A 
HETATM   14  C   UNL     1      40.336 -14.804   5.486  1.00  0.00     0.032 A 
BRANCH  10  15
HETATM   15  N   UNL     1      41.043 -14.342   1.846  1.00  0.00    -0.376 N 
HETATM   16  C   UNL     1      42.052 -13.449   1.237  1.00  0.00     0.150 C 
HETATM   17  C   UNL     1      41.428 -12.341   0.358  1.00  0.00     0.254 C 
HETATM   18  N   UNL     1      40.419 -12.920  -0.629  1.00  0.00    -0.072 N 
HETATM   19  C   UNL     1      39.797 -11.860  -1.487  1.00  0.00     0.269 C 
HETATM   20  H   UNL     1      40.936 -13.559  -1.248  1.00  0.00     0.279 HD
HETATM   21  C   UNL     1      39.363 -13.753   0.095  1.00  0.00     0.254 C 
HETATM   22  C   UNL     1      40.031 -14.877   0.907  1.00  0.00     0.150 C 
ENDBRANCH  10  15
ENDBRANCH   6   9
ENDBRANCH   1   5
BRANCH   2  23
HETATM   23  C   UNL     1      44.142 -15.242   7.364  1.00  0.00     0.077 C 
HETATM   24  C   UNL     1      44.626 -14.051   6.987  1.00  0.00     0.042 C 
BRANCH  24  25
HETATM   25  C   UNL     1      44.866 -13.002   7.916  1.00  0.00     0.076 A 
HETATM   26  O   UNL     1      43.887 -12.261   8.544  1.00  0.00    -0.310 OA
HETATM   27  C   UNL     1      44.488 -11.392   9.413  1.00  0.00     0.086 A 
HETATM   28  C   UNL     1      45.855 -11.524   9.321  1.00  0.00     0.041 A 
HETATM   29  C   UNL     1      46.093 -12.553   8.383  1.00  0.00     0.040 A 
BRANCH  27  30
HETATM   30  C   UNL     1      43.608 -10.559  10.229  1.00  0.00     0.001 A 
HETATM   31  C   UNL     1      42.407 -10.048   9.718  1.00  0.00     0.038 A 
HETATM   32  C   UNL     1      41.556  -9.292  10.528  1.00  0.00     0.036 A 
HETATM   33 CL   UNL     1      40.081  -8.685   9.879  1.00  0.00    -0.084 Cl
HETATM   34  C   UNL     1      41.882  -9.029  11.855  1.00  0.00     0.047 A 
HETATM   35  C   UNL     1      43.075  -9.527  12.367  1.00  0.00     0.036 A 
HETATM   36 CL   UNL     1      43.498  -9.211  14.005  1.00  0.00    -0.084 Cl
HETATM   37  C   UNL     1      43.932 -10.286  11.568  1.00  0.00     0.038 A 
ENDBRANCH  27  30
ENDBRANCH  24  25
ENDBRANCH   2  23
TORSDOF 6
ENDMDL
MODEL 4
REMARK VINA RESULT:      -9.2      8.257     11.259
REMARK  6 active torsions:
REMARK  status: ('A' for Active; 'I' for Inactive)
REMARK    1  A    between atoms: N_6  and  C_7 
REMARK    2  A    between atoms: C_8  and  N_9 
REMARK    3  A    between atoms: C_10  and  N_11 
REMARK       I    between atoms: N_11  and  C_12 
REMARK    4  A    between atoms: C_12  and  C_13 
REMARK    5  A    between atoms: C_14  and  C_15 
REMARK    6  A    between atoms: C_17  and  C_18 
ROOT
HETATM    1  N   UNL     1      40.958 -11.533  -1.118  1.00  0.00    -0.300 N 
HETATM    2  C   UNL     1      42.141 -11.949  -0.528  1.00  0.00     0.247 C 
HETATM    3  O   UNL     1      43.218 -11.378  -0.634  1.00  0.00    -0.268 OA
HETATM    4  H   UNL     1      40.104 -11.935  -0.764  1.00  0.00     0.171 HD
ENDROOT
BRANCH   1   5
HETATM    5  C   UNL     1      40.816 -10.859  -2.308  1.00  0.00     0.179 C 
HETATM    6  N   UNL     1      40.397 -11.578  -3.391  1.00  0.00    -0.331 N 
HETATM    7  H   UNL     1      40.463 -11.060  -4.265  1.00  0.00     0.168 HD
HETATM    8  S   UNL     1      41.220  -9.261  -2.598  1.00  0.00    -0.040 SA
BRANCH   6   9
HETATM    9  C   UNL     1      39.702 -12.799  -3.540  1.00  0.00     0.061 A 
HETATM   10  C   UNL     1      38.276 -12.717  -3.559  1.00  0.00     0.057 A 
HETATM   11  C   UNL     1      37.555 -13.922  -3.549  1.00  0.00     0.031 A 
HETATM   12  C   UNL     1      38.205 -15.158  -3.565  1.00  0.00     0.002 A 
HETATM   13  C   UNL     1      39.593 -15.218  -3.562  1.00  0.00     0.002 A 
HETATM   14  C   UNL     1      40.342 -14.043  -3.534  1.00  0.00     0.032 A 
BRANCH  10  15
HETATM   15  N   UNL     1      37.644 -11.457  -3.577  1.00  0.00    -0.376 N 
HETATM   16  C   UNL     1      37.108 -10.886  -2.323  1.00  0.00     0.150 C 
HETATM   17  C   UNL     1      35.604 -11.183  -2.117  1.00  0.00     0.254 C 
HETATM   18  N   UNL     1      34.796 -10.838  -3.365  1.00  0.00    -0.072 N 
HETATM   19  C   UNL     1      33.336 -11.126  -3.188  1.00  0.00     0.269 C 
HETATM   20  H   UNL     1      34.899  -9.826  -3.521  1.00  0.00     0.279 HD
HETATM   21  C   UNL     1      35.365 -11.542  -4.596  1.00  0.00     0.254 C 
HETATM   22  C   UNL     1      36.846 -11.167  -4.790  1.00  0.00     0.150 C 
ENDBRANCH  10  15
ENDBRANCH   6   9
ENDBRANCH   1   5
BRANCH   2  23
HETATM   23  C   UNL     1      41.950 -13.065   0.435  1.00  0.00     0.077 C 
HETATM   24  C   UNL     1      41.755 -14.293  -0.067  1.00  0.00     0.042 C 
BRANCH  24  25
HETATM   25  C   UNL     1      41.519 -15.422   0.763  1.00  0.00     0.076 A 
HETATM   26  O   UNL     1      42.475 -16.344   1.136  1.00  0.00    -0.310 OA
HETATM   27  C   UNL     1      41.900 -17.247   1.987  1.00  0.00     0.086 A 
HETATM   28  C   UNL     1      40.563 -16.953   2.133  1.00  0.00     0.041 A 
HETATM   29  C   UNL     1      40.326 -15.790   1.369  1.00  0.00     0.040 A 
BRANCH  27  30
HETATM   30  C   UNL     1      42.774 -18.274   2.550  1.00  0.00     0.001 A 
HETATM   31  C   UNL     1      42.998 -19.486   1.884  1.00  0.00     0.038 A 
HETATM   32  C   UNL     1      43.874 -20.436   2.415  1.00  0.00     0.036 A 
HETATM   33 CL   UNL     1      44.140 -21.913   1.571  1.00  0.00    -0.084 Cl
HETATM   34  C   UNL     1      44.538 -20.201   3.615  1.00  0.00     0.047 A 
HETATM   35  C   UNL     1      44.316 -19.003   4.284  1.00  0.00     0.036 A 
HETATM   36 CL   UNL     1      45.126 -18.695   5.771  1.00  0.00    -0.084 Cl
HETATM   37  C   UNL     1      43.445 -18.045   3.762  1.00  0.00     0.038 A 
ENDBRANCH  27  30
ENDBRANCH  24  25
ENDBRANCH   2  23
TORSDOF 6
ENDMDL
MODEL 5
REMARK VINA RESULT:      -8.9      8.248     10.706
REMARK  6 active torsions:
REMARK  status: ('A' for Active; 'I' for Inactive)
REMARK    1  A    between atoms: N_6  and  C_7 
REMARK    2  A    between atoms: C_8  and  N_9 
REMARK    3  A    between atoms: C_10  and  N_11 
REMARK       I    between atoms: N_11  and  C_12 
REMARK    4  A    between atoms: C_12  and  C_13 
REMARK    5  A    between atoms: C_14  and  C_15 
REMARK    6  A    between atoms: C_17  and  C_18 
ROOT
HETATM    1  N   UNL     1      42.130 -12.093  -1.273  1.00  0.00    -0.300 N 
HETATM    2  C   UNL     1      41.982 -13.309  -1.922  1.00  0.00     0.247 C 
HETATM    3  O   UNL     1      41.989 -13.463  -3.136  1.00  0.00    -0.268 OA
HETATM    4  H   UNL     1      42.353 -12.123  -0.290  1.00  0.00     0.171 HD
ENDROOT
BRANCH   1   5
HETATM    5  C   UNL     1      41.738 -10.857  -1.727  1.00  0.00     0.179 C 
HETATM    6  N   UNL     1      40.411 -10.548  -1.641  1.00  0.00    -0.331 N 
HETATM    7  H   UNL     1      40.167  -9.690  -2.133  1.00  0.00     0.168 HD
HETATM    8  S   UNL     1      42.708  -9.725  -2.491  1.00  0.00    -0.040 SA
BRANCH   6   9
HETATM    9  C   UNL     1      39.346 -11.038  -0.852  1.00  0.00     0.061 A 
HETATM   10  C   UNL     1      38.342 -11.787  -1.538  1.00  0.00     0.057 A 
HETATM   11  C   UNL     1      37.197 -12.154  -0.815  1.00  0.00     0.031 A 
HETATM   12  C   UNL     1      37.059 -11.839   0.539  1.00  0.00     0.002 A 
HETATM   13  C   UNL     1      38.054 -11.124   1.194  1.00  0.00     0.002 A 
HETATM   14  C   UNL     1      39.188 -10.710   0.499  1.00  0.00     0.032 A 
BRANCH  10  15
HETATM   15  N   UNL     1      38.519 -12.122  -2.896  1.00  0.00    -0.376 N 
HETATM   16  C   UNL     1      37.825 -11.342  -3.942  1.00  0.00     0.150 C 
HETATM   17  C   UNL     1      36.486 -11.978  -4.382  1.00  0.00     0.254 C 
HETATM   18  N   UNL     1      36.657 -13.459  -4.706  1.00  0.00    -0.072 N 
HETATM   19  C   UNL     1      35.368 -14.097  -5.129  1.00  0.00     0.269 C 
HETATM   20  H   UNL     1      37.310 -13.520  -5.500  1.00  0.00     0.279 HD
HETATM   21  C   UNL     1      37.299 -14.204  -3.538  1.00  0.00     0.254 C 
HETATM   22  C   UNL     1      38.655 -13.569  -3.178  1.00  0.00     0.150 C 
ENDBRANCH  10  15
ENDBRANCH   6   9
ENDBRANCH   1   5
BRANCH   2  23
HETATM   23  C   UNL     1      42.014 -14.470  -0.995  1.00  0.00     0.077 C 
HETATM   24  C   UNL     1      41.085 -14.523  -0.031  1.00  0.00     0.042 C 
BRANCH  24  25
HETATM   25  C   UNL     1      41.051 -15.567   0.933  1.00  0.00     0.076 A 
HETATM   26  O   UNL     1      42.081 -16.451   1.179  1.00  0.00    -0.310 OA
HETATM   27  C   UNL     1      41.716 -17.267   2.214  1.00  0.00     0.086 A 
HETATM   28  C   UNL     1      40.436 -16.957   2.613  1.00  0.00     0.041 A 
HETATM   29  C   UNL     1      40.020 -15.872   1.810  1.00  0.00     0.040 A 
BRANCH  27  30
HETATM   30  C   UNL     1      42.708 -18.237   2.672  1.00  0.00     0.001 A 
HETATM   31  C   UNL     1      43.441 -18.030   3.848  1.00  0.00     0.038 A 
HETATM   32  C   UNL     1      44.352 -18.990   4.296  1.00  0.00     0.036 A 
HETATM   33 CL   UNL     1      45.232 -18.715   5.750  1.00  0.00    -0.084 Cl
HETATM   34  C   UNL     1      44.551 -20.169   3.585  1.00  0.00     0.047 A 
HETATM   35  C   UNL     1      43.831 -20.379   2.414  1.00  0.00     0.036 A 
HETATM   36 CL   UNL     1      44.065 -21.831   1.518  1.00  0.00    -0.084 Cl
HETATM   37  C   UNL     1      42.917 -19.428   1.958  1.00  0.00     0.038 A 
ENDBRANCH  27  30
ENDBRANCH  24  25
ENDBRANCH   2  23
TORSDOF 6
ENDMDL
MODEL 6
REMARK VINA RESULT:      -8.6      6.364      9.640
REMARK  6 active torsions:
REMARK  status: ('A' for Active; 'I' for Inactive)
REMARK    1  A    between atoms: N_6  and  C_7 
REMARK    2  A    between atoms: C_8  and  N_9 
REMARK    3  A    between atoms: C_10  and  N_11 
REMARK       I    between atoms: N_11  and  C_12 
REMARK    4  A    between atoms: C_12  and  C_13 
REMARK    5  A    between atoms: C_14  and  C_15 
REMARK    6  A    between atoms: C_17  and  C_18 
ROOT
HETATM    1  N   UNL     1      40.422 -12.424   2.225  1.00  0.00    -0.300 N 
HETATM    2  C   UNL     1      41.482 -12.441   3.118  1.00  0.00     0.247 C 
HETATM    3  O   UNL     1      41.664 -11.620   4.007  1.00  0.00    -0.268 OA
HETATM    4  H   UNL     1      40.246 -13.273   1.708  1.00  0.00     0.171 HD
ENDROOT
BRANCH   1   5
HETATM    5  C   UNL     1      39.758 -11.321   1.745  1.00  0.00     0.179 C 
HETATM    6  N   UNL     1      40.217 -10.767   0.584  1.00  0.00    -0.331 N 
HETATM    7  H   UNL     1      39.783  -9.871   0.370  1.00  0.00     0.168 HD
HETATM    8  S   UNL     1      38.506 -10.507   2.504  1.00  0.00    -0.040 SA
BRANCH   6   9
HETATM    9  C   UNL     1      41.000 -11.256  -0.485  1.00  0.00     0.061 A 
HETATM   10  C   UNL     1      40.323 -12.059  -1.452  1.00  0.00     0.057 A 
HETATM   11  C   UNL     1      41.101 -12.685  -2.437  1.00  0.00     0.031 A 
HETATM   12  C   UNL     1      42.484 -12.497  -2.501  1.00  0.00     0.002 A 
HETATM   13  C   UNL     1      43.123 -11.699  -1.562  1.00  0.00     0.002 A 
HETATM   14  C   UNL     1      42.388 -11.091  -0.546  1.00  0.00     0.032 A 
BRANCH  10  15
HETATM   15  N   UNL     1      38.922 -12.207  -1.386  1.00  0.00    -0.376 N 
HETATM   16  C   UNL     1      38.336 -13.525  -1.064  1.00  0.00     0.150 C 
HETATM   17  C   UNL     1      37.954 -14.340  -2.321  1.00  0.00     0.254 C 
HETATM   18  N   UNL     1      37.130 -13.503  -3.294  1.00  0.00    -0.072 N 
HETATM   19  C   UNL     1      36.754 -14.274  -4.524  1.00  0.00     0.269 C 
HETATM   20  H   UNL     1      36.259 -13.246  -2.809  1.00  0.00     0.279 HD
HETATM   21  C   UNL     1      37.850 -12.202  -3.642  1.00  0.00     0.254 C 
HETATM   22  C   UNL     1      38.154 -11.400  -2.363  1.00  0.00     0.150 C 
ENDBRANCH  10  15
ENDBRANCH   6   9
ENDBRANCH   1   5
BRANCH   2  23
HETATM   23  C   UNL     1      42.294 -13.682   3.034  1.00  0.00     0.077 C 
HETATM   24  C   UNL     1      41.860 -14.657   2.223  1.00  0.00     0.042 C 
BRANCH  24  25
HETATM   25  C   UNL     1      42.537 -15.900   2.102  1.00  0.00     0.076 A 
HETATM   26  O   UNL     1      42.883 -16.720   3.156  1.00  0.00    -0.310 OA
HETATM   27  C   UNL     1      43.458 -17.855   2.655  1.00  0.00     0.086 A 
HETATM   28  C   UNL     1      43.538 -17.761   1.284  1.00  0.00     0.041 A 
HETATM   29  C   UNL     1      42.942 -16.530   0.934  1.00  0.00     0.040 A 
BRANCH  27  30
HETATM   30  C   UNL     1      43.837 -18.886   3.619  1.00  0.00     0.001 A 
HETATM   31  C   UNL     1      43.822 -18.635   4.998  1.00  0.00     0.038 A 
HETATM   32  C   UNL     1      44.142 -19.647   5.906  1.00  0.00     0.036 A 
HETATM   33 CL   UNL     1      44.106 -19.316   7.595  1.00  0.00    -0.084 Cl
HETATM   34  C   UNL     1      44.482 -20.922   5.463  1.00  0.00     0.047 A 
HETATM   35  C   UNL     1      44.504 -21.175   4.096  1.00  0.00     0.036 A 
HETATM   36 CL   UNL     1      44.925 -22.745   3.527  1.00  0.00    -0.084 Cl
HETATM   37  C   UNL     1      44.184 -20.173   3.178  1.00  0.00     0.038 A 
ENDBRANCH  27  30
ENDBRANCH  24  25
ENDBRANCH   2  23
TORSDOF 6
ENDMDL
MODEL 7
REMARK VINA RESULT:      -8.6      4.480     10.139
REMARK  6 active torsions:
REMARK  status: ('A' for Active; 'I' for Inactive)
REMARK    1  A    between atoms: N_6  and  C_7 
REMARK    2  A    between atoms: C_8  and  N_9 
REMARK    3  A    between atoms: C_10  and  N_11 
REMARK       I    between atoms: N_11  and  C_12 
REMARK    4  A    between atoms: C_12  and  C_13 
REMARK    5  A    between atoms: C_14  and  C_15 
REMARK    6  A    between atoms: C_17  and  C_18 
ROOT
HETATM    1  N   UNL     1      39.799 -13.893   4.639  1.00  0.00    -0.300 N 
HETATM    2  C   UNL     1      39.412 -12.566   4.745  1.00  0.00     0.247 C 
HETATM    3  O   UNL     1      38.939 -11.897   3.836  1.00  0.00    -0.268 OA
HETATM    4  H   UNL     1      39.939 -14.399   5.500  1.00  0.00     0.171 HD
ENDROOT
BRANCH   1   5
HETATM    5  C   UNL     1      40.288 -14.528   3.523  1.00  0.00     0.179 C 
HETATM    6  N   UNL     1      41.636 -14.742   3.463  1.00  0.00    -0.331 N 
HETATM    7  H   UNL     1      41.949 -15.072   2.551  1.00  0.00     0.168 HD
HETATM    8  S   UNL     1      39.413 -14.965   2.164  1.00  0.00    -0.040 SA
BRANCH   6   9
HETATM    9  C   UNL     1      42.656 -14.808   4.438  1.00  0.00     0.061 A 
HETATM   10  C   UNL     1      43.003 -16.112   4.905  1.00  0.00     0.057 A 
HETATM   11  C   UNL     1      43.900 -16.200   5.981  1.00  0.00     0.031 A 
HETATM   12  C   UNL     1      44.470 -15.058   6.548  1.00  0.00     0.002 A 
HETATM   13  C   UNL     1      44.133 -13.798   6.070  1.00  0.00     0.002 A 
HETATM   14  C   UNL     1      43.217 -13.670   5.027  1.00  0.00     0.032 A 
BRANCH  10  15
HETATM   15  N   UNL     1      42.440 -17.251   4.294  1.00  0.00    -0.376 N 
HETATM   16  C   UNL     1      42.376 -18.527   5.036  1.00  0.00     0.150 C 
HETATM   17  C   UNL     1      43.572 -19.461   4.737  1.00  0.00     0.254 C 
HETATM   18  N   UNL     1      43.793 -19.613   3.235  1.00  0.00    -0.072 N 
HETATM   19  C   UNL     1      44.953 -20.511   2.925  1.00  0.00     0.269 C 
HETATM   20  H   UNL     1      42.946 -20.053   2.849  1.00  0.00     0.279 HD
HETATM   21  C   UNL     1      43.938 -18.250   2.563  1.00  0.00     0.254 C 
HETATM   22  C   UNL     1      42.697 -17.382   2.841  1.00  0.00     0.150 C 
ENDBRANCH  10  15
ENDBRANCH   6   9
ENDBRANCH   1   5
BRANCH   2  23
HETATM   23  C   UNL     1      39.433 -12.064   6.144  1.00  0.00     0.077 C 
HETATM   24  C   UNL     1      39.734 -10.772   6.337  1.00  0.00     0.042 C 
BRANCH  24  25
HETATM   25  C   UNL     1      39.823 -10.201   7.635  1.00  0.00     0.076 A 
HETATM   26  O   UNL     1      40.853 -10.416   8.526  1.00  0.00    -0.310 OA
HETATM   27  C   UNL     1      40.633  -9.653   9.639  1.00  0.00     0.086 A 
HETATM   28  C   UNL     1      39.440  -8.979   9.504  1.00  0.00     0.041 A 
HETATM   29  C   UNL     1      38.935  -9.315   8.229  1.00  0.00     0.040 A 
BRANCH  27  30
HETATM   30  C   UNL     1      41.657  -9.691  10.681  1.00  0.00     0.001 A 
HETATM   31  C   UNL     1      41.402  -9.209  11.972  1.00  0.00     0.038 A 
HETATM   32  C   UNL     1      42.378  -9.297  12.968  1.00  0.00     0.036 A 
HETATM   33 CL   UNL     1      42.035  -8.707  14.549  1.00  0.00    -0.084 Cl
HETATM   34  C   UNL     1      43.620  -9.862  12.700  1.00  0.00     0.047 A 
HETATM   35  C   UNL     1      43.882 -10.337  11.419  1.00  0.00     0.036 A 
HETATM   36 CL   UNL     1      45.415 -11.038  11.067  1.00  0.00    -0.084 Cl
HETATM   37  C   UNL     1      42.914 -10.257  10.417  1.00  0.00     0.038 A 
ENDBRANCH  27  30
ENDBRANCH  24  25
ENDBRANCH   2  23
TORSDOF 6
ENDMDL
MODEL 8
REMARK VINA RESULT:      -8.5      5.260     11.421
REMARK  6 active torsions:
REMARK  status: ('A' for Active; 'I' for Inactive)
REMARK    1  A    between atoms: N_6  and  C_7 
REMARK    2  A    between atoms: C_8  and  N_9 
REMARK    3  A    between atoms: C_10  and  N_11 
REMARK       I    between atoms: N_11  and  C_12 
REMARK    4  A    between atoms: C_12  and  C_13 
REMARK    5  A    between atoms: C_14  and  C_15 
REMARK    6  A    between atoms: C_17  and  C_18 
ROOT
HETATM    1  N   UNL     1      41.157 -14.441   2.826  1.00  0.00    -0.300 N 
HETATM    2  C   UNL     1      42.198 -13.630   3.248  1.00  0.00     0.247 C 
HETATM    3  O   UNL     1      43.123 -13.248   2.543  1.00  0.00    -0.268 OA
HETATM    4  H   UNL     1      40.341 -14.484   3.417  1.00  0.00     0.171 HD
ENDROOT
BRANCH   1   5
HETATM    5  C   UNL     1      41.204 -15.412   1.854  1.00  0.00     0.179 C 
HETATM    6  N   UNL     1      40.207 -15.412   0.920  1.00  0.00    -0.331 N 
HETATM    7  H   UNL     1      40.214 -16.242   0.328  1.00  0.00     0.168 HD
HETATM    8  S   UNL     1      42.297 -16.676   1.762  1.00  0.00    -0.040 SA
BRANCH   6   9
HETATM    9  C   UNL     1      39.304 -14.429   0.458  1.00  0.00     0.061 A 
HETATM   10  C   UNL     1      39.789 -13.551  -0.559  1.00  0.00     0.057 A 
HETATM   11  C   UNL     1      38.975 -12.470  -0.928  1.00  0.00     0.031 A 
HETATM   12  C   UNL     1      37.715 -12.280  -0.355  1.00  0.00     0.002 A 
HETATM   13  C   UNL     1      37.253 -13.153   0.621  1.00  0.00     0.002 A 
HETATM   14  C   UNL     1      38.050 -14.217   1.039  1.00  0.00     0.032 A 
BRANCH  10  15
HETATM   15  N   UNL     1      41.050 -13.783  -1.146  1.00  0.00    -0.376 N 
HETATM   16  C   UNL     1      42.150 -12.820  -0.930  1.00  0.00     0.150 C 
HETATM   17  C   UNL     1      42.270 -11.774  -2.063  1.00  0.00     0.254 C 
HETATM   18  N   UNL     1      42.275 -12.443  -3.434  1.00  0.00    -0.072 N 
HETATM   19  C   UNL     1      42.384 -11.445  -4.548  1.00  0.00     0.269 C 
HETATM   20  H   UNL     1      43.109 -13.045  -3.472  1.00  0.00     0.279 HD
HETATM   21  C   UNL     1      41.058 -13.350  -3.605  1.00  0.00     0.254 C 
HETATM   22  C   UNL     1      41.018 -14.408  -2.488  1.00  0.00     0.150 C 
ENDBRANCH  10  15
ENDBRANCH   6   9
ENDBRANCH   1   5
BRANCH   2  23
HETATM   23  C   UNL     1      41.991 -13.080   4.613  1.00  0.00     0.077 C 
HETATM   24  C   UNL     1      41.167 -12.030   4.743  1.00  0.00     0.042 C 
BRANCH  24  25
HETATM   25  C   UNL     1      40.932 -11.402   5.995  1.00  0.00     0.076 A 
HETATM   26  O   UNL     1      41.845 -11.323   7.026  1.00  0.00    -0.310 OA
HETATM   27  C   UNL     1      41.294 -10.592   8.042  1.00  0.00     0.086 A 
HETATM   28  C   UNL     1      40.008 -10.234   7.704  1.00  0.00     0.041 A 
HETATM   29  C   UNL     1      39.785 -10.736   6.403  1.00  0.00     0.040 A 
BRANCH  27  30
HETATM   30  C   UNL     1      42.138 -10.338   9.207  1.00  0.00     0.001 A 
HETATM   31  C   UNL     1      41.741  -9.448  10.215  1.00  0.00     0.038 A 
HETATM   32  C   UNL     1      42.540  -9.253  11.344  1.00  0.00     0.036 A 
HETATM   33 CL   UNL     1      42.024  -8.162  12.572  1.00  0.00    -0.084 Cl
HETATM   34  C   UNL     1      43.743  -9.935  11.492  1.00  0.00     0.047 A 
HETATM   35  C   UNL     1      44.146 -10.815  10.494  1.00  0.00     0.036 A 
HETATM   36 CL   UNL     1      45.634 -11.666  10.657  1.00  0.00    -0.084 Cl
HETATM   37  C   UNL     1      43.355 -11.020   9.361  1.00  0.00     0.038 A 
ENDBRANCH  27  30
ENDBRANCH  24  25
ENDBRANCH   2  23
TORSDOF 6
ENDMDL
MODEL 9
REMARK VINA RESULT:      -8.4      7.189     11.280
REMARK  6 active torsions:
REMARK  status: ('A' for Active; 'I' for Inactive)
REMARK    1  A    between atoms: N_6  and  C_7 
REMARK    2  A    between atoms: C_8  and  N_9 
REMARK    3  A    between atoms: C_10  and  N_11 
REMARK       I    between atoms: N_11  and  C_12 
REMARK    4  A    between atoms: C_12  and  C_13 
REMARK    5  A    between atoms: C_14  and  C_15 
REMARK    6  A    between atoms: C_17  and  C_18 
ROOT
HETATM    1  N   UNL     1      41.284 -13.384  -0.696  1.00  0.00    -0.300 N 
HETATM    2  C   UNL     1      40.509 -13.831   0.362  1.00  0.00     0.247 C 
HETATM    3  O   UNL     1      39.312 -13.614   0.498  1.00  0.00    -0.268 OA
HETATM    4  H   UNL     1      42.181 -13.825  -0.825  1.00  0.00     0.171 HD
ENDROOT
BRANCH   1   5
HETATM    5  C   UNL     1      41.112 -12.229  -1.421  1.00  0.00     0.179 C 
HETATM    6  N   UNL     1      40.476 -12.332  -2.626  1.00  0.00    -0.331 N 
HETATM    7  H   UNL     1      40.520 -11.476  -3.176  1.00  0.00     0.168 HD
HETATM    8  S   UNL     1      41.708 -10.713  -1.032  1.00  0.00    -0.040 SA
BRANCH   6   9
HETATM    9  C   UNL     1      39.599 -13.288  -3.186  1.00  0.00     0.061 A 
HETATM   10  C   UNL     1      38.243 -12.877  -3.361  1.00  0.00     0.057 A 
HETATM   11  C   UNL     1      37.316 -13.849  -3.768  1.00  0.00     0.031 A 
HETATM   12  C   UNL     1      37.710 -15.162  -4.037  1.00  0.00     0.002 A 
HETATM   13  C   UNL     1      39.037 -15.539  -3.876  1.00  0.00     0.002 A 
HETATM   14  C   UNL     1      39.979 -14.611  -3.437  1.00  0.00     0.032 A 
BRANCH  10  15
HETATM   15  N   UNL     1      37.877 -11.538  -3.116  1.00  0.00    -0.376 N 
HETATM   16  C   UNL     1      36.849 -11.231  -2.099  1.00  0.00     0.150 C 
HETATM   17  C   UNL     1      35.431 -11.081  -2.698  1.00  0.00     0.254 C 
HETATM   18  N   UNL     1      35.434 -10.139  -3.898  1.00  0.00    -0.072 N 
HETATM   19  C   UNL     1      34.069  -9.985  -4.498  1.00  0.00     0.269 C 
HETATM   20  H   UNL     1      35.730  -9.215  -3.555  1.00  0.00     0.279 HD
HETATM   21  C   UNL     1      36.462 -10.581  -4.938  1.00  0.00     0.254 C 
HETATM   22  C   UNL     1      37.864 -10.657  -4.307  1.00  0.00     0.150 C 
ENDBRANCH  10  15
ENDBRANCH   6   9
ENDBRANCH   1   5
BRANCH   2  23
HETATM   23  C   UNL     1      41.224 -14.791   1.242  1.00  0.00     0.077 C 
HETATM   24  C   UNL     1      42.118 -15.611   0.672  1.00  0.00     0.042 C 
BRANCH  24  25
HETATM   25  C   UNL     1      42.825 -16.595   1.414  1.00  0.00     0.076 A 
HETATM   26  O   UNL     1      42.797 -16.724   2.787  1.00  0.00    -0.310 OA
HETATM   27  C   UNL     1      43.541 -17.817   3.137  1.00  0.00     0.086 A 
HETATM   28  C   UNL     1      44.097 -18.374   2.008  1.00  0.00     0.041 A 
HETATM   29  C   UNL     1      43.632 -17.609   0.916  1.00  0.00     0.040 A 
BRANCH  27  30
HETATM   30  C   UNL     1      43.580 -18.162   4.557  1.00  0.00     0.001 A 
HETATM   31  C   UNL     1      43.672 -19.495   4.980  1.00  0.00     0.038 A 
HETATM   32  C   UNL     1      43.755 -19.803   6.340  1.00  0.00     0.036 A 
HETATM   33 CL   UNL     1      43.878 -21.448   6.833  1.00  0.00    -0.084 Cl
HETATM   34  C   UNL     1      43.748 -18.797   7.301  1.00  0.00     0.047 A 
HETATM   35  C   UNL     1      43.651 -17.472   6.888  1.00  0.00     0.036 A 
HETATM   36 CL   UNL     1      43.638 -16.213   8.061  1.00  0.00    -0.084 Cl
HETATM   37  C   UNL     1      43.570 -17.152   5.531  1.00  0.00     0.038 A 
ENDBRANCH  27  30
ENDBRANCH  24  25
ENDBRANCH   2  23
TORSDOF 6
ENDMDL
MODEL 10
REMARK VINA RESULT:      -8.4      5.518      9.068
REMARK  6 active torsions:
REMARK  status: ('A' for Active; 'I' for Inactive)
REMARK    1  A    between atoms: N_6  and  C_7 
REMARK    2  A    between atoms: C_8  and  N_9 
REMARK    3  A    between atoms: C_10  and  N_11 
REMARK       I    between atoms: N_11  and  C_12 
REMARK    4  A    between atoms: C_12  and  C_13 
REMARK    5  A    between atoms: C_14  and  C_15 
REMARK    6  A    between atoms: C_17  and  C_18 
ROOT
HETATM    1  N   UNL     1      40.864 -12.552   3.557  1.00  0.00    -0.300 N 
HETATM    2  C   UNL     1      41.866 -12.786   4.485  1.00  0.00     0.247 C 
HETATM    3  O   UNL     1      42.116 -12.070   5.446  1.00  0.00    -0.268 OA
HETATM    4  H   UNL     1      40.598 -13.324   2.965  1.00  0.00     0.171 HD
ENDROOT
BRANCH   1   5
HETATM    5  C   UNL     1      40.381 -11.332   3.147  1.00  0.00     0.179 C 
HETATM    6  N   UNL     1      39.842 -11.259   1.894  1.00  0.00    -0.331 N 
HETATM    7  H   UNL     1      39.649 -10.304   1.597  1.00  0.00     0.168 HD
HETATM    8  S   UNL     1      40.491  -9.887   3.985  1.00  0.00    -0.040 SA
BRANCH   6   9
HETATM    9  C   UNL     1      39.305 -12.219   1.007  1.00  0.00     0.061 A 
HETATM   10  C   UNL     1      39.842 -12.230  -0.316  1.00  0.00     0.057 A 
HETATM   11  C   UNL     1      39.224 -13.063  -1.261  1.00  0.00     0.031 A 
HETATM   12  C   UNL     1      38.150 -13.886  -0.914  1.00  0.00     0.002 A 
HETATM   13  C   UNL     1      37.651 -13.873   0.382  1.00  0.00     0.002 A 
HETATM   14  C   UNL     1      38.215 -13.032   1.339  1.00  0.00     0.032 A 
BRANCH  10  15
HETATM   15  N   UNL     1      40.948 -11.415  -0.633  1.00  0.00    -0.376 N 
HETATM   16  C   UNL     1      40.739 -10.135  -1.342  1.00  0.00     0.150 C 
HETATM   17  C   UNL     1      40.908 -10.258  -2.874  1.00  0.00     0.254 C 
HETATM   18  N   UNL     1      42.207 -10.974  -3.232  1.00  0.00    -0.072 N 
HETATM   19  C   UNL     1      42.387 -11.109  -4.714  1.00  0.00     0.269 C 
HETATM   20  H   UNL     1      42.979 -10.393  -2.875  1.00  0.00     0.279 HD
HETATM   21  C   UNL     1      42.299 -12.325  -2.526  1.00  0.00     0.254 C 
HETATM   22  C   UNL     1      42.184 -12.142  -1.002  1.00  0.00     0.150 C 
ENDBRANCH  10  15
ENDBRANCH   6   9
ENDBRANCH   1   5
BRANCH   2  23
HETATM   23  C   UNL     1      42.504 -14.120   4.328  1.00  0.00     0.077 C 
HETATM   24  C   UNL     1      42.565 -14.639   3.094  1.00  0.00     0.042 C 
BRANCH  24  25
HETATM   25  C   UNL     1      43.115 -15.924   2.840  1.00  0.00     0.076 A 
HETATM   26  O   UNL     1      43.338 -16.894   3.795  1.00  0.00    -0.310 OA
HETATM   27  C   UNL     1      43.811 -18.017   3.174  1.00  0.00     0.086 A 
HETATM   28  C   UNL     1      43.946 -17.773   1.826  1.00  0.00     0.041 A 
HETATM   29  C   UNL     1      43.493 -16.453   1.613  1.00  0.00     0.040 A 
BRANCH  27  30
HETATM   30  C   UNL     1      44.047 -19.188   4.016  1.00  0.00     0.001 A 
HETATM   31  C   UNL     1      43.855 -19.140   5.403  1.00  0.00     0.038 A 
HETATM   32  C   UNL     1      44.041 -20.282   6.185  1.00  0.00     0.036 A 
HETATM   33 CL   UNL     1      43.788 -20.198   7.886  1.00  0.00    -0.084 Cl
HETATM   34  C   UNL     1      44.422 -21.488   5.606  1.00  0.00     0.047 A 
HETATM   35  C   UNL     1      44.620 -21.542   4.230  1.00  0.00     0.036 A 
HETATM   36 CL   UNL     1      45.094 -23.024   3.495  1.00  0.00    -0.084 Cl
HETATM   37  C   UNL     1      44.435 -20.407   3.438  1.00  0.00     0.038 A 
ENDBRANCH  27  30
ENDBRANCH  24  25
ENDBRANCH   2  23
TORSDOF 6
ENDMDL
