MODEL 1
REMARK VINA RESULT:      -9.3      0.000      0.000
REMARK  6 active torsions:
REMARK  status: ('A' for Active; 'I' for Inactive)
REMARK    1  A    between atoms: C_5  and  N_6 
REMARK    2  A    between atoms: C_17  and  C_29 
REMARK    3  A    between atoms: C_17  and  N_18 
REMARK       I    between atoms: N_18  and  C_19 
REMARK    4  A    between atoms: C_19  and  C_20 
REMARK    5  A    between atoms: C_20  and  C_21 
REMARK    6  A    between atoms: C_21  and  C_22 
ROOT
HETATM    1  N   UNL     1      43.554 -14.869   6.482  1.00  0.00    -0.248 N 
HETATM    2  C   UNL     1      43.292 -16.099   7.134  1.00  0.00     0.335 A 
HETATM    3  O   UNL     1      43.654 -16.423   8.265  1.00  0.00    -0.246 OA
HETATM    4  N   UNL     1      42.501 -16.993   6.441  1.00  0.00    -0.274 N 
HETATM    5  C   UNL     1      41.873 -16.785   5.248  1.00  0.00     0.262 A 
HETATM    6  O   UNL     1      41.103 -17.584   4.735  1.00  0.00    -0.267 OA
HETATM    7  C   UNL     1      42.206 -15.530   4.613  1.00  0.00     0.101 A 
HETATM    8  C   UNL     1      43.012 -14.664   5.226  1.00  0.00     0.134 A 
HETATM    9  N   UNL     1      43.243 -13.621   4.382  1.00  0.00    -0.309 N 
HETATM   10  C   UNL     1      42.590 -13.787   3.163  1.00  0.00     0.266 A 
HETATM   11  O   UNL     1      42.699 -13.035   2.208  1.00  0.00    -0.270 OA
HETATM   12  C   UNL     1      41.753 -15.076   3.260  1.00  0.00     0.249 A 
HETATM   13  H   UNL     1      42.289 -17.852   6.928  1.00  0.00     0.173 HD
HETATM   14  H   UNL     1      43.929 -12.891   4.526  1.00  0.00     0.170 HD
ENDROOT
BRANCH  12  15
HETATM   15  C   UNL     1      40.296 -14.597   3.273  1.00  0.00     0.426 C 
HETATM   16  F   UNL     1      39.775 -14.559   4.524  1.00  0.00    -0.167 F 
HETATM   17  F   UNL     1      40.154 -13.364   2.736  1.00  0.00    -0.167 F 
HETATM   18  F   UNL     1      39.505 -15.424   2.546  1.00  0.00    -0.167 F 
ENDBRANCH  12  15
BRANCH  12  19
HETATM   19  N   UNL     1      42.043 -16.069   2.204  1.00  0.00    -0.332 N 
HETATM   20  C   UNL     1      43.315 -16.491   1.919  1.00  0.00     0.219 C 
HETATM   21  O   UNL     1      44.299 -16.006   2.473  1.00  0.00    -0.274 OA
HETATM   22  H   UNL     1      41.295 -16.734   2.034  1.00  0.00     0.164 HD
BRANCH  20  23
HETATM   23  C   UNL     1      43.464 -17.648   0.945  1.00  0.00     0.107 C 
BRANCH  23  24
HETATM   24  C   UNL     1      42.750 -18.954   1.306  1.00  0.00     0.047 C 
BRANCH  24  25
HETATM   25  C   UNL     1      43.486 -19.884   2.248  1.00  0.00    -0.058 A 
HETATM   26  C   UNL     1      43.723 -21.211   1.858  1.00  0.00     0.007 A 
HETATM   27  C   UNL     1      44.407 -22.091   2.699  1.00  0.00     0.001 A 
HETATM   28  C   UNL     1      44.869 -21.655   3.938  1.00  0.00     0.000 A 
HETATM   29  C   UNL     1      44.659 -20.337   4.329  1.00  0.00     0.001 A 
HETATM   30  C   UNL     1      43.983 -19.452   3.486  1.00  0.00     0.007 A 
ENDBRANCH  24  25
ENDBRANCH  23  24
ENDBRANCH  20  23
ENDBRANCH  12  19
BRANCH   1  31
HETATM   31  C   UNL     1      44.317 -13.867   7.184  1.00  0.00     0.045 A 
HETATM   32  C   UNL     1      45.687 -13.694   6.941  1.00  0.00     0.031 A 
HETATM   33  C   UNL     1      46.430 -12.730   7.632  1.00  0.00     0.009 A 
HETATM   34  C   UNL     1      45.825 -11.924   8.598  1.00  0.00    -0.062 A 
HETATM   35  C   UNL     1      46.617 -10.878   9.325  1.00  0.00     0.048 C 
HETATM   36  C   UNL     1      44.459 -12.079   8.843  1.00  0.00     0.009 A 
HETATM   37  C   UNL     1      43.717 -13.044   8.151  1.00  0.00     0.031 A 
ENDBRANCH   1  31
TORSDOF 6
ENDMDL
MODEL 2
REMARK VINA RESULT:      -9.0      1.667      7.985
REMARK  6 active torsions:
REMARK  status: ('A' for Active; 'I' for Inactive)
REMARK    1  A    between atoms: C_5  and  N_6 
REMARK    2  A    between atoms: C_17  and  C_29 
REMARK    3  A    between atoms: C_17  and  N_18 
REMARK       I    between atoms: N_18  and  C_19 
REMARK    4  A    between atoms: C_19  and  C_20 
REMARK    5  A    between atoms: C_20  and  C_21 
REMARK    6  A    between atoms: C_21  and  C_22 
ROOT
HETATM    1  N   UNL     1      43.642 -17.405   3.329  1.00  0.00    -0.248 N 
HETATM    2  C   UNL     1      43.894 -16.522   2.250  1.00  0.00     0.335 A 
HETATM    3  O   UNL     1      44.350 -16.820   1.147  1.00  0.00    -0.246 OA
HETATM    4  N   UNL     1      43.532 -15.204   2.451  1.00  0.00    -0.274 N 
HETATM    5  C   UNL     1      42.879 -14.685   3.530  1.00  0.00     0.262 A 
HETATM    6  O   UNL     1      42.498 -13.525   3.602  1.00  0.00    -0.267 OA
HETATM    7  C   UNL     1      42.682 -15.622   4.612  1.00  0.00     0.101 A 
HETATM    8  C   UNL     1      43.069 -16.890   4.478  1.00  0.00     0.134 A 
HETATM    9  N   UNL     1      42.865 -17.530   5.662  1.00  0.00    -0.309 N 
HETATM   10  C   UNL     1      42.340 -16.675   6.628  1.00  0.00     0.266 A 
HETATM   11  O   UNL     1      42.141 -16.980   7.793  1.00  0.00    -0.270 OA
HETATM   12  C   UNL     1      42.091 -15.313   5.953  1.00  0.00     0.249 A 
HETATM   13  H   UNL     1      43.682 -14.589   1.664  1.00  0.00     0.173 HD
HETATM   14  H   UNL     1      43.199 -18.456   5.893  1.00  0.00     0.170 HD
ENDROOT
BRANCH  12  15
HETATM   15  C   UNL     1      40.564 -15.179   5.890  1.00  0.00     0.426 C 
HETATM   16  F   UNL     1      40.117 -14.058   6.507  1.00  0.00    -0.167 F 
HETATM   17  F   UNL     1      40.101 -15.158   4.620  1.00  0.00    -0.167 F 
HETATM   18  F   UNL     1      39.958 -16.228   6.500  1.00  0.00    -0.167 F 
ENDBRANCH  12  15
BRANCH  12  19
HETATM   19  N   UNL     1      42.761 -14.176   6.618  1.00  0.00    -0.332 N 
HETATM   20  C   UNL     1      44.079 -14.211   6.990  1.00  0.00     0.219 C 
HETATM   21  O   UNL     1      44.761 -15.226   6.864  1.00  0.00    -0.274 OA
HETATM   22  H   UNL     1      42.381 -13.264   6.378  1.00  0.00     0.164 HD
BRANCH  20  23
HETATM   23  C   UNL     1      44.697 -12.918   7.492  1.00  0.00     0.107 C 
BRANCH  23  24
HETATM   24  C   UNL     1      44.995 -12.828   8.991  1.00  0.00     0.047 C 
BRANCH  24  25
HETATM   25  C   UNL     1      44.282 -11.731   9.754  1.00  0.00    -0.058 A 
HETATM   26  C   UNL     1      43.186 -11.083   9.162  1.00  0.00     0.007 A 
HETATM   27  C   UNL     1      42.502 -10.074   9.843  1.00  0.00     0.001 A 
HETATM   28  C   UNL     1      42.898  -9.704  11.125  1.00  0.00     0.000 A 
HETATM   29  C   UNL     1      43.970 -10.351  11.731  1.00  0.00     0.001 A 
HETATM   30  C   UNL     1      44.651 -11.367  11.056  1.00  0.00     0.007 A 
ENDBRANCH  24  25
ENDBRANCH  23  24
ENDBRANCH  20  23
ENDBRANCH  12  19
BRANCH   1  31
HETATM   31  C   UNL     1      43.934 -18.806   3.153  1.00  0.00     0.045 A 
HETATM   32  C   UNL     1      43.355 -19.543   2.110  1.00  0.00     0.031 A 
HETATM   33  C   UNL     1      43.628 -20.906   1.948  1.00  0.00     0.009 A 
HETATM   34  C   UNL     1      44.476 -21.572   2.835  1.00  0.00    -0.062 A 
HETATM   35  C   UNL     1      44.784 -23.028   2.649  1.00  0.00     0.048 C 
HETATM   36  C   UNL     1      45.067 -20.847   3.871  1.00  0.00     0.009 A 
HETATM   37  C   UNL     1      44.793 -19.483   4.033  1.00  0.00     0.031 A 
ENDBRANCH   1  31
TORSDOF 6
ENDMDL
MODEL 3
REMARK VINA RESULT:      -9.0      4.389      8.114
REMARK  6 active torsions:
REMARK  status: ('A' for Active; 'I' for Inactive)
REMARK    1  A    between atoms: C_5  and  N_6 
REMARK    2  A    between atoms: C_17  and  C_29 
REMARK    3  A    between atoms: C_17  and  N_18 
REMARK       I    between atoms: N_18  and  C_19 
REMARK    4  A    between atoms: C_19  and  C_20 
REMARK    5  A    between atoms: C_20  and  C_21 
REMARK    6  A    between atoms: C_21  and  C_22 
ROOT
HETATM    1  N   UNL     1      39.795 -13.268  -1.708  1.00  0.00    -0.248 N 
HETATM    2  C   UNL     1      40.875 -12.467  -2.152  1.00  0.00     0.335 A 
HETATM    3  O   UNL     1      40.980 -11.916  -3.247  1.00  0.00    -0.246 OA
HETATM    4  N   UNL     1      41.880 -12.245  -1.231  1.00  0.00    -0.274 N 
HETATM    5  C   UNL     1      41.899 -12.630   0.077  1.00  0.00     0.262 A 
HETATM    6  O   UNL     1      42.775 -12.314   0.868  1.00  0.00    -0.267 OA
HETATM    7  C   UNL     1      40.790 -13.474   0.462  1.00  0.00     0.101 A 
HETATM    8  C   UNL     1      39.829 -13.758  -0.416  1.00  0.00     0.134 A 
HETATM    9  N   UNL     1      38.968 -14.641   0.161  1.00  0.00    -0.309 N 
HETATM   10  C   UNL     1      39.359 -14.975   1.455  1.00  0.00     0.266 A 
HETATM   11  O   UNL     1      38.804 -15.805   2.157  1.00  0.00    -0.270 OA
HETATM   12  C   UNL     1      40.599 -14.129   1.795  1.00  0.00     0.249 A 
HETATM   13  H   UNL     1      42.628 -11.643  -1.544  1.00  0.00     0.173 HD
HETATM   14  H   UNL     1      38.229 -15.138  -0.319  1.00  0.00     0.170 HD
ENDROOT
BRANCH  12  15
HETATM   15  C   UNL     1      40.116 -13.134   2.859  1.00  0.00     0.426 C 
HETATM   16  F   UNL     1      41.085 -12.264   3.232  1.00  0.00    -0.167 F 
HETATM   17  F   UNL     1      39.055 -12.408   2.441  1.00  0.00    -0.167 F 
HETATM   18  F   UNL     1      39.718 -13.779   3.984  1.00  0.00    -0.167 F 
ENDBRANCH  12  15
BRANCH  12  19
HETATM   19  N   UNL     1      41.777 -14.918   2.211  1.00  0.00    -0.332 N 
HETATM   20  C   UNL     1      42.233 -15.995   1.497  1.00  0.00     0.219 C 
HETATM   21  O   UNL     1      41.636 -16.416   0.507  1.00  0.00    -0.274 OA
HETATM   22  H   UNL     1      42.472 -14.395   2.736  1.00  0.00     0.164 HD
BRANCH  20  23
HETATM   23  C   UNL     1      43.556 -16.606   1.923  1.00  0.00     0.107 C 
BRANCH  23  24
HETATM   24  C   UNL     1      43.550 -17.452   3.200  1.00  0.00     0.047 C 
BRANCH  24  25
HETATM   25  C   UNL     1      43.827 -18.930   3.028  1.00  0.00    -0.058 A 
HETATM   26  C   UNL     1      44.486 -19.630   4.051  1.00  0.00     0.007 A 
HETATM   27  C   UNL     1      44.748 -20.996   3.927  1.00  0.00     0.001 A 
HETATM   28  C   UNL     1      44.348 -21.683   2.783  1.00  0.00     0.000 A 
HETATM   29  C   UNL     1      43.677 -21.006   1.770  1.00  0.00     0.001 A 
HETATM   30  C   UNL     1      43.407 -19.641   1.895  1.00  0.00     0.007 A 
ENDBRANCH  24  25
ENDBRANCH  23  24
ENDBRANCH  20  23
ENDBRANCH  12  19
BRANCH   1  31
HETATM   31  C   UNL     1      38.682 -13.478  -2.602  1.00  0.00     0.045 A 
HETATM   32  C   UNL     1      37.690 -12.502  -2.769  1.00  0.00     0.031 A 
HETATM   33  C   UNL     1      36.603 -12.711  -3.626  1.00  0.00     0.009 A 
HETATM   34  C   UNL     1      36.473 -13.912  -4.327  1.00  0.00    -0.062 A 
HETATM   35  C   UNL     1      35.319 -14.129  -5.261  1.00  0.00     0.048 C 
HETATM   36  C   UNL     1      37.460 -14.888  -4.178  1.00  0.00     0.009 A 
HETATM   37  C   UNL     1      38.546 -14.677  -3.319  1.00  0.00     0.031 A 
ENDBRANCH   1  31
TORSDOF 6
ENDMDL
MODEL 4
REMARK VINA RESULT:      -8.9      2.794      6.196
REMARK  6 active torsions:
REMARK  status: ('A' for Active; 'I' for Inactive)
REMARK    1  A    between atoms: C_5  and  N_6 
REMARK    2  A    between atoms: C_17  and  C_29 
REMARK    3  A    between atoms: C_17  and  N_18 
REMARK       I    between atoms: N_18  and  C_19 
REMARK    4  A    between atoms: C_19  and  C_20 
REMARK    5  A    between atoms: C_20  and  C_21 
REMARK    6  A    between atoms: C_21  and  C_22 
ROOT
HETATM    1  N   UNL     1      40.541 -14.510   1.384  1.00  0.00    -0.248 N 
HETATM    2  C   UNL     1      41.216 -15.185   0.338  1.00  0.00     0.335 A 
HETATM    3  O   UNL     1      40.883 -15.226  -0.846  1.00  0.00    -0.246 OA
HETATM    4  N   UNL     1      42.397 -15.810   0.686  1.00  0.00    -0.274 N 
HETATM    5  C   UNL     1      43.026 -15.768   1.896  1.00  0.00     0.262 A 
HETATM    6  O   UNL     1      44.123 -16.262   2.110  1.00  0.00    -0.267 OA
HETATM    7  C   UNL     1      42.274 -15.098   2.932  1.00  0.00     0.101 A 
HETATM    8  C   UNL     1      41.102 -14.530   2.648  1.00  0.00     0.134 A 
HETATM    9  N   UNL     1      40.560 -14.061   3.806  1.00  0.00    -0.309 N 
HETATM   10  C   UNL     1      41.374 -14.327   4.903  1.00  0.00     0.266 A 
HETATM   11  O   UNL     1      41.081 -14.083   6.062  1.00  0.00    -0.270 OA
HETATM   12  C   UNL     1      42.662 -14.986   4.374  1.00  0.00     0.249 A 
HETATM   13  H   UNL     1      42.890 -16.258  -0.073  1.00  0.00     0.173 HD
HETATM   14  H   UNL     1      39.615 -13.715   3.912  1.00  0.00     0.170 HD
ENDROOT
BRANCH  12  15
HETATM   15  C   UNL     1      43.758 -13.936   4.594  1.00  0.00     0.426 C 
HETATM   16  F   UNL     1      44.497 -14.183   5.703  1.00  0.00    -0.167 F 
HETATM   17  F   UNL     1      44.610 -13.854   3.547  1.00  0.00    -0.167 F 
HETATM   18  F   UNL     1      43.224 -12.699   4.749  1.00  0.00    -0.167 F 
ENDBRANCH  12  15
BRANCH  12  19
HETATM   19  N   UNL     1      42.965 -16.298   4.982  1.00  0.00    -0.332 N 
HETATM   20  C   UNL     1      42.049 -17.315   5.036  1.00  0.00     0.219 C 
HETATM   21  O   UNL     1      40.890 -17.165   4.653  1.00  0.00    -0.274 OA
HETATM   22  H   UNL     1      43.943 -16.571   4.931  1.00  0.00     0.164 HD
BRANCH  20  23
HETATM   23  C   UNL     1      42.538 -18.671   5.514  1.00  0.00     0.107 C 
BRANCH  23  24
HETATM   24  C   UNL     1      43.961 -19.075   5.114  1.00  0.00     0.047 C 
BRANCH  24  25
HETATM   25  C   UNL     1      44.083 -20.096   4.003  1.00  0.00    -0.058 A 
HETATM   26  C   UNL     1      43.678 -19.751   2.704  1.00  0.00     0.007 A 
HETATM   27  C   UNL     1      43.786 -20.667   1.656  1.00  0.00     0.001 A 
HETATM   28  C   UNL     1      44.308 -21.937   1.889  1.00  0.00     0.000 A 
HETATM   29  C   UNL     1      44.732 -22.285   3.167  1.00  0.00     0.001 A 
HETATM   30  C   UNL     1      44.632 -21.368   4.216  1.00  0.00     0.007 A 
ENDBRANCH  24  25
ENDBRANCH  23  24
ENDBRANCH  20  23
ENDBRANCH  12  19
BRANCH   1  31
HETATM   31  C   UNL     1      39.338 -13.780   1.068  1.00  0.00     0.045 A 
HETATM   32  C   UNL     1      38.090 -14.417   1.034  1.00  0.00     0.031 A 
HETATM   33  C   UNL     1      36.924 -13.713   0.714  1.00  0.00     0.009 A 
HETATM   34  C   UNL     1      36.978 -12.352   0.403  1.00  0.00    -0.062 A 
HETATM   35  C   UNL     1      35.727 -11.592   0.079  1.00  0.00     0.048 C 
HETATM   36  C   UNL     1      38.214 -11.703   0.444  1.00  0.00     0.009 A 
HETATM   37  C   UNL     1      39.380 -12.410   0.763  1.00  0.00     0.031 A 
ENDBRANCH   1  31
TORSDOF 6
ENDMDL
MODEL 5
REMARK VINA RESULT:      -8.6      3.671      7.230
REMARK  6 active torsions:
REMARK  status: ('A' for Active; 'I' for Inactive)
REMARK    1  A    between atoms: C_5  and  N_6 
REMARK    2  A    between atoms: C_17  and  C_29 
REMARK    3  A    between atoms: C_17  and  N_18 
REMARK       I    between atoms: N_18  and  C_19 
REMARK    4  A    between atoms: C_19  and  C_20 
REMARK    5  A    between atoms: C_20  and  C_21 
REMARK    6  A    between atoms: C_21  and  C_22 
ROOT
HETATM    1  N   UNL     1      41.540 -16.537   2.660  1.00  0.00    -0.248 N 
HETATM    2  C   UNL     1      40.544 -16.897   1.720  1.00  0.00     0.335 A 
HETATM    3  O   UNL     1      40.381 -18.004   1.209  1.00  0.00    -0.246 OA
HETATM    4  N   UNL     1      39.634 -15.909   1.395  1.00  0.00    -0.274 N 
HETATM    5  C   UNL     1      39.537 -14.666   1.948  1.00  0.00     0.262 A 
HETATM    6  O   UNL     1      38.644 -13.873   1.687  1.00  0.00    -0.267 OA
HETATM    7  C   UNL     1      40.600 -14.342   2.872  1.00  0.00     0.101 A 
HETATM    8  C   UNL     1      41.529 -15.250   3.168  1.00  0.00     0.134 A 
HETATM    9  N   UNL     1      42.460 -14.667   3.972  1.00  0.00    -0.309 N 
HETATM   10  C   UNL     1      42.164 -13.329   4.219  1.00  0.00     0.266 A 
HETATM   11  O   UNL     1      42.880 -12.562   4.844  1.00  0.00    -0.270 OA
HETATM   12  C   UNL     1      40.811 -13.024   3.550  1.00  0.00     0.249 A 
HETATM   13  H   UNL     1      38.906 -16.185   0.753  1.00  0.00     0.173 HD
HETATM   14  H   UNL     1      43.348 -15.075   4.233  1.00  0.00     0.170 HD
ENDROOT
BRANCH  12  15
HETATM   15  C   UNL     1      39.835 -12.815   4.715  1.00  0.00     0.426 C 
HETATM   16  F   UNL     1      39.426 -13.985   5.263  1.00  0.00    -0.167 F 
HETATM   17  F   UNL     1      40.370 -12.066   5.707  1.00  0.00    -0.167 F 
HETATM   18  F   UNL     1      38.719 -12.164   4.305  1.00  0.00    -0.167 F 
ENDBRANCH  12  15
BRANCH  12  19
HETATM   19  N   UNL     1      40.847 -11.896   2.595  1.00  0.00    -0.332 N 
HETATM   20  C   UNL     1      41.735 -11.840   1.554  1.00  0.00     0.219 C 
HETATM   21  O   UNL     1      42.611 -12.690   1.402  1.00  0.00    -0.274 OA
HETATM   22  H   UNL     1      39.953 -11.434   2.455  1.00  0.00     0.164 HD
BRANCH  20  23
HETATM   23  C   UNL     1      41.549 -10.727   0.537  1.00  0.00     0.107 C 
BRANCH  23  24
HETATM   24  C   UNL     1      42.765 -10.358  -0.317  1.00  0.00     0.047 C 
BRANCH  24  25
HETATM   25  C   UNL     1      42.644 -10.612  -1.804  1.00  0.00    -0.058 A 
HETATM   26  C   UNL     1      42.470 -11.926  -2.266  1.00  0.00     0.007 A 
HETATM   27  C   UNL     1      42.346 -12.192  -3.631  1.00  0.00     0.001 A 
HETATM   28  C   UNL     1      42.386 -11.149  -4.553  1.00  0.00     0.000 A 
HETATM   29  C   UNL     1      42.539  -9.840  -4.108  1.00  0.00     0.001 A 
HETATM   30  C   UNL     1      42.655  -9.570  -2.743  1.00  0.00     0.007 A 
ENDBRANCH  24  25
ENDBRANCH  23  24
ENDBRANCH  20  23
ENDBRANCH  12  19
BRANCH   1  31
HETATM   31  C   UNL     1      42.476 -17.546   3.090  1.00  0.00     0.045 A 
HETATM   32  C   UNL     1      43.408 -18.099   2.201  1.00  0.00     0.031 A 
HETATM   33  C   UNL     1      44.308 -19.087   2.614  1.00  0.00     0.009 A 
HETATM   34  C   UNL     1      44.288 -19.562   3.927  1.00  0.00    -0.062 A 
HETATM   35  C   UNL     1      45.265 -20.607   4.377  1.00  0.00     0.048 C 
HETATM   36  C   UNL     1      43.372 -19.012   4.826  1.00  0.00     0.009 A 
HETATM   37  C   UNL     1      42.472 -18.023   4.410  1.00  0.00     0.031 A 
ENDBRANCH   1  31
TORSDOF 6
ENDMDL
MODEL 6
REMARK VINA RESULT:      -8.5      4.957      7.575
REMARK  6 active torsions:
REMARK  status: ('A' for Active; 'I' for Inactive)
REMARK    1  A    between atoms: C_5  and  N_6 
REMARK    2  A    between atoms: C_17  and  C_29 
REMARK    3  A    between atoms: C_17  and  N_18 
REMARK       I    between atoms: N_18  and  C_19 
REMARK    4  A    between atoms: C_19  and  C_20 
REMARK    5  A    between atoms: C_20  and  C_21 
REMARK    6  A    between atoms: C_21  and  C_22 
ROOT
HETATM    1  N   UNL     1      41.709 -11.470  -1.395  1.00  0.00    -0.248 N 
HETATM    2  C   UNL     1      42.585 -11.068  -0.357  1.00  0.00     0.335 A 
HETATM    3  O   UNL     1      43.453 -10.198  -0.424  1.00  0.00    -0.246 OA
HETATM    4  N   UNL     1      42.398 -11.685   0.864  1.00  0.00    -0.274 N 
HETATM    5  C   UNL     1      41.409 -12.561   1.201  1.00  0.00     0.262 A 
HETATM    6  O   UNL     1      41.239 -12.995   2.332  1.00  0.00    -0.267 OA
HETATM    7  C   UNL     1      40.569 -12.962   0.095  1.00  0.00     0.101 A 
HETATM    8  C   UNL     1      40.755 -12.432  -1.113  1.00  0.00     0.134 A 
HETATM    9  N   UNL     1      39.910 -13.046  -1.987  1.00  0.00    -0.309 N 
HETATM   10  C   UNL     1      39.142 -14.024  -1.362  1.00  0.00     0.266 A 
HETATM   11  O   UNL     1      38.367 -14.772  -1.936  1.00  0.00    -0.270 OA
HETATM   12  C   UNL     1      39.475 -13.983   0.141  1.00  0.00     0.249 A 
HETATM   13  H   UNL     1      43.002 -11.366   1.607  1.00  0.00     0.173 HD
HETATM   14  H   UNL     1      39.935 -12.946  -2.993  1.00  0.00     0.170 HD
ENDROOT
BRANCH  12  15
HETATM   15  C   UNL     1      38.206 -13.435   0.809  1.00  0.00     0.426 C 
HETATM   16  F   UNL     1      38.420 -13.055   2.092  1.00  0.00    -0.167 F 
HETATM   17  F   UNL     1      37.695 -12.372   0.148  1.00  0.00    -0.167 F 
HETATM   18  F   UNL     1      37.227 -14.373   0.838  1.00  0.00    -0.167 F 
ENDBRANCH  12  15
BRANCH  12  19
HETATM   19  N   UNL     1      39.929 -15.275   0.698  1.00  0.00    -0.332 N 
HETATM   20  C   UNL     1      40.927 -16.015   0.122  1.00  0.00     0.219 C 
HETATM   21  O   UNL     1      41.450 -15.684  -0.941  1.00  0.00    -0.274 OA
HETATM   22  H   UNL     1      39.822 -15.361   1.705  1.00  0.00     0.164 HD
BRANCH  20  23
HETATM   23  C   UNL     1      41.430 -17.226   0.889  1.00  0.00     0.107 C 
BRANCH  23  24
HETATM   24  C   UNL     1      42.948 -17.401   0.991  1.00  0.00     0.047 C 
BRANCH  24  25
HETATM   25  C   UNL     1      43.448 -18.305   2.098  1.00  0.00    -0.058 A 
HETATM   26  C   UNL     1      43.847 -19.615   1.789  1.00  0.00     0.007 A 
HETATM   27  C   UNL     1      44.321 -20.470   2.786  1.00  0.00     0.001 A 
HETATM   28  C   UNL     1      44.411 -20.026   4.102  1.00  0.00     0.000 A 
HETATM   29  C   UNL     1      44.037 -18.724   4.419  1.00  0.00     0.001 A 
HETATM   30  C   UNL     1      43.571 -17.864   3.423  1.00  0.00     0.007 A 
ENDBRANCH  24  25
ENDBRANCH  23  24
ENDBRANCH  20  23
ENDBRANCH  12  19
BRANCH   1  31
HETATM   31  C   UNL     1      41.810 -10.813  -2.674  1.00  0.00     0.045 A 
HETATM   32  C   UNL     1      42.453 -11.428  -3.758  1.00  0.00     0.031 A 
HETATM   33  C   UNL     1      42.564 -10.784  -4.996  1.00  0.00     0.009 A 
HETATM   34  C   UNL     1      42.047  -9.500  -5.178  1.00  0.00    -0.062 A 
HETATM   35  C   UNL     1      42.147  -8.818  -6.510  1.00  0.00     0.048 C 
HETATM   36  C   UNL     1      41.394  -8.881  -4.110  1.00  0.00     0.009 A 
HETATM   37  C   UNL     1      41.285  -9.526  -2.872  1.00  0.00     0.031 A 
ENDBRANCH   1  31
TORSDOF 6
ENDMDL
MODEL 7
REMARK VINA RESULT:      -8.4      4.678      8.407
REMARK  6 active torsions:
REMARK  status: ('A' for Active; 'I' for Inactive)
REMARK    1  A    between atoms: C_5  and  N_6 
REMARK    2  A    between atoms: C_17  and  C_29 
REMARK    3  A    between atoms: C_17  and  N_18 
REMARK       I    between atoms: N_18  and  C_19 
REMARK    4  A    between atoms: C_19  and  C_20 
REMARK    5  A    between atoms: C_20  and  C_21 
REMARK    6  A    between atoms: C_21  and  C_22 
ROOT
HETATM    1  N   UNL     1      42.106 -15.011   0.988  1.00  0.00    -0.248 N 
HETATM    2  C   UNL     1      42.115 -14.064   2.041  1.00  0.00     0.335 A 
HETATM    3  O   UNL     1      42.417 -14.275   3.216  1.00  0.00    -0.246 OA
HETATM    4  N   UNL     1      41.806 -12.765   1.689  1.00  0.00    -0.274 N 
HETATM    5  C   UNL     1      41.587 -12.283   0.433  1.00  0.00     0.262 A 
HETATM    6  O   UNL     1      41.416 -11.099   0.178  1.00  0.00    -0.267 OA
HETATM    7  C   UNL     1      41.553 -13.298  -0.596  1.00  0.00     0.101 A 
HETATM    8  C   UNL     1      41.791 -14.572  -0.286  1.00  0.00     0.134 A 
HETATM    9  N   UNL     1      41.601 -15.328  -1.402  1.00  0.00    -0.309 N 
HETATM   10  C   UNL     1      41.213 -14.554  -2.492  1.00  0.00     0.266 A 
HETATM   11  O   UNL     1      40.903 -14.998  -3.586  1.00  0.00    -0.270 OA
HETATM   12  C   UNL     1      41.234 -13.081  -2.042  1.00  0.00     0.249 A 
HETATM   13  H   UNL     1      41.851 -12.091   2.440  1.00  0.00     0.173 HD
HETATM   14  H   UNL     1      41.571 -16.339  -1.426  1.00  0.00     0.170 HD
ENDROOT
BRANCH  12  15
HETATM   15  C   UNL     1      42.411 -12.456  -2.802  1.00  0.00     0.426 C 
HETATM   16  F   UNL     1      42.741 -11.230  -2.328  1.00  0.00    -0.167 F 
HETATM   17  F   UNL     1      43.523 -13.224  -2.752  1.00  0.00    -0.167 F 
HETATM   18  F   UNL     1      42.115 -12.299  -4.116  1.00  0.00    -0.167 F 
ENDBRANCH  12  15
BRANCH  12  19
HETATM   19  N   UNL     1      39.954 -12.368  -2.238  1.00  0.00    -0.332 N 
HETATM   20  C   UNL     1      38.753 -12.886  -1.832  1.00  0.00     0.219 C 
HETATM   21  O   UNL     1      38.661 -14.014  -1.352  1.00  0.00    -0.274 OA
HETATM   22  H   UNL     1      40.033 -11.355  -2.247  1.00  0.00     0.164 HD
BRANCH  20  23
HETATM   23  C   UNL     1      37.537 -11.979  -1.920  1.00  0.00     0.107 C 
BRANCH  23  24
HETATM   24  C   UNL     1      36.764 -11.729  -0.622  1.00  0.00     0.047 C 
BRANCH  24  25
HETATM   25  C   UNL     1      37.580 -11.272   0.569  1.00  0.00    -0.058 A 
HETATM   26  C   UNL     1      38.029  -9.943   0.626  1.00  0.00     0.007 A 
HETATM   27  C   UNL     1      38.776  -9.487   1.714  1.00  0.00     0.001 A 
HETATM   28  C   UNL     1      39.077 -10.351   2.764  1.00  0.00     0.000 A 
HETATM   29  C   UNL     1      38.623 -11.665   2.730  1.00  0.00     0.001 A 
HETATM   30  C   UNL     1      37.868 -12.121   1.646  1.00  0.00     0.007 A 
ENDBRANCH  24  25
ENDBRANCH  23  24
ENDBRANCH  20  23
ENDBRANCH  12  19
BRANCH   1  31
HETATM   31  C   UNL     1      42.488 -16.370   1.281  1.00  0.00     0.045 A 
HETATM   32  C   UNL     1      41.524 -17.366   1.492  1.00  0.00     0.031 A 
HETATM   33  C   UNL     1      41.894 -18.683   1.789  1.00  0.00     0.009 A 
HETATM   34  C   UNL     1      43.241 -19.034   1.900  1.00  0.00    -0.062 A 
HETATM   35  C   UNL     1      43.639 -20.449   2.199  1.00  0.00     0.048 C 
HETATM   36  C   UNL     1      44.211 -18.054   1.681  1.00  0.00     0.009 A 
HETATM   37  C   UNL     1      43.839 -16.737   1.384  1.00  0.00     0.031 A 
ENDBRANCH   1  31
TORSDOF 6
ENDMDL
MODEL 8
REMARK VINA RESULT:      -8.3      3.058      4.179
REMARK  6 active torsions:
REMARK  status: ('A' for Active; 'I' for Inactive)
REMARK    1  A    between atoms: C_5  and  N_6 
REMARK    2  A    between atoms: C_17  and  C_29 
REMARK    3  A    between atoms: C_17  and  N_18 
REMARK       I    between atoms: N_18  and  C_19 
REMARK    4  A    between atoms: C_19  and  C_20 
REMARK    5  A    between atoms: C_20  and  C_21 
REMARK    6  A    between atoms: C_21  and  C_22 
ROOT
HETATM    1  N   UNL     1      40.646 -12.540   6.245  1.00  0.00    -0.248 N 
HETATM    2  C   UNL     1      39.439 -12.974   5.644  1.00  0.00     0.335 A 
HETATM    3  O   UNL     1      38.324 -12.475   5.791  1.00  0.00    -0.246 OA
HETATM    4  N   UNL     1      39.550 -14.029   4.760  1.00  0.00    -0.274 N 
HETATM    5  C   UNL     1      40.698 -14.632   4.337  1.00  0.00     0.262 A 
HETATM    6  O   UNL     1      40.735 -15.497   3.475  1.00  0.00    -0.267 OA
HETATM    7  C   UNL     1      41.892 -14.174   5.011  1.00  0.00     0.101 A 
HETATM    8  C   UNL     1      41.818 -13.195   5.912  1.00  0.00     0.134 A 
HETATM    9  N   UNL     1      43.050 -13.025   6.465  1.00  0.00    -0.309 N 
HETATM   10  C   UNL     1      43.981 -13.916   5.937  1.00  0.00     0.266 A 
HETATM   11  O   UNL     1      45.135 -14.024   6.320  1.00  0.00    -0.270 OA
HETATM   12  C   UNL     1      43.274 -14.721   4.831  1.00  0.00     0.249 A 
HETATM   13  H   UNL     1      38.691 -14.308   4.309  1.00  0.00     0.173 HD
HETATM   14  H   UNL     1      43.256 -12.453   7.274  1.00  0.00     0.170 HD
ENDROOT
BRANCH  12  15
HETATM   15  C   UNL     1      43.916 -14.237   3.524  1.00  0.00     0.426 C 
HETATM   16  F   UNL     1      43.230 -13.215   2.957  1.00  0.00    -0.167 F 
HETATM   17  F   UNL     1      45.192 -13.824   3.699  1.00  0.00    -0.167 F 
HETATM   18  F   UNL     1      43.960 -15.233   2.605  1.00  0.00    -0.167 F 
ENDBRANCH  12  15
BRANCH  12  19
HETATM   19  N   UNL     1      43.331 -16.186   5.014  1.00  0.00    -0.332 N 
HETATM   20  C   UNL     1      43.115 -16.786   6.227  1.00  0.00     0.219 C 
HETATM   21  O   UNL     1      42.940 -16.130   7.253  1.00  0.00    -0.274 OA
HETATM   22  H   UNL     1      43.080 -16.725   4.190  1.00  0.00     0.164 HD
BRANCH  20  23
HETATM   23  C   UNL     1      43.016 -18.301   6.248  1.00  0.00     0.107 C 
BRANCH  23  24
HETATM   24  C   UNL     1      44.300 -19.084   5.961  1.00  0.00     0.047 C 
BRANCH  24  25
HETATM   25  C   UNL     1      44.308 -19.924   4.701  1.00  0.00    -0.058 A 
HETATM   26  C   UNL     1      44.668 -21.279   4.781  1.00  0.00     0.007 A 
HETATM   27  C   UNL     1      44.676 -22.083   3.639  1.00  0.00     0.001 A 
HETATM   28  C   UNL     1      44.317 -21.547   2.405  1.00  0.00     0.000 A 
HETATM   29  C   UNL     1      43.940 -20.211   2.315  1.00  0.00     0.001 A 
HETATM   30  C   UNL     1      43.922 -19.407   3.457  1.00  0.00     0.007 A 
ENDBRANCH  24  25
ENDBRANCH  23  24
ENDBRANCH  20  23
ENDBRANCH  12  19
BRANCH   1  31
HETATM   31  C   UNL     1      40.604 -11.397   7.124  1.00  0.00     0.045 A 
HETATM   32  C   UNL     1      41.237 -10.194   6.781  1.00  0.00     0.031 A 
HETATM   33  C   UNL     1      41.208  -9.089   7.639  1.00  0.00     0.009 A 
HETATM   34  C   UNL     1      40.558  -9.164   8.873  1.00  0.00    -0.062 A 
HETATM   35  C   UNL     1      40.510  -7.974   9.785  1.00  0.00     0.048 C 
HETATM   36  C   UNL     1      39.915 -10.353   9.222  1.00  0.00     0.009 A 
HETATM   37  C   UNL     1      39.945 -11.458   8.362  1.00  0.00     0.031 A 
ENDBRANCH   1  31
TORSDOF 6
ENDMDL
MODEL 9
REMARK VINA RESULT:      -8.3      3.873      6.761
REMARK  6 active torsions:
REMARK  status: ('A' for Active; 'I' for Inactive)
REMARK    1  A    between atoms: C_5  and  N_6 
REMARK    2  A    between atoms: C_17  and  C_29 
REMARK    3  A    between atoms: C_17  and  N_18 
REMARK       I    between atoms: N_18  and  C_19 
REMARK    4  A    between atoms: C_19  and  C_20 
REMARK    5  A    between atoms: C_20  and  C_21 
REMARK    6  A    between atoms: C_21  and  C_22 
ROOT
HETATM    1  N   UNL     1      41.306 -15.894   2.396  1.00  0.00    -0.248 N 
HETATM    2  C   UNL     1      40.776 -16.449   1.206  1.00  0.00     0.335 A 
HETATM    3  O   UNL     1      40.828 -17.629   0.859  1.00  0.00    -0.246 OA
HETATM    4  N   UNL     1      40.083 -15.578   0.389  1.00  0.00    -0.274 N 
HETATM    5  C   UNL     1      39.776 -14.274   0.648  1.00  0.00     0.262 A 
HETATM    6  O   UNL     1      39.071 -13.584  -0.074  1.00  0.00    -0.267 OA
HETATM    7  C   UNL     1      40.374 -13.752   1.856  1.00  0.00     0.101 A 
HETATM    8  C   UNL     1      41.098 -14.549   2.643  1.00  0.00     0.134 A 
HETATM    9  N   UNL     1      41.624 -13.796   3.648  1.00  0.00    -0.309 N 
HETATM   10  C   UNL     1      41.262 -12.457   3.536  1.00  0.00     0.266 A 
HETATM   11  O   UNL     1      41.666 -11.564   4.263  1.00  0.00    -0.270 OA
HETATM   12  C   UNL     1      40.299 -12.337   2.340  1.00  0.00     0.249 A 
HETATM   13  H   UNL     1      39.677 -15.990  -0.438  1.00  0.00     0.173 HD
HETATM   14  H   UNL     1      42.328 -14.107   4.305  1.00  0.00     0.170 HD
ENDROOT
BRANCH  12  15
HETATM   15  C   UNL     1      38.936 -12.016   2.964  1.00  0.00     0.426 C 
HETATM   16  F   UNL     1      37.902 -12.390   2.171  1.00  0.00    -0.167 F 
HETATM   17  F   UNL     1      38.765 -12.613   4.165  1.00  0.00    -0.167 F 
HETATM   18  F   UNL     1      38.800 -10.683   3.179  1.00  0.00    -0.167 F 
ENDBRANCH  12  15
BRANCH  12  19
HETATM   19  N   UNL     1      40.727 -11.365   1.312  1.00  0.00    -0.332 N 
HETATM   20  C   UNL     1      41.931 -11.458   0.665  1.00  0.00     0.219 C 
HETATM   21  O   UNL     1      42.763 -12.313   0.962  1.00  0.00    -0.274 OA
HETATM   22  H   UNL     1      39.965 -10.937   0.794  1.00  0.00     0.164 HD
BRANCH  20  23
HETATM   23  C   UNL     1      42.172 -10.511  -0.498  1.00  0.00     0.107 C 
BRANCH  23  24
HETATM   24  C   UNL     1      42.646 -11.137  -1.814  1.00  0.00     0.047 C 
BRANCH  24  25
HETATM   25  C   UNL     1      41.730 -12.168  -2.436  1.00  0.00    -0.058 A 
HETATM   26  C   UNL     1      42.138 -13.510  -2.489  1.00  0.00     0.007 A 
HETATM   27  C   UNL     1      41.312 -14.487  -3.048  1.00  0.00     0.001 A 
HETATM   28  C   UNL     1      40.063 -14.138  -3.556  1.00  0.00     0.000 A 
HETATM   29  C   UNL     1      39.637 -12.815  -3.493  1.00  0.00     0.001 A 
HETATM   30  C   UNL     1      40.458 -11.838  -2.926  1.00  0.00     0.007 A 
ENDBRANCH  24  25
ENDBRANCH  23  24
ENDBRANCH  20  23
ENDBRANCH  12  19
BRANCH   1  31
HETATM   31  C   UNL     1      41.981 -16.769   3.323  1.00  0.00     0.045 A 
HETATM   32  C   UNL     1      43.324 -17.127   3.138  1.00  0.00     0.031 A 
HETATM   33  C   UNL     1      43.975 -17.987   4.029  1.00  0.00     0.009 A 
HETATM   34  C   UNL     1      43.294 -18.525   5.123  1.00  0.00    -0.062 A 
HETATM   35  C   UNL     1      43.996 -19.431   6.091  1.00  0.00     0.048 C 
HETATM   36  C   UNL     1      41.959 -18.167   5.325  1.00  0.00     0.009 A 
HETATM   37  C   UNL     1      41.309 -17.307   4.432  1.00  0.00     0.031 A 
ENDBRANCH   1  31
TORSDOF 6
ENDMDL
MODEL 10
REMARK VINA RESULT:      -8.3      2.521      3.292
REMARK  6 active torsions:
REMARK  status: ('A' for Active; 'I' for Inactive)
REMARK    1  A    between atoms: C_5  and  N_6 
REMARK    2  A    between atoms: C_17  and  C_29 
REMARK    3  A    between atoms: C_17  and  N_18 
REMARK       I    between atoms: N_18  and  C_19 
REMARK    4  A    between atoms: C_19  and  C_20 
REMARK    5  A    between atoms: C_20  and  C_21 
REMARK    6  A    between atoms: C_21  and  C_22 
ROOT
HETATM    1  N   UNL     1      42.937 -12.960   6.639  1.00  0.00    -0.248 N 
HETATM    2  C   UNL     1      44.171 -13.271   7.262  1.00  0.00     0.335 A 
HETATM    3  O   UNL     1      44.858 -12.516   7.949  1.00  0.00    -0.246 OA
HETATM    4  N   UNL     1      44.606 -14.574   7.122  1.00  0.00    -0.274 N 
HETATM    5  C   UNL     1      43.937 -15.607   6.535  1.00  0.00     0.262 A 
HETATM    6  O   UNL     1      44.335 -16.763   6.534  1.00  0.00    -0.267 OA
HETATM    7  C   UNL     1      42.703 -15.223   5.886  1.00  0.00     0.101 A 
HETATM    8  C   UNL     1      42.278 -13.962   5.951  1.00  0.00     0.134 A 
HETATM    9  N   UNL     1      41.160 -13.846   5.182  1.00  0.00    -0.309 N 
HETATM   10  C   UNL     1      40.825 -15.051   4.571  1.00  0.00     0.266 A 
HETATM   11  O   UNL     1      39.915 -15.196   3.770  1.00  0.00    -0.270 OA
HETATM   12  C   UNL     1      41.814 -16.117   5.079  1.00  0.00     0.249 A 
HETATM   13  H   UNL     1      45.467 -14.796   7.600  1.00  0.00     0.173 HD
HETATM   14  H   UNL     1      40.710 -12.976   4.931  1.00  0.00     0.170 HD
ENDROOT
BRANCH  12  15
HETATM   15  C   UNL     1      40.972 -17.042   5.967  1.00  0.00     0.426 C 
HETATM   16  F   UNL     1      40.539 -18.143   5.304  1.00  0.00    -0.167 F 
HETATM   17  F   UNL     1      41.648 -17.464   7.059  1.00  0.00    -0.167 F 
HETATM   18  F   UNL     1      39.866 -16.404   6.425  1.00  0.00    -0.167 F 
ENDBRANCH  12  15
BRANCH  12  19
HETATM   19  N   UNL     1      42.546 -16.825   4.008  1.00  0.00    -0.332 N 
HETATM   20  C   UNL     1      43.237 -16.165   3.027  1.00  0.00     0.219 C 
HETATM   21  O   UNL     1      43.221 -14.939   2.934  1.00  0.00    -0.274 OA
HETATM   22  H   UNL     1      42.895 -17.743   4.271  1.00  0.00     0.164 HD
BRANCH  20  23
HETATM   23  C   UNL     1      44.099 -17.001   2.097  1.00  0.00     0.107 C 
BRANCH  23  24
HETATM   24  C   UNL     1      43.490 -18.305   1.572  1.00  0.00     0.047 C 
BRANCH  24  25
HETATM   25  C   UNL     1      43.904 -19.575   2.284  1.00  0.00    -0.058 A 
HETATM   26  C   UNL     1      43.768 -20.808   1.626  1.00  0.00     0.007 A 
HETATM   27  C   UNL     1      44.150 -21.997   2.252  1.00  0.00     0.001 A 
HETATM   28  C   UNL     1      44.680 -21.969   3.539  1.00  0.00     0.000 A 
HETATM   29  C   UNL     1      44.839 -20.753   4.195  1.00  0.00     0.001 A 
HETATM   30  C   UNL     1      44.465 -19.562   3.568  1.00  0.00     0.007 A 
ENDBRANCH  24  25
ENDBRANCH  23  24
ENDBRANCH  20  23
ENDBRANCH  12  19
BRANCH   1  31
HETATM   31  C   UNL     1      42.397 -11.633   6.808  1.00  0.00     0.045 A 
HETATM   32  C   UNL     1      42.298 -11.045   8.077  1.00  0.00     0.031 A 
HETATM   33  C   UNL     1      41.762  -9.763   8.243  1.00  0.00     0.009 A 
HETATM   34  C   UNL     1      41.294  -9.041   7.143  1.00  0.00    -0.062 A 
HETATM   35  C   UNL     1      40.737  -7.659   7.317  1.00  0.00     0.048 C 
HETATM   36  C   UNL     1      41.396  -9.611   5.872  1.00  0.00     0.009 A 
HETATM   37  C   UNL     1      41.933 -10.894   5.708  1.00  0.00     0.031 A 
ENDBRANCH   1  31
TORSDOF 6
ENDMDL
