MODEL 1
REMARK VINA RESULT:      -8.6      0.000      0.000
REMARK  7 active torsions:
REMARK  status: ('A' for Active; 'I' for Inactive)
REMARK    1  A    between atoms: S_2  and  C_3 
REMARK    2  A    between atoms: C_6  and  C_7 
REMARK    3  A    between atoms: N_8  and  C_9 
REMARK    4  A    between atoms: C_9  and  C_10 
REMARK    5  A    between atoms: C_10  and  C_11 
REMARK    6  A    between atoms: C_24  and  C_25 
REMARK    7  A    between atoms: C_26  and  O_27 
ROOT
HETATM    1  C   UNL     1      42.154 -17.481   5.207  1.00  0.00     0.159 A 
HETATM    2  N   UNL     1      42.210 -16.335   6.148  1.00  0.00    -0.333 N 
HETATM    3  C   UNL     1      43.444 -16.205   6.812  1.00  0.00     0.275 A 
HETATM    4  O   UNL     1      43.772 -15.336   7.604  1.00  0.00    -0.266 OA
HETATM    5  C   UNL     1      44.238 -17.306   6.311  1.00  0.00     0.155 A 
HETATM    6  C   UNL     1      43.517 -18.039   5.367  1.00  0.00     0.034 A 
HETATM    7  N   UNL     1      45.485 -17.739   6.473  1.00  0.00    -0.168 NA
HETATM    8  N   UNL     1      45.538 -18.792   5.619  1.00  0.00    -0.276 N 
HETATM    9  H   UNL     1      46.403 -19.319   5.554  1.00  0.00     0.189 HD
HETATM   10  C   UNL     1      44.383 -18.986   4.879  1.00  0.00     0.074 A 
ENDROOT
BRANCH   1  11
HETATM   11  C   UNL     1      41.995 -17.131   3.748  1.00  0.00    -0.031 A 
HETATM   12  C   UNL     1      40.940 -17.615   2.956  1.00  0.00     0.011 A 
HETATM   13  C   UNL     1      40.808 -17.217   1.622  1.00  0.00     0.019 A 
HETATM   14  C   UNL     1      41.722 -16.325   1.058  1.00  0.00    -0.000 A 
HETATM   15  C   UNL     1      42.788 -15.858   1.825  1.00  0.00     0.019 A 
HETATM   16  C   UNL     1      42.923 -16.255   3.157  1.00  0.00     0.011 A 
BRANCH  14  17
HETATM   17  S   UNL     1      41.517 -15.799  -0.632  1.00  0.00    -0.134 SA
HETATM   18  C   UNL     1      41.831 -14.028  -0.415  1.00  0.00     0.095 C 
ENDBRANCH  14  17
ENDBRANCH   1  11
BRANCH   2  19
HETATM   19  C   UNL     1      41.166 -15.328   6.269  1.00  0.00     0.132 C 
BRANCH  19  20
HETATM   20  C   UNL     1      41.497 -13.934   5.721  1.00  0.00     0.058 C 
BRANCH  20  21
HETATM   21  C   UNL     1      40.878 -13.543   4.399  1.00  0.00    -0.057 A 
HETATM   22  C   UNL     1      39.833 -14.265   3.806  1.00  0.00     0.007 A 
HETATM   23  C   UNL     1      39.282 -13.851   2.592  1.00  0.00     0.001 A 
HETATM   24  C   UNL     1      39.757 -12.702   1.962  1.00  0.00     0.000 A 
HETATM   25  C   UNL     1      40.779 -11.963   2.548  1.00  0.00     0.001 A 
HETATM   26  C   UNL     1      41.333 -12.377   3.760  1.00  0.00     0.007 A 
ENDBRANCH  20  21
ENDBRANCH  19  20
ENDBRANCH   2  19
BRANCH  10  27
HETATM   27  C   UNL     1      44.262 -19.984   3.828  1.00  0.00     0.026 A 
HETATM   28  C   UNL     1      44.595 -21.330   4.046  1.00  0.00     0.078 A 
HETATM   29  C   UNL     1      44.429 -22.285   3.047  1.00  0.00     0.037 A 
HETATM   30  C   UNL     1      43.955 -21.899   1.795  1.00  0.00     0.003 A 
HETATM   31  C   UNL     1      43.642 -20.563   1.551  1.00  0.00     0.001 A 
HETATM   32  C   UNL     1      43.791 -19.610   2.562  1.00  0.00     0.016 A 
BRANCH  28  33
HETATM   33  O   UNL     1      45.124 -21.768   5.230  1.00  0.00    -0.360 OA
HETATM   34  H   UNL     1      44.380 -22.040   5.799  1.00  0.00     0.217 HD
ENDBRANCH  28  33
ENDBRANCH  10  27
TORSDOF 7
ENDMDL
MODEL 2
REMARK VINA RESULT:      -8.1      2.314      7.196
REMARK  7 active torsions:
REMARK  status: ('A' for Active; 'I' for Inactive)
REMARK    1  A    between atoms: S_2  and  C_3 
REMARK    2  A    between atoms: C_6  and  C_7 
REMARK    3  A    between atoms: N_8  and  C_9 
REMARK    4  A    between atoms: C_9  and  C_10 
REMARK    5  A    between atoms: C_10  and  C_11 
REMARK    6  A    between atoms: C_24  and  C_25 
REMARK    7  A    between atoms: C_26  and  O_27 
ROOT
HETATM    1  C   UNL     1      41.854 -15.282   3.262  1.00  0.00     0.159 A 
HETATM    2  N   UNL     1      42.038 -16.753   3.307  1.00  0.00    -0.333 N 
HETATM    3  C   UNL     1      41.596 -17.346   4.504  1.00  0.00     0.275 A 
HETATM    4  O   UNL     1      41.595 -18.533   4.788  1.00  0.00    -0.266 OA
HETATM    5  C   UNL     1      41.111 -16.235   5.294  1.00  0.00     0.155 A 
HETATM    6  C   UNL     1      41.232 -15.039   4.584  1.00  0.00     0.034 A 
HETATM    7  N   UNL     1      40.525 -16.087   6.479  1.00  0.00    -0.168 NA
HETATM    8  N   UNL     1      40.293 -14.750   6.520  1.00  0.00    -0.276 N 
HETATM    9  H   UNL     1      39.848 -14.362   7.347  1.00  0.00     0.189 HD
HETATM   10  C   UNL     1      40.654 -14.072   5.368  1.00  0.00     0.074 A 
ENDROOT
BRANCH   1  11
HETATM   11  C   UNL     1      40.887 -14.768   2.224  1.00  0.00    -0.031 A 
HETATM   12  C   UNL     1      39.561 -15.221   2.124  1.00  0.00     0.011 A 
HETATM   13  C   UNL     1      38.689 -14.674   1.178  1.00  0.00     0.019 A 
HETATM   14  C   UNL     1      39.123 -13.660   0.321  1.00  0.00    -0.000 A 
HETATM   15  C   UNL     1      40.444 -13.220   0.392  1.00  0.00     0.019 A 
HETATM   16  C   UNL     1      41.317 -13.767   1.335  1.00  0.00     0.011 A 
BRANCH  14  17
HETATM   17  S   UNL     1      37.988 -12.948  -0.853  1.00  0.00    -0.134 SA
HETATM   18  C   UNL     1      38.252 -14.096  -2.231  1.00  0.00     0.095 C 
ENDBRANCH  14  17
ENDBRANCH   1  11
BRANCH   2  19
HETATM   19  C   UNL     1      42.476 -17.554   2.172  1.00  0.00     0.132 C 
BRANCH  19  20
HETATM   20  C   UNL     1      43.923 -18.063   2.216  1.00  0.00     0.058 C 
BRANCH  20  21
HETATM   21  C   UNL     1      44.137 -19.514   2.584  1.00  0.00    -0.057 A 
HETATM   22  C   UNL     1      44.661 -19.914   3.821  1.00  0.00     0.007 A 
HETATM   23  C   UNL     1      44.822 -21.269   4.120  1.00  0.00     0.001 A 
HETATM   24  C   UNL     1      44.448 -22.241   3.195  1.00  0.00     0.000 A 
HETATM   25  C   UNL     1      43.907 -21.860   1.971  1.00  0.00     0.001 A 
HETATM   26  C   UNL     1      43.748 -20.507   1.669  1.00  0.00     0.007 A 
ENDBRANCH  20  21
ENDBRANCH  19  20
ENDBRANCH   2  19
BRANCH  10  27
HETATM   27  C   UNL     1      40.391 -12.657   5.154  1.00  0.00     0.026 A 
HETATM   28  C   UNL     1      41.082 -11.662   5.863  1.00  0.00     0.078 A 
HETATM   29  C   UNL     1      40.856 -10.311   5.615  1.00  0.00     0.037 A 
HETATM   30  C   UNL     1      39.904  -9.932   4.671  1.00  0.00     0.003 A 
HETATM   31  C   UNL     1      39.189 -10.906   3.975  1.00  0.00     0.001 A 
HETATM   32  C   UNL     1      39.433 -12.261   4.212  1.00  0.00     0.016 A 
BRANCH  28  33
HETATM   33  O   UNL     1      41.986 -11.961   6.847  1.00  0.00    -0.360 OA
HETATM   34  H   UNL     1      42.874 -11.769   6.495  1.00  0.00     0.217 HD
ENDBRANCH  28  33
ENDBRANCH  10  27
TORSDOF 7
ENDMDL
MODEL 3
REMARK VINA RESULT:      -7.9      2.876      6.325
REMARK  7 active torsions:
REMARK  status: ('A' for Active; 'I' for Inactive)
REMARK    1  A    between atoms: S_2  and  C_3 
REMARK    2  A    between atoms: C_6  and  C_7 
REMARK    3  A    between atoms: N_8  and  C_9 
REMARK    4  A    between atoms: C_9  and  C_10 
REMARK    5  A    between atoms: C_10  and  C_11 
REMARK    6  A    between atoms: C_24  and  C_25 
REMARK    7  A    between atoms: C_26  and  O_27 
ROOT
HETATM    1  C   UNL     1      43.219 -14.103   3.309  1.00  0.00     0.159 A 
HETATM    2  N   UNL     1      43.269 -13.665   4.725  1.00  0.00    -0.333 N 
HETATM    3  C   UNL     1      42.110 -12.991   5.154  1.00  0.00     0.275 A 
HETATM    4  O   UNL     1      41.872 -12.560   6.271  1.00  0.00    -0.266 OA
HETATM    5  C   UNL     1      41.260 -12.964   3.984  1.00  0.00     0.155 A 
HETATM    6  C   UNL     1      41.874 -13.621   2.916  1.00  0.00     0.034 A 
HETATM    7  N   UNL     1      40.032 -12.537   3.702  1.00  0.00    -0.168 NA
HETATM    8  N   UNL     1      39.883 -12.920   2.409  1.00  0.00    -0.276 N 
HETATM    9  H   UNL     1      39.011 -12.701   1.937  1.00  0.00     0.189 HD
HETATM   10  C   UNL     1      40.955 -13.632   1.897  1.00  0.00     0.074 A 
ENDROOT
BRANCH   1  11
HETATM   11  C   UNL     1      43.232 -15.594   3.077  1.00  0.00    -0.031 A 
HETATM   12  C   UNL     1      42.381 -16.481   3.757  1.00  0.00     0.011 A 
HETATM   13  C   UNL     1      42.396 -17.848   3.467  1.00  0.00     0.019 A 
HETATM   14  C   UNL     1      43.255 -18.353   2.488  1.00  0.00    -0.000 A 
HETATM   15  C   UNL     1      44.123 -17.487   1.825  1.00  0.00     0.019 A 
HETATM   16  C   UNL     1      44.111 -16.121   2.114  1.00  0.00     0.011 A 
BRANCH  14  17
HETATM   17  S   UNL     1      43.234 -20.093   2.104  1.00  0.00    -0.134 SA
HETATM   18  C   UNL     1      44.681 -20.609   3.066  1.00  0.00     0.095 C 
ENDBRANCH  14  17
ENDBRANCH   1  11
BRANCH   2  19
HETATM   19  C   UNL     1      44.329 -14.029   5.654  1.00  0.00     0.132 C 
BRANCH  19  20
HETATM   20  C   UNL     1      43.900 -14.798   6.910  1.00  0.00     0.058 C 
BRANCH  20  21
HETATM   21  C   UNL     1      43.951 -16.308   6.851  1.00  0.00    -0.057 A 
HETATM   22  C   UNL     1      42.925 -17.123   7.348  1.00  0.00     0.007 A 
HETATM   23  C   UNL     1      43.011 -18.513   7.251  1.00  0.00     0.001 A 
HETATM   24  C   UNL     1      44.116 -19.107   6.645  1.00  0.00     0.000 A 
HETATM   25  C   UNL     1      45.133 -18.312   6.128  1.00  0.00     0.001 A 
HETATM   26  C   UNL     1      45.050 -16.922   6.226  1.00  0.00     0.007 A 
ENDBRANCH  20  21
ENDBRANCH  19  20
ENDBRANCH   2  19
BRANCH  10  27
HETATM   27  C   UNL     1      40.960 -14.234   0.572  1.00  0.00     0.026 A 
HETATM   28  C   UNL     1      40.899 -13.453  -0.593  1.00  0.00     0.078 A 
HETATM   29  C   UNL     1      40.953 -14.037  -1.856  1.00  0.00     0.037 A 
HETATM   30  C   UNL     1      41.035 -15.423  -1.972  1.00  0.00     0.003 A 
HETATM   31  C   UNL     1      41.071 -16.217  -0.827  1.00  0.00     0.001 A 
HETATM   32  C   UNL     1      41.037 -15.626   0.439  1.00  0.00     0.016 A 
BRANCH  28  33
HETATM   33  O   UNL     1      40.755 -12.092  -0.553  1.00  0.00    -0.360 OA
HETATM   34  H   UNL     1      40.414 -11.809  -1.421  1.00  0.00     0.217 HD
ENDBRANCH  28  33
ENDBRANCH  10  27
TORSDOF 7
ENDMDL
MODEL 4
REMARK VINA RESULT:      -7.8      3.832      8.224
REMARK  7 active torsions:
REMARK  status: ('A' for Active; 'I' for Inactive)
REMARK    1  A    between atoms: S_2  and  C_3 
REMARK    2  A    between atoms: C_6  and  C_7 
REMARK    3  A    between atoms: N_8  and  C_9 
REMARK    4  A    between atoms: C_9  and  C_10 
REMARK    5  A    between atoms: C_10  and  C_11 
REMARK    6  A    between atoms: C_24  and  C_25 
REMARK    7  A    between atoms: C_26  and  O_27 
ROOT
HETATM    1  C   UNL     1      40.415 -15.076   1.929  1.00  0.00     0.159 A 
HETATM    2  N   UNL     1      40.835 -15.945   0.802  1.00  0.00    -0.333 N 
HETATM    3  C   UNL     1      40.897 -15.280  -0.437  1.00  0.00     0.275 A 
HETATM    4  O   UNL     1      41.246 -15.742  -1.511  1.00  0.00    -0.266 OA
HETATM    5  C   UNL     1      40.492 -13.924  -0.134  1.00  0.00     0.155 A 
HETATM    6  C   UNL     1      40.232 -13.783   1.230  1.00  0.00     0.034 A 
HETATM    7  N   UNL     1      40.379 -12.785  -0.812  1.00  0.00    -0.168 NA
HETATM    8  N   UNL     1      40.013 -11.908   0.157  1.00  0.00    -0.276 N 
HETATM    9  H   UNL     1      39.850 -10.940  -0.103  1.00  0.00     0.189 HD
HETATM   10  C   UNL     1      39.962 -12.452   1.430  1.00  0.00     0.074 A 
ENDROOT
BRANCH   1  11
HETATM   11  C   UNL     1      41.445 -14.847   3.007  1.00  0.00    -0.031 A 
HETATM   12  C   UNL     1      42.720 -14.319   2.746  1.00  0.00     0.011 A 
HETATM   13  C   UNL     1      43.620 -14.076   3.788  1.00  0.00     0.019 A 
HETATM   14  C   UNL     1      43.260 -14.350   5.110  1.00  0.00    -0.000 A 
HETATM   15  C   UNL     1      42.007 -14.900   5.379  1.00  0.00     0.019 A 
HETATM   16  C   UNL     1      41.107 -15.144   4.340  1.00  0.00     0.011 A 
BRANCH  14  17
HETATM   17  S   UNL     1      44.404 -14.000   6.429  1.00  0.00    -0.134 SA
HETATM   18  C   UNL     1      44.364 -15.605   7.269  1.00  0.00     0.095 C 
ENDBRANCH  14  17
ENDBRANCH   1  11
BRANCH   2  19
HETATM   19  C   UNL     1      41.306 -17.314   0.960  1.00  0.00     0.132 C 
BRANCH  19  20
HETATM   20  C   UNL     1      42.826 -17.510   0.999  1.00  0.00     0.058 C 
BRANCH  20  21
HETATM   21  C   UNL     1      43.386 -18.380   2.101  1.00  0.00    -0.057 A 
HETATM   22  C   UNL     1      43.768 -19.713   1.897  1.00  0.00     0.007 A 
HETATM   23  C   UNL     1      44.298 -20.469   2.945  1.00  0.00     0.001 A 
HETATM   24  C   UNL     1      44.468 -19.899   4.205  1.00  0.00     0.000 A 
HETATM   25  C   UNL     1      44.114 -18.571   4.418  1.00  0.00     0.001 A 
HETATM   26  C   UNL     1      43.580 -17.815   3.373  1.00  0.00     0.007 A 
ENDBRANCH  20  21
ENDBRANCH  19  20
ENDBRANCH   2  19
BRANCH  10  27
HETATM   27  C   UNL     1      39.703 -11.668   2.628  1.00  0.00     0.026 A 
HETATM   28  C   UNL     1      38.424 -11.170   2.922  1.00  0.00     0.078 A 
HETATM   29  C   UNL     1      38.177 -10.462   4.095  1.00  0.00     0.037 A 
HETATM   30  C   UNL     1      39.222 -10.212   4.982  1.00  0.00     0.003 A 
HETATM   31  C   UNL     1      40.505 -10.676   4.695  1.00  0.00     0.001 A 
HETATM   32  C   UNL     1      40.745 -11.404   3.526  1.00  0.00     0.016 A 
BRANCH  28  33
HETATM   33  O   UNL     1      37.366 -11.326   2.067  1.00  0.00    -0.360 OA
HETATM   34  H   UNL     1      36.659 -11.784   2.557  1.00  0.00     0.217 HD
ENDBRANCH  28  33
ENDBRANCH  10  27
TORSDOF 7
ENDMDL
MODEL 5
REMARK VINA RESULT:      -7.8      3.340      7.819
REMARK  7 active torsions:
REMARK  status: ('A' for Active; 'I' for Inactive)
REMARK    1  A    between atoms: S_2  and  C_3 
REMARK    2  A    between atoms: C_6  and  C_7 
REMARK    3  A    between atoms: N_8  and  C_9 
REMARK    4  A    between atoms: C_9  and  C_10 
REMARK    5  A    between atoms: C_10  and  C_11 
REMARK    6  A    between atoms: C_24  and  C_25 
REMARK    7  A    between atoms: C_26  and  O_27 
ROOT
HETATM    1  C   UNL     1      40.660 -15.508   3.009  1.00  0.00     0.159 A 
HETATM    2  N   UNL     1      41.153 -16.069   1.728  1.00  0.00    -0.333 N 
HETATM    3  C   UNL     1      41.599 -15.095   0.815  1.00  0.00     0.275 A 
HETATM    4  O   UNL     1      42.084 -15.280  -0.290  1.00  0.00    -0.266 OA
HETATM    5  C   UNL     1      41.385 -13.839   1.500  1.00  0.00     0.155 A 
HETATM    6  C   UNL     1      40.865 -14.060   2.777  1.00  0.00     0.034 A 
HETATM    7  N   UNL     1      41.626 -12.556   1.245  1.00  0.00    -0.168 NA
HETATM    8  N   UNL     1      41.220 -11.953   2.391  1.00  0.00    -0.276 N 
HETATM    9  H   UNL     1      41.291 -10.942   2.457  1.00  0.00     0.189 HD
HETATM   10  C   UNL     1      40.799 -12.828   3.378  1.00  0.00     0.074 A 
ENDROOT
BRANCH   1  11
HETATM   11  C   UNL     1      41.456 -15.870   4.239  1.00  0.00    -0.031 A 
HETATM   12  C   UNL     1      42.710 -15.308   4.530  1.00  0.00     0.011 A 
HETATM   13  C   UNL     1      43.384 -15.636   5.710  1.00  0.00     0.019 A 
HETATM   14  C   UNL     1      42.814 -16.526   6.624  1.00  0.00    -0.000 A 
HETATM   15  C   UNL     1      41.582 -17.111   6.334  1.00  0.00     0.019 A 
HETATM   16  C   UNL     1      40.908 -16.785   5.155  1.00  0.00     0.011 A 
BRANCH  14  17
HETATM   17  S   UNL     1      43.669 -16.905   8.140  1.00  0.00    -0.134 SA
HETATM   18  C   UNL     1      43.929 -18.680   7.879  1.00  0.00     0.095 C 
ENDBRANCH  14  17
ENDBRANCH   1  11
BRANCH   2  19
HETATM   19  C   UNL     1      41.328 -17.492   1.474  1.00  0.00     0.132 C 
BRANCH  19  20
HETATM   20  C   UNL     1      42.756 -17.957   1.162  1.00  0.00     0.058 C 
BRANCH  20  21
HETATM   21  C   UNL     1      43.387 -18.948   2.114  1.00  0.00    -0.057 A 
HETATM   22  C   UNL     1      43.616 -20.288   1.773  1.00  0.00     0.007 A 
HETATM   23  C   UNL     1      44.220 -21.160   2.682  1.00  0.00     0.001 A 
HETATM   24  C   UNL     1      44.616 -20.701   3.937  1.00  0.00     0.000 A 
HETATM   25  C   UNL     1      44.414 -19.369   4.282  1.00  0.00     0.001 A 
HETATM   26  C   UNL     1      43.807 -18.497   3.376  1.00  0.00     0.007 A 
ENDBRANCH  20  21
ENDBRANCH  19  20
ENDBRANCH   2  19
BRANCH  10  27
HETATM   27  C   UNL     1      40.430 -12.405   4.721  1.00  0.00     0.026 A 
HETATM   28  C   UNL     1      40.888 -11.195   5.265  1.00  0.00     0.078 A 
HETATM   29  C   UNL     1      40.489 -10.778   6.532  1.00  0.00     0.037 A 
HETATM   30  C   UNL     1      39.646 -11.587   7.292  1.00  0.00     0.003 A 
HETATM   31  C   UNL     1      39.202 -12.805   6.779  1.00  0.00     0.001 A 
HETATM   32  C   UNL     1      39.588 -13.211   5.498  1.00  0.00     0.016 A 
BRANCH  28  33
HETATM   33  O   UNL     1      41.765 -10.381   4.600  1.00  0.00    -0.360 OA
HETATM   34  H   UNL     1      41.326 -10.087   3.781  1.00  0.00     0.217 HD
ENDBRANCH  28  33
ENDBRANCH  10  27
TORSDOF 7
ENDMDL
MODEL 6
REMARK VINA RESULT:      -7.6      2.192      3.555
REMARK  7 active torsions:
REMARK  status: ('A' for Active; 'I' for Inactive)
REMARK    1  A    between atoms: S_2  and  C_3 
REMARK    2  A    between atoms: C_6  and  C_7 
REMARK    3  A    between atoms: N_8  and  C_9 
REMARK    4  A    between atoms: C_9  and  C_10 
REMARK    5  A    between atoms: C_10  and  C_11 
REMARK    6  A    between atoms: C_24  and  C_25 
REMARK    7  A    between atoms: C_26  and  O_27 
ROOT
HETATM    1  C   UNL     1      40.604 -14.535   4.038  1.00  0.00     0.159 A 
HETATM    2  N   UNL     1      40.237 -13.306   4.784  1.00  0.00    -0.333 N 
HETATM    3  C   UNL     1      41.184 -12.924   5.752  1.00  0.00     0.275 A 
HETATM    4  O   UNL     1      41.151 -11.941   6.475  1.00  0.00    -0.266 OA
HETATM    5  C   UNL     1      42.214 -13.936   5.662  1.00  0.00     0.155 A 
HETATM    6  C   UNL     1      41.907 -14.861   4.663  1.00  0.00     0.034 A 
HETATM    7  N   UNL     1      43.393 -14.156   6.238  1.00  0.00    -0.168 NA
HETATM    8  N   UNL     1      43.826 -15.268   5.594  1.00  0.00    -0.276 N 
HETATM    9  H   UNL     1      44.724 -15.662   5.857  1.00  0.00     0.189 HD
HETATM   10  C   UNL     1      42.983 -15.708   4.586  1.00  0.00     0.074 A 
ENDROOT
BRANCH   1  11
HETATM   11  C   UNL     1      40.861 -14.360   2.561  1.00  0.00    -0.031 A 
HETATM   12  C   UNL     1      40.126 -15.035   1.572  1.00  0.00     0.011 A 
HETATM   13  C   UNL     1      40.367 -14.796   0.216  1.00  0.00     0.019 A 
HETATM   14  C   UNL     1      41.342 -13.876  -0.177  1.00  0.00    -0.000 A 
HETATM   15  C   UNL     1      42.096 -13.219   0.795  1.00  0.00     0.019 A 
HETATM   16  C   UNL     1      41.857 -13.457   2.150  1.00  0.00     0.011 A 
BRANCH  14  17
HETATM   17  S   UNL     1      41.611 -13.557  -1.909  1.00  0.00    -0.134 SA
HETATM   18  C   UNL     1      42.715 -12.127  -1.762  1.00  0.00     0.095 C 
ENDBRANCH  14  17
ENDBRANCH   1  11
BRANCH   2  19
HETATM   19  C   UNL     1      39.096 -12.463   4.454  1.00  0.00     0.132 C 
BRANCH  19  20
HETATM   20  C   UNL     1      39.389 -11.230   3.590  1.00  0.00     0.058 C 
BRANCH  20  21
HETATM   21  C   UNL     1      39.017 -11.303   2.127  1.00  0.00    -0.057 A 
HETATM   22  C   UNL     1      39.702 -10.593   1.132  1.00  0.00     0.007 A 
HETATM   23  C   UNL     1      39.331 -10.711  -0.209  1.00  0.00     0.001 A 
HETATM   24  C   UNL     1      38.280 -11.549  -0.575  1.00  0.00     0.000 A 
HETATM   25  C   UNL     1      37.603 -12.277   0.398  1.00  0.00     0.001 A 
HETATM   26  C   UNL     1      37.971 -12.158   1.739  1.00  0.00     0.007 A 
ENDBRANCH  20  21
ENDBRANCH  19  20
ENDBRANCH   2  19
BRANCH  10  27
HETATM   27  C   UNL     1      43.307 -16.813   3.695  1.00  0.00     0.026 A 
HETATM   28  C   UNL     1      43.328 -18.142   4.146  1.00  0.00     0.078 A 
HETATM   29  C   UNL     1      43.591 -19.195   3.274  1.00  0.00     0.037 A 
HETATM   30  C   UNL     1      43.871 -18.929   1.935  1.00  0.00     0.003 A 
HETATM   31  C   UNL     1      43.880 -17.613   1.474  1.00  0.00     0.001 A 
HETATM   32  C   UNL     1      43.596 -16.560   2.348  1.00  0.00     0.016 A 
BRANCH  28  33
HETATM   33  O   UNL     1      43.122 -18.471   5.459  1.00  0.00    -0.360 OA
HETATM   34  H   UNL     1      43.955 -18.845   5.800  1.00  0.00     0.217 HD
ENDBRANCH  28  33
ENDBRANCH  10  27
TORSDOF 7
ENDMDL
MODEL 7
REMARK VINA RESULT:      -7.5      3.644      6.837
REMARK  7 active torsions:
REMARK  status: ('A' for Active; 'I' for Inactive)
REMARK    1  A    between atoms: S_2  and  C_3 
REMARK    2  A    between atoms: C_6  and  C_7 
REMARK    3  A    between atoms: N_8  and  C_9 
REMARK    4  A    between atoms: C_9  and  C_10 
REMARK    5  A    between atoms: C_10  and  C_11 
REMARK    6  A    between atoms: C_24  and  C_25 
REMARK    7  A    between atoms: C_26  and  O_27 
ROOT
HETATM    1  C   UNL     1      41.080 -12.887   2.770  1.00  0.00     0.159 A 
HETATM    2  N   UNL     1      40.436 -12.535   4.059  1.00  0.00    -0.333 N 
HETATM    3  C   UNL     1      39.129 -12.031   3.923  1.00  0.00     0.275 A 
HETATM    4  O   UNL     1      38.363 -11.702   4.815  1.00  0.00    -0.266 OA
HETATM    5  C   UNL     1      38.893 -12.032   2.495  1.00  0.00     0.155 A 
HETATM    6  C   UNL     1      40.000 -12.544   1.816  1.00  0.00     0.034 A 
HETATM    7  N   UNL     1      37.873 -11.738   1.693  1.00  0.00    -0.168 NA
HETATM    8  N   UNL     1      38.368 -12.054   0.470  1.00  0.00    -0.276 N 
HETATM    9  H   UNL     1      37.776 -11.912  -0.343  1.00  0.00     0.189 HD
HETATM   10  C   UNL     1      39.640 -12.601   0.493  1.00  0.00     0.074 A 
ENDROOT
BRANCH   1  11
HETATM   11  C   UNL     1      41.394 -14.349   2.565  1.00  0.00    -0.031 A 
HETATM   12  C   UNL     1      40.401 -15.333   2.432  1.00  0.00     0.011 A 
HETATM   13  C   UNL     1      40.745 -16.666   2.190  1.00  0.00     0.019 A 
HETATM   14  C   UNL     1      42.086 -17.039   2.071  1.00  0.00    -0.000 A 
HETATM   15  C   UNL     1      43.082 -16.076   2.228  1.00  0.00     0.019 A 
HETATM   16  C   UNL     1      42.741 -14.744   2.470  1.00  0.00     0.011 A 
BRANCH  14  17
HETATM   17  S   UNL     1      42.505 -18.736   1.726  1.00  0.00    -0.134 SA
HETATM   18  C   UNL     1      44.146 -18.781   2.493  1.00  0.00     0.095 C 
ENDBRANCH  14  17
ENDBRANCH   1  11
BRANCH   2  19
HETATM   19  C   UNL     1      41.010 -12.828   5.364  1.00  0.00     0.132 C 
BRANCH  19  20
HETATM   20  C   UNL     1      40.527 -14.113   6.048  1.00  0.00     0.058 C 
BRANCH  20  21
HETATM   21  C   UNL     1      41.432 -15.322   5.971  1.00  0.00    -0.057 A 
HETATM   22  C   UNL     1      40.944 -16.626   5.805  1.00  0.00     0.007 A 
HETATM   23  C   UNL     1      41.823 -17.708   5.721  1.00  0.00     0.001 A 
HETATM   24  C   UNL     1      43.199 -17.500   5.787  1.00  0.00     0.000 A 
HETATM   25  C   UNL     1      43.699 -16.211   5.931  1.00  0.00     0.001 A 
HETATM   26  C   UNL     1      42.822 -15.128   6.018  1.00  0.00     0.007 A 
ENDBRANCH  20  21
ENDBRANCH  19  20
ENDBRANCH   2  19
BRANCH  10  27
HETATM   27  C   UNL     1      40.314 -13.115  -0.690  1.00  0.00     0.026 A 
HETATM   28  C   UNL     1      39.671 -13.980  -1.589  1.00  0.00     0.078 A 
HETATM   29  C   UNL     1      40.309 -14.426  -2.743  1.00  0.00     0.037 A 
HETATM   30  C   UNL     1      41.622 -14.036  -3.000  1.00  0.00     0.003 A 
HETATM   31  C   UNL     1      42.287 -13.198  -2.107  1.00  0.00     0.001 A 
HETATM   32  C   UNL     1      41.636 -12.735  -0.959  1.00  0.00     0.016 A 
BRANCH  28  33
HETATM   33  O   UNL     1      38.405 -14.452  -1.368  1.00  0.00    -0.360 OA
HETATM   34  H   UNL     1      38.272 -14.491  -0.403  1.00  0.00     0.217 HD
ENDBRANCH  28  33
ENDBRANCH  10  27
TORSDOF 7
ENDMDL
MODEL 8
REMARK VINA RESULT:      -7.4      3.922      5.752
REMARK  7 active torsions:
REMARK  status: ('A' for Active; 'I' for Inactive)
REMARK    1  A    between atoms: S_2  and  C_3 
REMARK    2  A    between atoms: C_6  and  C_7 
REMARK    3  A    between atoms: N_8  and  C_9 
REMARK    4  A    between atoms: C_9  and  C_10 
REMARK    5  A    between atoms: C_10  and  C_11 
REMARK    6  A    between atoms: C_24  and  C_25 
REMARK    7  A    between atoms: C_26  and  O_27 
ROOT
HETATM    1  C   UNL     1      41.755 -13.813   3.896  1.00  0.00     0.159 A 
HETATM    2  N   UNL     1      40.802 -12.726   4.231  1.00  0.00    -0.333 N 
HETATM    3  C   UNL     1      39.553 -12.847   3.593  1.00  0.00     0.275 A 
HETATM    4  O   UNL     1      38.582 -12.119   3.718  1.00  0.00    -0.266 OA
HETATM    5  C   UNL     1      39.677 -14.046   2.792  1.00  0.00     0.155 A 
HETATM    6  C   UNL     1      40.933 -14.628   2.972  1.00  0.00     0.034 A 
HETATM    7  N   UNL     1      38.878 -14.753   1.998  1.00  0.00    -0.168 NA
HETATM    8  N   UNL     1      39.668 -15.800   1.652  1.00  0.00    -0.276 N 
HETATM    9  H   UNL     1      39.291 -16.505   1.026  1.00  0.00     0.189 HD
HETATM   10  C   UNL     1      40.912 -15.802   2.261  1.00  0.00     0.074 A 
ENDROOT
BRANCH   1  11
HETATM   11  C   UNL     1      42.156 -14.716   5.036  1.00  0.00    -0.031 A 
HETATM   12  C   UNL     1      41.242 -15.535   5.720  1.00  0.00     0.011 A 
HETATM   13  C   UNL     1      41.674 -16.394   6.735  1.00  0.00     0.019 A 
HETATM   14  C   UNL     1      43.026 -16.456   7.079  1.00  0.00    -0.000 A 
HETATM   15  C   UNL     1      43.939 -15.629   6.425  1.00  0.00     0.019 A 
HETATM   16  C   UNL     1      43.509 -14.769   5.413  1.00  0.00     0.011 A 
BRANCH  14  17
HETATM   17  S   UNL     1      43.565 -17.584   8.349  1.00  0.00    -0.134 SA
HETATM   18  C   UNL     1      43.743 -19.078   7.339  1.00  0.00     0.095 C 
ENDBRANCH  14  17
ENDBRANCH   1  11
BRANCH   2  19
HETATM   19  C   UNL     1      41.046 -11.713   5.248  1.00  0.00     0.132 C 
BRANCH  19  20
HETATM   20  C   UNL     1      40.469 -11.994   6.642  1.00  0.00     0.058 C 
BRANCH  20  21
HETATM   21  C   UNL     1      39.809 -10.843   7.365  1.00  0.00    -0.057 A 
HETATM   22  C   UNL     1      39.383 -10.927   8.698  1.00  0.00     0.007 A 
HETATM   23  C   UNL     1      38.796  -9.827   9.327  1.00  0.00     0.001 A 
HETATM   24  C   UNL     1      38.640  -8.626   8.639  1.00  0.00     0.000 A 
HETATM   25  C   UNL     1      39.076  -8.520   7.323  1.00  0.00     0.001 A 
HETATM   26  C   UNL     1      39.661  -9.619   6.691  1.00  0.00     0.007 A 
ENDBRANCH  20  21
ENDBRANCH  19  20
ENDBRANCH   2  19
BRANCH  10  27
HETATM   27  C   UNL     1      41.873 -16.886   2.120  1.00  0.00     0.026 A 
HETATM   28  C   UNL     1      42.594 -17.083   0.933  1.00  0.00     0.078 A 
HETATM   29  C   UNL     1      43.546 -18.094   0.826  1.00  0.00     0.037 A 
HETATM   30  C   UNL     1      43.768 -18.949   1.903  1.00  0.00     0.003 A 
HETATM   31  C   UNL     1      43.043 -18.785   3.083  1.00  0.00     0.001 A 
HETATM   32  C   UNL     1      42.102 -17.757   3.193  1.00  0.00     0.016 A 
BRANCH  28  33
HETATM   33  O   UNL     1      42.384 -16.320  -0.185  1.00  0.00    -0.360 OA
HETATM   34  H   UNL     1      41.442 -16.405  -0.423  1.00  0.00     0.217 HD
ENDBRANCH  28  33
ENDBRANCH  10  27
TORSDOF 7
ENDMDL
MODEL 9
REMARK VINA RESULT:      -7.3      3.891      8.065
REMARK  7 active torsions:
REMARK  status: ('A' for Active; 'I' for Inactive)
REMARK    1  A    between atoms: S_2  and  C_3 
REMARK    2  A    between atoms: C_6  and  C_7 
REMARK    3  A    between atoms: N_8  and  C_9 
REMARK    4  A    between atoms: C_9  and  C_10 
REMARK    5  A    between atoms: C_10  and  C_11 
REMARK    6  A    between atoms: C_24  and  C_25 
REMARK    7  A    between atoms: C_26  and  O_27 
ROOT
HETATM    1  C   UNL     1      39.999 -13.851   3.240  1.00  0.00     0.159 A 
HETATM    2  N   UNL     1      40.110 -14.300   1.830  1.00  0.00    -0.333 N 
HETATM    3  C   UNL     1      40.466 -13.275   0.933  1.00  0.00     0.275 A 
HETATM    4  O   UNL     1      40.661 -13.374  -0.267  1.00  0.00    -0.266 OA
HETATM    5  C   UNL     1      40.585 -12.097   1.766  1.00  0.00     0.155 A 
HETATM    6  C   UNL     1      40.340 -12.416   3.103  1.00  0.00     0.034 A 
HETATM    7  N   UNL     1      40.932 -10.827   1.583  1.00  0.00    -0.168 NA
HETATM    8  N   UNL     1      40.880 -10.329   2.845  1.00  0.00    -0.276 N 
HETATM    9  H   UNL     1      41.100  -9.348   2.988  1.00  0.00     0.189 HD
HETATM   10  C   UNL     1      40.578 -11.269   3.817  1.00  0.00     0.074 A 
ENDROOT
BRANCH   1  11
HETATM   11  C   UNL     1      40.996 -14.447   4.204  1.00  0.00    -0.031 A 
HETATM   12  C   UNL     1      40.616 -15.154   5.356  1.00  0.00     0.011 A 
HETATM   13  C   UNL     1      41.578 -15.732   6.189  1.00  0.00     0.019 A 
HETATM   14  C   UNL     1      42.936 -15.620   5.882  1.00  0.00    -0.000 A 
HETATM   15  C   UNL     1      43.327 -14.898   4.755  1.00  0.00     0.019 A 
HETATM   16  C   UNL     1      42.367 -14.319   3.923  1.00  0.00     0.011 A 
BRANCH  14  17
HETATM   17  S   UNL     1      44.148 -16.395   6.933  1.00  0.00    -0.134 SA
HETATM   18  C   UNL     1      43.090 -17.648   7.705  1.00  0.00     0.095 C 
ENDBRANCH  14  17
ENDBRANCH   1  11
BRANCH   2  19
HETATM   19  C   UNL     1      40.030 -15.691   1.408  1.00  0.00     0.132 C 
BRANCH  19  20
HETATM   20  C   UNL     1      41.267 -16.261   0.702  1.00  0.00     0.058 C 
BRANCH  20  21
HETATM   21  C   UNL     1      42.194 -17.131   1.520  1.00  0.00    -0.057 A 
HETATM   22  C   UNL     1      43.507 -17.422   1.125  1.00  0.00     0.007 A 
HETATM   23  C   UNL     1      44.331 -18.216   1.926  1.00  0.00     0.001 A 
HETATM   24  C   UNL     1      43.859 -18.716   3.138  1.00  0.00     0.000 A 
HETATM   25  C   UNL     1      42.566 -18.418   3.554  1.00  0.00     0.001 A 
HETATM   26  C   UNL     1      41.740 -17.628   2.753  1.00  0.00     0.007 A 
ENDBRANCH  20  21
ENDBRANCH  19  20
ENDBRANCH   2  19
BRANCH  10  27
HETATM   27  C   UNL     1      40.581 -10.977   5.242  1.00  0.00     0.026 A 
HETATM   28  C   UNL     1      39.510 -10.316   5.863  1.00  0.00     0.078 A 
HETATM   29  C   UNL     1      39.503 -10.086   7.236  1.00  0.00     0.037 A 
HETATM   30  C   UNL     1      40.590 -10.488   8.009  1.00  0.00     0.003 A 
HETATM   31  C   UNL     1      41.676 -11.123   7.407  1.00  0.00     0.001 A 
HETATM   32  C   UNL     1      41.671 -11.370   6.031  1.00  0.00     0.016 A 
BRANCH  28  33
HETATM   33  O   UNL     1      38.438  -9.840   5.157  1.00  0.00    -0.360 OA
HETATM   34  H   UNL     1      38.372 -10.365   4.338  1.00  0.00     0.217 HD
ENDBRANCH  28  33
ENDBRANCH  10  27
TORSDOF 7
ENDMDL
MODEL 10
REMARK VINA RESULT:      -7.3      3.609      7.836
REMARK  7 active torsions:
REMARK  status: ('A' for Active; 'I' for Inactive)
REMARK    1  A    between atoms: S_2  and  C_3 
REMARK    2  A    between atoms: C_6  and  C_7 
REMARK    3  A    between atoms: N_8  and  C_9 
REMARK    4  A    between atoms: C_9  and  C_10 
REMARK    5  A    between atoms: C_10  and  C_11 
REMARK    6  A    between atoms: C_24  and  C_25 
REMARK    7  A    between atoms: C_26  and  O_27 
ROOT
HETATM    1  C   UNL     1      41.513 -14.583   0.856  1.00  0.00     0.159 A 
HETATM    2  N   UNL     1      41.157 -15.399   2.043  1.00  0.00    -0.333 N 
HETATM    3  C   UNL     1      41.053 -14.657   3.234  1.00  0.00     0.275 A 
HETATM    4  O   UNL     1      40.740 -15.068   4.339  1.00  0.00    -0.266 OA
HETATM    5  C   UNL     1      41.362 -13.300   2.837  1.00  0.00     0.155 A 
HETATM    6  C   UNL     1      41.607 -13.235   1.464  1.00  0.00     0.034 A 
HETATM    7  N   UNL     1      41.398 -12.113   3.434  1.00  0.00    -0.168 NA
HETATM    8  N   UNL     1      41.699 -11.281   2.405  1.00  0.00    -0.276 N 
HETATM    9  H   UNL     1      41.797 -10.289   2.598  1.00  0.00     0.189 HD
HETATM   10  C   UNL     1      41.784 -11.906   1.172  1.00  0.00     0.074 A 
ENDROOT
BRANCH   1  11
HETATM   11  C   UNL     1      40.465 -14.500  -0.227  1.00  0.00    -0.031 A 
HETATM   12  C   UNL     1      39.174 -13.993  -0.005  1.00  0.00     0.011 A 
HETATM   13  C   UNL     1      38.258 -13.888  -1.056  1.00  0.00     0.019 A 
HETATM   14  C   UNL     1      38.617 -14.280  -2.347  1.00  0.00    -0.000 A 
HETATM   15  C   UNL     1      39.887 -14.809  -2.575  1.00  0.00     0.019 A 
HETATM   16  C   UNL     1      40.803 -14.916  -1.527  1.00  0.00     0.011 A 
BRANCH  14  17
HETATM   17  S   UNL     1      37.449 -14.104  -3.682  1.00  0.00    -0.134 SA
HETATM   18  C   UNL     1      37.066 -12.343  -3.488  1.00  0.00     0.095 C 
ENDBRANCH  14  17
ENDBRANCH   1  11
BRANCH   2  19
HETATM   19  C   UNL     1      40.781 -16.805   1.982  1.00  0.00     0.132 C 
BRANCH  19  20
HETATM   20  C   UNL     1      41.808 -17.757   1.356  1.00  0.00     0.058 C 
BRANCH  20  21
HETATM   21  C   UNL     1      42.727 -18.503   2.296  1.00  0.00    -0.057 A 
HETATM   22  C   UNL     1      43.514 -19.588   1.887  1.00  0.00     0.007 A 
HETATM   23  C   UNL     1      44.363 -20.231   2.791  1.00  0.00     0.001 A 
HETATM   24  C   UNL     1      44.447 -19.790   4.110  1.00  0.00     0.000 A 
HETATM   25  C   UNL     1      43.688 -18.701   4.526  1.00  0.00     0.001 A 
HETATM   26  C   UNL     1      42.837 -18.059   3.625  1.00  0.00     0.007 A 
ENDBRANCH  20  21
ENDBRANCH  19  20
ENDBRANCH   2  19
BRANCH  10  27
HETATM   27  C   UNL     1      41.985 -11.190  -0.078  1.00  0.00     0.026 A 
HETATM   28  C   UNL     1      41.494  -9.889  -0.271  1.00  0.00     0.078 A 
HETATM   29  C   UNL     1      41.734  -9.195  -1.454  1.00  0.00     0.037 A 
HETATM   30  C   UNL     1      42.446  -9.809  -2.482  1.00  0.00     0.003 A 
HETATM   31  C   UNL     1      42.920 -11.110  -2.320  1.00  0.00     0.001 A 
HETATM   32  C   UNL     1      42.695 -11.796  -1.123  1.00  0.00     0.016 A 
BRANCH  28  33
HETATM   33  O   UNL     1      40.734  -9.249   0.672  1.00  0.00    -0.360 OA
HETATM   34  H   UNL     1      39.985  -8.831   0.208  1.00  0.00     0.217 HD
ENDBRANCH  28  33
ENDBRANCH  10  27
TORSDOF 7
ENDMDL
