MODEL 1
REMARK VINA RESULT:      -9.6      0.000      0.000
REMARK  2 active torsions:
REMARK  status: ('A' for Active; 'I' for Inactive)
REMARK       I    between atoms: C_2  and  N_3 
REMARK       I    between atoms: C_2  and  N_21 
REMARK    1  A    between atoms: N_3  and  C_4 
REMARK    2  A    between atoms: C_7  and  C_10 
ROOT
HETATM    1  C   UNL     1      42.040 -15.894   0.709  1.00  0.00     0.036 A 
HETATM    2  C   UNL     1      42.857 -15.300   1.679  1.00  0.00     0.030 A 
HETATM    3  C   UNL     1      43.190 -15.988   2.851  1.00  0.00     0.014 A 
HETATM    4  C   UNL     1      42.692 -17.276   3.078  1.00  0.00    -0.024 A 
HETATM    5  C   UNL     1      41.846 -17.855   2.127  1.00  0.00     0.014 A 
HETATM    6  C   UNL     1      41.524 -17.169   0.950  1.00  0.00     0.030 A 
ENDROOT
BRANCH   1   7
HETATM    7  N   UNL     1      41.765 -15.151  -0.458  1.00  0.00    -0.309 N 
HETATM    8  C   UNL     1      40.657 -14.352  -0.691  1.00  0.00     0.327 C 
HETATM    9  O   UNL     1      39.691 -14.302   0.068  1.00  0.00    -0.247 OA
HETATM   10  N   UNL     1      40.743 -13.619  -1.870  1.00  0.00    -0.299 N 
HETATM   11  C   UNL     1      41.932 -13.464  -2.726  1.00  0.00     0.138 C 
HETATM   12  C   UNL     1      39.698 -12.860  -2.436  1.00  0.00     0.045 A 
HETATM   13  C   UNL     1      41.622 -12.378  -3.763  1.00  0.00     0.061 C 
HETATM   14  C   UNL     1      40.159 -12.162  -3.554  1.00  0.00    -0.030 A 
HETATM   15  C   UNL     1      39.315 -11.351  -4.297  1.00  0.00     0.009 A 
HETATM   16  C   UNL     1      37.978 -11.253  -3.910  1.00  0.00     0.001 A 
HETATM   17  C   UNL     1      37.511 -11.955  -2.790  1.00  0.00     0.002 A 
HETATM   18  C   UNL     1      38.373 -12.763  -2.043  1.00  0.00     0.030 A 
HETATM   19  H   UNL     1      42.292 -15.408  -1.277  1.00  0.00     0.170 HD
ENDBRANCH   1   7
BRANCH   4  20
HETATM   20  C   UNL     1      43.063 -18.029   4.293  1.00  0.00     0.001 A 
HETATM   21  C   UNL     1      42.754 -17.463   5.474  1.00  0.00     0.104 A 
HETATM   22  N   UNL     1      43.019 -18.066   6.674  1.00  0.00    -0.332 N 
HETATM   23  C   UNL     1      43.606 -19.303   6.812  1.00  0.00     0.256 A 
HETATM   24  H   UNL     1      42.766 -17.607   7.541  1.00  0.00     0.168 HD
HETATM   25  O   UNL     1      43.814 -19.798   7.913  1.00  0.00    -0.267 OA
HETATM   26  C   UNL     1      43.973 -19.995   5.552  1.00  0.00     0.043 A 
HETATM   27  C   UNL     1      44.575 -21.257   5.607  1.00  0.00     0.018 A 
HETATM   28  C   UNL     1      43.712 -19.366   4.323  1.00  0.00    -0.008 A 
HETATM   29  C   UNL     1      44.930 -21.908   4.427  1.00  0.00     0.001 A 
HETATM   30  C   UNL     1      44.687 -21.294   3.198  1.00  0.00     0.001 A 
HETATM   31  C   UNL     1      44.087 -20.033   3.146  1.00  0.00     0.013 A 
ENDBRANCH   4  20
TORSDOF 2
ENDMDL
MODEL 2
REMARK VINA RESULT:      -9.5      2.001      2.716
REMARK  2 active torsions:
REMARK  status: ('A' for Active; 'I' for Inactive)
REMARK       I    between atoms: C_2  and  N_3 
REMARK       I    between atoms: C_2  and  N_21 
REMARK    1  A    between atoms: N_3  and  C_4 
REMARK    2  A    between atoms: C_7  and  C_10 
ROOT
HETATM    1  C   UNL     1      40.353 -15.155   0.896  1.00  0.00     0.036 A 
HETATM    2  C   UNL     1      39.828 -16.095   1.790  1.00  0.00     0.030 A 
HETATM    3  C   UNL     1      40.662 -16.766   2.692  1.00  0.00     0.014 A 
HETATM    4  C   UNL     1      42.039 -16.519   2.697  1.00  0.00    -0.024 A 
HETATM    5  C   UNL     1      42.569 -15.608   1.778  1.00  0.00     0.014 A 
HETATM    6  C   UNL     1      41.732 -14.930   0.885  1.00  0.00     0.030 A 
ENDROOT
BRANCH   1   7
HETATM    7  N   UNL     1      39.451 -14.499   0.032  1.00  0.00    -0.309 N 
HETATM    8  C   UNL     1      38.553 -13.500   0.373  1.00  0.00     0.327 C 
HETATM    9  O   UNL     1      38.343 -13.150   1.533  1.00  0.00    -0.247 OA
HETATM   10  N   UNL     1      37.911 -12.937  -0.724  1.00  0.00    -0.299 N 
HETATM   11  C   UNL     1      38.243 -13.149  -2.144  1.00  0.00     0.138 C 
HETATM   12  C   UNL     1      36.836 -12.026  -0.661  1.00  0.00     0.045 A 
HETATM   13  C   UNL     1      37.435 -12.139  -2.968  1.00  0.00     0.061 C 
HETATM   14  C   UNL     1      36.509 -11.576  -1.941  1.00  0.00    -0.030 A 
HETATM   15  C   UNL     1      35.470 -10.679  -2.148  1.00  0.00     0.009 A 
HETATM   16  C   UNL     1      34.743 -10.240  -1.041  1.00  0.00     0.001 A 
HETATM   17  C   UNL     1      35.067 -10.693   0.246  1.00  0.00     0.002 A 
HETATM   18  C   UNL     1      36.121 -11.590   0.442  1.00  0.00     0.030 A 
HETATM   19  H   UNL     1      39.275 -14.955  -0.847  1.00  0.00     0.170 HD
ENDBRANCH   1   7
BRANCH   4  20
HETATM   20  C   UNL     1      42.927 -17.193   3.666  1.00  0.00     0.001 A 
HETATM   21  C   UNL     1      43.185 -16.533   4.810  1.00  0.00     0.104 A 
HETATM   22  N   UNL     1      43.970 -17.055   5.803  1.00  0.00    -0.332 N 
HETATM   23  C   UNL     1      44.563 -18.296   5.756  1.00  0.00     0.256 A 
HETATM   24  H   UNL     1      44.137 -16.527   6.651  1.00  0.00     0.168 HD
HETATM   25  O   UNL     1      45.252 -18.716   6.678  1.00  0.00    -0.267 OA
HETATM   26  C   UNL     1      44.322 -19.088   4.526  1.00  0.00     0.043 A 
HETATM   27  C   UNL     1      44.890 -20.361   4.400  1.00  0.00     0.018 A 
HETATM   28  C   UNL     1      43.526 -18.543   3.503  1.00  0.00    -0.008 A 
HETATM   29  C   UNL     1      44.673 -21.106   3.243  1.00  0.00     0.001 A 
HETATM   30  C   UNL     1      43.895 -20.576   2.214  1.00  0.00     0.001 A 
HETATM   31  C   UNL     1      43.328 -19.304   2.341  1.00  0.00     0.013 A 
ENDBRANCH   4  20
TORSDOF 2
ENDMDL
MODEL 3
REMARK VINA RESULT:      -9.4      1.854      2.927
REMARK  2 active torsions:
REMARK  status: ('A' for Active; 'I' for Inactive)
REMARK       I    between atoms: C_2  and  N_3 
REMARK       I    between atoms: C_2  and  N_21 
REMARK    1  A    between atoms: N_3  and  C_4 
REMARK    2  A    between atoms: C_7  and  C_10 
ROOT
HETATM    1  C   UNL     1      41.242 -16.019   0.677  1.00  0.00     0.036 A 
HETATM    2  C   UNL     1      40.719 -17.305   0.857  1.00  0.00     0.030 A 
HETATM    3  C   UNL     1      41.398 -18.249   1.636  1.00  0.00     0.014 A 
HETATM    4  C   UNL     1      42.622 -17.924   2.231  1.00  0.00    -0.024 A 
HETATM    5  C   UNL     1      43.162 -16.651   2.020  1.00  0.00     0.014 A 
HETATM    6  C   UNL     1      42.476 -15.706   1.251  1.00  0.00     0.030 A 
ENDROOT
BRANCH   1   7
HETATM    7  N   UNL     1      40.492 -15.112  -0.101  1.00  0.00    -0.309 N 
HETATM    8  C   UNL     1      39.485 -14.271   0.347  1.00  0.00     0.327 C 
HETATM    9  O   UNL     1      39.026 -14.315   1.486  1.00  0.00    -0.247 OA
HETATM   10  N   UNL     1      39.042 -13.377  -0.622  1.00  0.00    -0.299 N 
HETATM   11  C   UNL     1      39.663 -13.119  -1.933  1.00  0.00     0.138 C 
HETATM   12  C   UNL     1      37.922 -12.529  -0.498  1.00  0.00     0.045 A 
HETATM   13  C   UNL     1      38.976 -11.890  -2.541  1.00  0.00     0.061 C 
HETATM   14  C   UNL     1      37.831 -11.684  -1.606  1.00  0.00    -0.030 A 
HETATM   15  C   UNL     1      36.802 -10.762  -1.728  1.00  0.00     0.009 A 
HETATM   16  C   UNL     1      35.843 -10.701  -0.717  1.00  0.00     0.001 A 
HETATM   17  C   UNL     1      35.930 -11.549   0.396  1.00  0.00     0.002 A 
HETATM   18  C   UNL     1      36.976 -12.469   0.512  1.00  0.00     0.030 A 
HETATM   19  H   UNL     1      40.523 -15.256  -1.096  1.00  0.00     0.170 HD
ENDBRANCH   1   7
BRANCH   4  20
HETATM   20  C   UNL     1      43.333 -18.897   3.085  1.00  0.00     0.001 A 
HETATM   21  C   UNL     1      43.982 -19.894   2.455  1.00  0.00     0.104 A 
HETATM   22  N   UNL     1      44.701 -20.846   3.126  1.00  0.00    -0.332 N 
HETATM   23  C   UNL     1      44.853 -20.889   4.493  1.00  0.00     0.256 A 
HETATM   24  H   UNL     1      45.178 -21.578   2.614  1.00  0.00     0.168 HD
HETATM   25  O   UNL     1      45.514 -21.763   5.041  1.00  0.00    -0.267 OA
HETATM   26  C   UNL     1      44.169 -19.819   5.259  1.00  0.00     0.043 A 
HETATM   27  C   UNL     1      44.275 -19.791   6.655  1.00  0.00     0.018 A 
HETATM   28  C   UNL     1      43.421 -18.850   4.567  1.00  0.00    -0.008 A 
HETATM   29  C   UNL     1      43.627 -18.793   7.380  1.00  0.00     0.001 A 
HETATM   30  C   UNL     1      42.872 -17.830   6.710  1.00  0.00     0.001 A 
HETATM   31  C   UNL     1      42.767 -17.860   5.316  1.00  0.00     0.013 A 
ENDBRANCH   4  20
TORSDOF 2
ENDMDL
MODEL 4
REMARK VINA RESULT:      -9.3      1.584      2.075
REMARK  2 active torsions:
REMARK  status: ('A' for Active; 'I' for Inactive)
REMARK       I    between atoms: C_2  and  N_3 
REMARK       I    between atoms: C_2  and  N_21 
REMARK    1  A    between atoms: N_3  and  C_4 
REMARK    2  A    between atoms: C_7  and  C_10 
ROOT
HETATM    1  C   UNL     1      40.426 -15.466   0.520  1.00  0.00     0.036 A 
HETATM    2  C   UNL     1      39.958 -15.641   1.828  1.00  0.00     0.030 A 
HETATM    3  C   UNL     1      40.762 -16.251   2.798  1.00  0.00     0.014 A 
HETATM    4  C   UNL     1      42.040 -16.714   2.466  1.00  0.00    -0.024 A 
HETATM    5  C   UNL     1      42.492 -16.573   1.150  1.00  0.00     0.014 A 
HETATM    6  C   UNL     1      41.692 -15.952   0.185  1.00  0.00     0.030 A 
ENDROOT
BRANCH   1   7
HETATM    7  N   UNL     1      39.571 -14.821  -0.399  1.00  0.00    -0.309 N 
HETATM    8  C   UNL     1      39.723 -13.545  -0.918  1.00  0.00     0.327 C 
HETATM    9  O   UNL     1      40.578 -12.755  -0.525  1.00  0.00    -0.247 OA
HETATM   10  N   UNL     1      38.810 -13.247  -1.924  1.00  0.00    -0.299 N 
HETATM   11  C   UNL     1      37.895 -14.189  -2.591  1.00  0.00     0.138 C 
HETATM   12  C   UNL     1      38.626 -11.976  -2.507  1.00  0.00     0.045 A 
HETATM   13  C   UNL     1      37.269 -13.463  -3.788  1.00  0.00     0.061 C 
HETATM   14  C   UNL     1      37.714 -12.056  -3.561  1.00  0.00    -0.030 A 
HETATM   15  C   UNL     1      37.352 -10.932  -4.289  1.00  0.00     0.009 A 
HETATM   16  C   UNL     1      37.914  -9.705  -3.938  1.00  0.00     0.001 A 
HETATM   17  C   UNL     1      38.829  -9.620  -2.879  1.00  0.00     0.002 A 
HETATM   18  C   UNL     1      39.193 -10.761  -2.158  1.00  0.00     0.030 A 
HETATM   19  H   UNL     1      38.655 -15.223  -0.503  1.00  0.00     0.170 HD
ENDBRANCH   1   7
BRANCH   4  20
HETATM   20  C   UNL     1      42.913 -17.328   3.487  1.00  0.00     0.001 A 
HETATM   21  C   UNL     1      43.148 -16.604   4.596  1.00  0.00     0.104 A 
HETATM   22  N   UNL     1      43.917 -17.066   5.630  1.00  0.00    -0.332 N 
HETATM   23  C   UNL     1      44.517 -18.304   5.663  1.00  0.00     0.256 A 
HETATM   24  H   UNL     1      44.066 -16.491   6.451  1.00  0.00     0.168 HD
HETATM   25  O   UNL     1      45.191 -18.669   6.619  1.00  0.00    -0.267 OA
HETATM   26  C   UNL     1      44.301 -19.165   4.474  1.00  0.00     0.043 A 
HETATM   27  C   UNL     1      44.877 -20.440   4.429  1.00  0.00     0.018 A 
HETATM   28  C   UNL     1      43.521 -18.681   3.409  1.00  0.00    -0.008 A 
HETATM   29  C   UNL     1      44.685 -21.249   3.312  1.00  0.00     0.001 A 
HETATM   30  C   UNL     1      43.923 -20.781   2.242  1.00  0.00     0.001 A 
HETATM   31  C   UNL     1      43.348 -19.507   2.288  1.00  0.00     0.013 A 
ENDBRANCH   4  20
TORSDOF 2
ENDMDL
MODEL 5
REMARK VINA RESULT:      -9.3      2.636     10.298
REMARK  2 active torsions:
REMARK  status: ('A' for Active; 'I' for Inactive)
REMARK       I    between atoms: C_2  and  N_3 
REMARK       I    between atoms: C_2  and  N_21 
REMARK    1  A    between atoms: N_3  and  C_4 
REMARK    2  A    between atoms: C_7  and  C_10 
ROOT
HETATM    1  C   UNL     1      40.495 -15.244   1.630  1.00  0.00     0.036 A 
HETATM    2  C   UNL     1      39.111 -15.147   1.822  1.00  0.00     0.030 A 
HETATM    3  C   UNL     1      38.335 -14.313   1.011  1.00  0.00     0.014 A 
HETATM    4  C   UNL     1      38.937 -13.546   0.007  1.00  0.00    -0.024 A 
HETATM    5  C   UNL     1      40.324 -13.614  -0.160  1.00  0.00     0.014 A 
HETATM    6  C   UNL     1      41.096 -14.458   0.644  1.00  0.00     0.030 A 
ENDROOT
BRANCH   1   7
HETATM    7  N   UNL     1      41.211 -16.123   2.469  1.00  0.00    -0.309 N 
HETATM    8  C   UNL     1      41.908 -17.257   2.081  1.00  0.00     0.327 C 
HETATM    9  O   UNL     1      41.872 -17.712   0.940  1.00  0.00    -0.247 OA
HETATM   10  N   UNL     1      42.647 -17.829   3.111  1.00  0.00    -0.299 N 
HETATM   11  C   UNL     1      42.908 -17.246   4.438  1.00  0.00     0.138 C 
HETATM   12  C   UNL     1      43.311 -19.073   3.044  1.00  0.00     0.045 A 
HETATM   13  C   UNL     1      43.963 -18.117   5.131  1.00  0.00     0.061 C 
HETATM   14  C   UNL     1      44.048 -19.289   4.210  1.00  0.00    -0.030 A 
HETATM   15  C   UNL     1      44.781 -20.452   4.395  1.00  0.00     0.009 A 
HETATM   16  C   UNL     1      44.758 -21.417   3.388  1.00  0.00     0.001 A 
HETATM   17  C   UNL     1      44.017 -21.204   2.218  1.00  0.00     0.002 A 
HETATM   18  C   UNL     1      43.289 -20.025   2.039  1.00  0.00     0.030 A 
HETATM   19  H   UNL     1      41.003 -16.060   3.451  1.00  0.00     0.170 HD
ENDBRANCH   1   7
BRANCH   4  20
HETATM   20  C   UNL     1      38.126 -12.688  -0.881  1.00  0.00     0.001 A 
HETATM   21  C   UNL     1      37.926 -11.419  -0.479  1.00  0.00     0.104 A 
HETATM   22  N   UNL     1      37.216 -10.513  -1.220  1.00  0.00    -0.332 N 
HETATM   23  C   UNL     1      36.648 -10.782  -2.444  1.00  0.00     0.256 A 
HETATM   24  H   UNL     1      37.092  -9.566  -0.883  1.00  0.00     0.168 HD
HETATM   25  O   UNL     1      36.027  -9.928  -3.067  1.00  0.00    -0.267 OA
HETATM   26  C   UNL     1      36.828 -12.161  -2.958  1.00  0.00     0.043 A 
HETATM   27  C   UNL     1      36.280 -12.514  -4.197  1.00  0.00     0.018 A 
HETATM   28  C   UNL     1      37.546 -13.092  -2.188  1.00  0.00    -0.008 A 
HETATM   29  C   UNL     1      36.439 -13.811  -4.681  1.00  0.00     0.001 A 
HETATM   30  C   UNL     1      37.140 -14.751  -3.925  1.00  0.00     0.001 A 
HETATM   31  C   UNL     1      37.687 -14.396  -2.688  1.00  0.00     0.013 A 
ENDBRANCH   4  20
TORSDOF 2
ENDMDL
MODEL 6
REMARK VINA RESULT:      -9.1      1.504      2.833
REMARK  2 active torsions:
REMARK  status: ('A' for Active; 'I' for Inactive)
REMARK       I    between atoms: C_2  and  N_3 
REMARK       I    between atoms: C_2  and  N_21 
REMARK    1  A    between atoms: N_3  and  C_4 
REMARK    2  A    between atoms: C_7  and  C_10 
ROOT
HETATM    1  C   UNL     1      41.334 -15.516   0.987  1.00  0.00     0.036 A 
HETATM    2  C   UNL     1      40.917 -16.849   0.887  1.00  0.00     0.030 A 
HETATM    3  C   UNL     1      41.567 -17.856   1.610  1.00  0.00     0.014 A 
HETATM    4  C   UNL     1      42.658 -17.545   2.429  1.00  0.00    -0.024 A 
HETATM    5  C   UNL     1      43.097 -16.219   2.500  1.00  0.00     0.014 A 
HETATM    6  C   UNL     1      42.439 -15.212   1.785  1.00  0.00     0.030 A 
ENDROOT
BRANCH   1   7
HETATM    7  N   UNL     1      40.618 -14.550   0.249  1.00  0.00    -0.309 N 
HETATM    8  C   UNL     1      40.990 -13.990  -0.963  1.00  0.00     0.327 C 
HETATM    9  O   UNL     1      42.086 -14.181  -1.486  1.00  0.00    -0.247 OA
HETATM   10  N   UNL     1      40.004 -13.187  -1.525  1.00  0.00    -0.299 N 
HETATM   11  C   UNL     1      38.606 -13.064  -1.077  1.00  0.00     0.138 C 
HETATM   12  C   UNL     1      40.170 -12.364  -2.659  1.00  0.00     0.045 A 
HETATM   13  C   UNL     1      37.843 -12.265  -2.140  1.00  0.00     0.061 C 
HETATM   14  C   UNL     1      38.951 -11.786  -3.018  1.00  0.00    -0.030 A 
HETATM   15  C   UNL     1      38.854 -10.920  -4.098  1.00  0.00     0.009 A 
HETATM   16  C   UNL     1      40.011 -10.627  -4.820  1.00  0.00     0.001 A 
HETATM   17  C   UNL     1      41.237 -11.204  -4.460  1.00  0.00     0.002 A 
HETATM   18  C   UNL     1      41.321 -12.081  -3.375  1.00  0.00     0.030 A 
HETATM   19  H   UNL     1      39.903 -14.053   0.753  1.00  0.00     0.170 HD
ENDBRANCH   1   7
BRANCH   4  20
HETATM   20  C   UNL     1      43.331 -18.591   3.226  1.00  0.00     0.001 A 
HETATM   21  C   UNL     1      43.965 -19.559   2.540  1.00  0.00     0.104 A 
HETATM   22  N   UNL     1      44.650 -20.572   3.156  1.00  0.00    -0.332 N 
HETATM   23  C   UNL     1      44.780 -20.710   4.518  1.00  0.00     0.256 A 
HETATM   24  H   UNL     1      45.118 -21.280   2.602  1.00  0.00     0.168 HD
HETATM   25  O   UNL     1      45.411 -21.635   5.016  1.00  0.00    -0.267 OA
HETATM   26  C   UNL     1      44.110 -19.677   5.345  1.00  0.00     0.043 A 
HETATM   27  C   UNL     1      44.194 -19.745   6.740  1.00  0.00     0.018 A 
HETATM   28  C   UNL     1      43.397 -18.645   4.709  1.00  0.00    -0.008 A 
HETATM   29  C   UNL     1      43.559 -18.782   7.522  1.00  0.00     0.001 A 
HETATM   30  C   UNL     1      42.839 -17.758   6.908  1.00  0.00     0.001 A 
HETATM   31  C   UNL     1      42.755 -17.691   5.514  1.00  0.00     0.013 A 
ENDBRANCH   4  20
TORSDOF 2
ENDMDL
MODEL 7
REMARK VINA RESULT:      -9.0      4.797      5.862
REMARK  2 active torsions:
REMARK  status: ('A' for Active; 'I' for Inactive)
REMARK       I    between atoms: C_2  and  N_3 
REMARK       I    between atoms: C_2  and  N_21 
REMARK    1  A    between atoms: N_3  and  C_4 
REMARK    2  A    between atoms: C_7  and  C_10 
ROOT
HETATM    1  C   UNL     1      41.897 -14.874   6.003  1.00  0.00     0.036 A 
HETATM    2  C   UNL     1      43.283 -15.044   5.889  1.00  0.00     0.030 A 
HETATM    3  C   UNL     1      43.833 -16.318   5.705  1.00  0.00     0.014 A 
HETATM    4  C   UNL     1      43.004 -17.443   5.652  1.00  0.00    -0.024 A 
HETATM    5  C   UNL     1      41.623 -17.278   5.803  1.00  0.00     0.014 A 
HETATM    6  C   UNL     1      41.075 -16.002   5.976  1.00  0.00     0.030 A 
ENDROOT
BRANCH   1   7
HETATM    7  N   UNL     1      41.411 -13.560   6.163  1.00  0.00    -0.309 N 
HETATM    8  C   UNL     1      40.574 -12.874   5.297  1.00  0.00     0.327 C 
HETATM    9  O   UNL     1      40.255 -13.300   4.189  1.00  0.00    -0.247 OA
HETATM   10  N   UNL     1      40.138 -11.654   5.802  1.00  0.00    -0.299 N 
HETATM   11  C   UNL     1      40.303 -11.162   7.181  1.00  0.00     0.138 C 
HETATM   12  C   UNL     1      39.421 -10.680   5.076  1.00  0.00     0.045 A 
HETATM   13  C   UNL     1      39.451  -9.895   7.330  1.00  0.00     0.061 C 
HETATM   14  C   UNL     1      39.043  -9.632   5.917  1.00  0.00    -0.030 A 
HETATM   15  C   UNL     1      38.337  -8.539   5.436  1.00  0.00     0.009 A 
HETATM   16  C   UNL     1      38.017  -8.501   4.079  1.00  0.00     0.001 A 
HETATM   17  C   UNL     1      38.398  -9.551   3.231  1.00  0.00     0.002 A 
HETATM   18  C   UNL     1      39.102 -10.651   3.729  1.00  0.00     0.030 A 
HETATM   19  H   UNL     1      41.898 -12.990   6.834  1.00  0.00     0.170 HD
ENDBRANCH   1   7
BRANCH   4  20
HETATM   20  C   UNL     1      43.566 -18.790   5.422  1.00  0.00     0.001 A 
HETATM   21  C   UNL     1      43.928 -19.489   6.514  1.00  0.00     0.104 A 
HETATM   22  N   UNL     1      44.437 -20.758   6.442  1.00  0.00    -0.332 N 
HETATM   23  C   UNL     1      44.623 -21.458   5.273  1.00  0.00     0.256 A 
HETATM   24  H   UNL     1      44.694 -21.252   7.289  1.00  0.00     0.168 HD
HETATM   25  O   UNL     1      45.079 -22.596   5.269  1.00  0.00    -0.267 OA
HETATM   26  C   UNL     1      44.244 -20.755   4.024  1.00  0.00     0.043 A 
HETATM   27  C   UNL     1      44.402 -21.400   2.791  1.00  0.00     0.018 A 
HETATM   28  C   UNL     1      43.733 -19.448   4.100  1.00  0.00    -0.008 A 
HETATM   29  C   UNL     1      44.056 -20.740   1.614  1.00  0.00     0.001 A 
HETATM   30  C   UNL     1      43.557 -19.439   1.671  1.00  0.00     0.001 A 
HETATM   31  C   UNL     1      43.400 -18.796   2.902  1.00  0.00     0.013 A 
ENDBRANCH   4  20
TORSDOF 2
ENDMDL
MODEL 8
REMARK VINA RESULT:      -9.0      1.442      2.143
REMARK  2 active torsions:
REMARK  status: ('A' for Active; 'I' for Inactive)
REMARK       I    between atoms: C_2  and  N_3 
REMARK       I    between atoms: C_2  and  N_21 
REMARK    1  A    between atoms: N_3  and  C_4 
REMARK    2  A    between atoms: C_7  and  C_10 
ROOT
HETATM    1  C   UNL     1      41.157 -14.341   1.713  1.00  0.00     0.036 A 
HETATM    2  C   UNL     1      42.324 -14.056   2.432  1.00  0.00     0.030 A 
HETATM    3  C   UNL     1      42.813 -14.957   3.385  1.00  0.00     0.014 A 
HETATM    4  C   UNL     1      42.127 -16.148   3.646  1.00  0.00    -0.024 A 
HETATM    5  C   UNL     1      40.942 -16.415   2.955  1.00  0.00     0.014 A 
HETATM    6  C   UNL     1      40.462 -15.519   1.994  1.00  0.00     0.030 A 
ENDROOT
BRANCH   1   7
HETATM    7  N   UNL     1      40.736 -13.399   0.751  1.00  0.00    -0.309 N 
HETATM    8  C   UNL     1      41.261 -13.220  -0.520  1.00  0.00     0.327 C 
HETATM    9  O   UNL     1      42.273 -13.793  -0.918  1.00  0.00    -0.247 OA
HETATM   10  N   UNL     1      40.533 -12.324  -1.295  1.00  0.00    -0.299 N 
HETATM   11  C   UNL     1      39.214 -11.752  -0.977  1.00  0.00     0.138 C 
HETATM   12  C   UNL     1      40.929 -11.828  -2.556  1.00  0.00     0.045 A 
HETATM   13  C   UNL     1      38.707 -11.023  -2.227  1.00  0.00     0.061 C 
HETATM   14  C   UNL     1      39.915 -11.041  -3.104  1.00  0.00    -0.030 A 
HETATM   15  C   UNL     1      40.067 -10.425  -4.338  1.00  0.00     0.009 A 
HETATM   16  C   UNL     1      41.270 -10.599  -5.023  1.00  0.00     0.001 A 
HETATM   17  C   UNL     1      42.292 -11.387  -4.472  1.00  0.00     0.002 A 
HETATM   18  C   UNL     1      42.124 -12.009  -3.232  1.00  0.00     0.030 A 
HETATM   19  H   UNL     1      40.174 -12.640   1.096  1.00  0.00     0.170 HD
ENDBRANCH   1   7
BRANCH   4  20
HETATM   20  C   UNL     1      42.650 -17.125   4.624  1.00  0.00     0.001 A 
HETATM   21  C   UNL     1      42.384 -16.885   5.920  1.00  0.00     0.104 A 
HETATM   22  N   UNL     1      42.787 -17.724   6.924  1.00  0.00    -0.332 N 
HETATM   23  C   UNL     1      43.484 -18.895   6.730  1.00  0.00     0.256 A 
HETATM   24  H   UNL     1      42.564 -17.508   7.889  1.00  0.00     0.168 HD
HETATM   25  O   UNL     1      43.814 -19.612   7.667  1.00  0.00    -0.267 OA
HETATM   26  C   UNL     1      43.811 -19.232   5.323  1.00  0.00     0.043 A 
HETATM   27  C   UNL     1      44.518 -20.407   5.040  1.00  0.00     0.018 A 
HETATM   28  C   UNL     1      43.407 -18.361   4.296  1.00  0.00    -0.008 A 
HETATM   29  C   UNL     1      44.836 -20.724   3.721  1.00  0.00     0.001 A 
HETATM   30  C   UNL     1      44.452 -19.867   2.691  1.00  0.00     0.001 A 
HETATM   31  C   UNL     1      43.746 -18.693   2.975  1.00  0.00     0.013 A 
ENDBRANCH   4  20
TORSDOF 2
ENDMDL
MODEL 9
REMARK VINA RESULT:      -9.0      2.154      3.354
REMARK  2 active torsions:
REMARK  status: ('A' for Active; 'I' for Inactive)
REMARK       I    between atoms: C_2  and  N_3 
REMARK       I    between atoms: C_2  and  N_21 
REMARK    1  A    between atoms: N_3  and  C_4 
REMARK    2  A    between atoms: C_7  and  C_10 
ROOT
HETATM    1  C   UNL     1      40.305 -14.884   1.226  1.00  0.00     0.036 A 
HETATM    2  C   UNL     1      39.747 -15.926   1.977  1.00  0.00     0.030 A 
HETATM    3  C   UNL     1      40.556 -16.941   2.501  1.00  0.00     0.014 A 
HETATM    4  C   UNL     1      41.934 -16.938   2.263  1.00  0.00    -0.024 A 
HETATM    5  C   UNL     1      42.486 -15.918   1.481  1.00  0.00     0.014 A 
HETATM    6  C   UNL     1      41.677 -14.898   0.969  1.00  0.00     0.030 A 
ENDROOT
BRANCH   1   7
HETATM    7  N   UNL     1      39.433 -13.883   0.750  1.00  0.00    -0.309 N 
HETATM    8  C   UNL     1      38.974 -13.733  -0.550  1.00  0.00     0.327 C 
HETATM    9  O   UNL     1      39.391 -14.401  -1.493  1.00  0.00    -0.247 OA
HETATM   10  N   UNL     1      38.000 -12.749  -0.680  1.00  0.00    -0.299 N 
HETATM   11  C   UNL     1      37.303 -12.048   0.413  1.00  0.00     0.138 C 
HETATM   12  C   UNL     1      37.482 -12.271  -1.902  1.00  0.00     0.045 A 
HETATM   13  C   UNL     1      36.154 -11.243  -0.206  1.00  0.00     0.061 C 
HETATM   14  C   UNL     1      36.442 -11.370  -1.666  1.00  0.00    -0.030 A 
HETATM   15  C   UNL     1      35.775 -10.747  -2.711  1.00  0.00     0.009 A 
HETATM   16  C   UNL     1      36.175 -11.032  -4.016  1.00  0.00     0.001 A 
HETATM   17  C   UNL     1      37.221 -11.935  -4.257  1.00  0.00     0.002 A 
HETATM   18  C   UNL     1      37.880 -12.562  -3.196  1.00  0.00     0.030 A 
HETATM   19  H   UNL     1      39.326 -13.076   1.341  1.00  0.00     0.170 HD
ENDBRANCH   1   7
BRANCH   4  20
HETATM   20  C   UNL     1      42.806 -17.982   2.839  1.00  0.00     0.001 A 
HETATM   21  C   UNL     1      43.003 -19.085   2.093  1.00  0.00     0.104 A 
HETATM   22  N   UNL     1      43.808 -20.115   2.498  1.00  0.00    -0.332 N 
HETATM   23  C   UNL     1      44.508 -20.139   3.682  1.00  0.00     0.256 A 
HETATM   24  H   UNL     1      43.933 -20.927   1.904  1.00  0.00     0.168 HD
HETATM   25  O   UNL     1      45.221 -21.087   3.991  1.00  0.00    -0.267 OA
HETATM   26  C   UNL     1      44.346 -18.954   4.559  1.00  0.00     0.043 A 
HETATM   27  C   UNL     1      45.025 -18.901   5.782  1.00  0.00     0.018 A 
HETATM   28  C   UNL     1      43.508 -17.905   4.146  1.00  0.00    -0.008 A 
HETATM   29  C   UNL     1      44.869 -17.794   6.614  1.00  0.00     0.001 A 
HETATM   30  C   UNL     1      44.034 -16.748   6.225  1.00  0.00     0.001 A 
HETATM   31  C   UNL     1      43.356 -16.803   5.003  1.00  0.00     0.013 A 
ENDBRANCH   4  20
TORSDOF 2
ENDMDL
MODEL 10
REMARK VINA RESULT:      -9.0      7.517      9.826
REMARK  2 active torsions:
REMARK  status: ('A' for Active; 'I' for Inactive)
REMARK       I    between atoms: C_2  and  N_3 
REMARK       I    between atoms: C_2  and  N_21 
REMARK    1  A    between atoms: N_3  and  C_4 
REMARK    2  A    between atoms: C_7  and  C_10 
ROOT
HETATM    1  C   UNL     1      40.492 -12.309   6.229  1.00  0.00     0.036 A 
HETATM    2  C   UNL     1      41.546 -11.403   6.403  1.00  0.00     0.030 A 
HETATM    3  C   UNL     1      41.591 -10.567   7.525  1.00  0.00     0.014 A 
HETATM    4  C   UNL     1      40.569 -10.612   8.479  1.00  0.00    -0.024 A 
HETATM    5  C   UNL     1      39.498 -11.490   8.287  1.00  0.00     0.014 A 
HETATM    6  C   UNL     1      39.461 -12.333   7.171  1.00  0.00     0.030 A 
ENDROOT
BRANCH   1   7
HETATM    7  N   UNL     1      40.524 -13.137   5.088  1.00  0.00    -0.309 N 
HETATM    8  C   UNL     1      41.180 -14.352   4.963  1.00  0.00     0.327 C 
HETATM    9  O   UNL     1      41.942 -14.797   5.817  1.00  0.00    -0.247 OA
HETATM   10  N   UNL     1      40.895 -15.012   3.772  1.00  0.00    -0.299 N 
HETATM   11  C   UNL     1      39.853 -14.655   2.794  1.00  0.00     0.138 C 
HETATM   12  C   UNL     1      41.546 -16.174   3.309  1.00  0.00     0.045 A 
HETATM   13  C   UNL     1      39.751 -15.801   1.781  1.00  0.00     0.061 C 
HETATM   14  C   UNL     1      40.937 -16.635   2.140  1.00  0.00    -0.030 A 
HETATM   15  C   UNL     1      41.403 -17.762   1.478  1.00  0.00     0.009 A 
HETATM   16  C   UNL     1      42.512 -18.427   2.002  1.00  0.00     0.001 A 
HETATM   17  C   UNL     1      43.128 -17.965   3.174  1.00  0.00     0.002 A 
HETATM   18  C   UNL     1      42.644 -16.834   3.837  1.00  0.00     0.030 A 
HETATM   19  H   UNL     1      40.250 -12.703   4.223  1.00  0.00     0.170 HD
ENDBRANCH   1   7
BRANCH   4  20
HETATM   20  C   UNL     1      40.621  -9.762   9.686  1.00  0.00     0.001 A 
HETATM   21  C   UNL     1      39.613  -8.886   9.853  1.00  0.00     0.104 A 
HETATM   22  N   UNL     1      39.527  -8.059  10.941  1.00  0.00    -0.332 N 
HETATM   23  C   UNL     1      40.433  -8.035  11.976  1.00  0.00     0.256 A 
HETATM   24  H   UNL     1      38.749  -7.416  11.030  1.00  0.00     0.168 HD
HETATM   25  O   UNL     1      40.302  -7.276  12.929  1.00  0.00    -0.267 OA
HETATM   26  C   UNL     1      41.573  -8.977  11.867  1.00  0.00     0.043 A 
HETATM   27  C   UNL     1      42.539  -9.014  12.879  1.00  0.00     0.018 A 
HETATM   28  C   UNL     1      41.665  -9.815  10.742  1.00  0.00    -0.008 A 
HETATM   29  C   UNL     1      43.617  -9.891  12.777  1.00  0.00     0.001 A 
HETATM   30  C   UNL     1      43.730 -10.723  11.664  1.00  0.00     0.001 A 
HETATM   31  C   UNL     1      42.764 -10.684  10.653  1.00  0.00     0.013 A 
ENDBRANCH   4  20
TORSDOF 2
ENDMDL
