MODEL 1
REMARK VINA RESULT:      -8.1      0.000      0.000
REMARK  9 active torsions:
REMARK  status: ('A' for Active; 'I' for Inactive)
REMARK    1  A    between atoms: C_4  and  C_5 
REMARK    2  A    between atoms: C_7  and  C_8 
REMARK    3  A    between atoms: C_8  and  C_9 
REMARK       I    between atoms: C_9  and  N_10 
REMARK    4  A    between atoms: N_10  and  C_11 
REMARK    5  A    between atoms: C_11  and  C_12 
REMARK    6  A    between atoms: C_12  and  N_13 
REMARK    7  A    between atoms: C_27  and  C_28 
REMARK    8  A    between atoms: C_28  and  O_29 
REMARK    9  A    between atoms: O_29  and  C_30 
ROOT
HETATM    1  C   UNL     1      42.314 -15.534   5.348  1.00  0.00     0.166 C 
HETATM    2  N   UNL     1      42.881 -14.384   6.117  1.00  0.00    -0.319 N 
HETATM    3  C   UNL     1      42.556 -13.135   6.277  1.00  0.00     0.011 C 
HETATM    4  C   UNL     1      44.147 -14.737   6.947  1.00  0.00     0.170 C 
HETATM    5  S   UNL     1      44.729 -13.395   7.873  1.00  0.00    -0.086 SA
HETATM    6  C   UNL     1      43.531 -12.302   7.088  1.00  0.00     0.135 C 
HETATM    7  N   UNL     1      44.746 -15.871   6.972  1.00  0.00    -0.229 NA
HETATM    8  C   UNL     1      44.283 -16.884   6.172  1.00  0.00     0.048 C 
HETATM    9  C   UNL     1      45.084 -18.162   6.306  1.00  0.00     0.071 C 
HETATM   10  C   UNL     1      43.200 -16.749   5.382  1.00  0.00     0.069 C 
ENDROOT
BRANCH   3  11
HETATM   11  C   UNL     1      41.381 -12.503   5.575  1.00  0.00     0.156 C 
BRANCH  11  12
HETATM   12  C   UNL     1      40.702 -11.385   6.341  1.00  0.00     0.223 C 
HETATM   13  N   UNL     1      40.204 -11.736   7.579  1.00  0.00    -0.359 N 
HETATM   14  H   UNL     1      40.468 -12.657   7.923  1.00  0.00     0.162 HD
HETATM   15  O   UNL     1      40.613 -10.250   5.891  1.00  0.00    -0.273 OA
BRANCH  13  16
HETATM   16  C   UNL     1      40.021 -10.737   8.641  1.00  0.00     0.150 C 
BRANCH  16  17
HETATM   17  C   UNL     1      40.081 -11.228  10.104  1.00  0.00     0.254 C 
BRANCH  17  18
HETATM   18  N   UNL     1      41.504 -11.260  10.640  1.00  0.00    -0.070 N 
HETATM   19  H   UNL     1      41.861 -12.200  10.428  1.00  0.00     0.279 HD
HETATM   20  C   UNL     1      42.408 -10.241   9.981  1.00  0.00     0.235 C 
HETATM   21  C   UNL     1      43.827 -10.396  10.509  1.00  0.00     0.028 C 
HETATM   22  C   UNL     1      43.881 -10.281  12.027  1.00  0.00     0.003 C 
HETATM   23  C   UNL     1      42.922 -11.267  12.681  1.00  0.00     0.028 C 
HETATM   24  C   UNL     1      41.505 -11.112  12.150  1.00  0.00     0.235 C 
ENDBRANCH  17  18
ENDBRANCH  16  17
ENDBRANCH  13  16
ENDBRANCH  11  12
ENDBRANCH   3  11
BRANCH   1  25
HETATM   25  C   UNL     1      41.932 -15.102   3.935  1.00  0.00    -0.030 A 
HETATM   26  C   UNL     1      40.598 -15.265   3.506  1.00  0.00     0.016 A 
HETATM   27  C   UNL     1      40.181 -14.829   2.243  1.00  0.00    -0.061 A 
HETATM   28  C   UNL     1      38.759 -15.030   1.804  1.00  0.00     0.048 C 
HETATM   29  C   UNL     1      41.126 -14.277   1.376  1.00  0.00     0.007 A 
HETATM   30  C   UNL     1      42.459 -14.148   1.768  1.00  0.00     0.001 A 
HETATM   31  C   UNL     1      42.865 -14.556   3.040  1.00  0.00     0.009 A 
ENDBRANCH   1  25
BRANCH  10  32
HETATM   32  C   UNL     1      42.778 -17.852   4.488  1.00  0.00     0.294 C 
HETATM   33  O   UNL     1      41.741 -18.466   4.650  1.00  0.00    -0.259 OA
BRANCH  32  34
HETATM   34  O   UNL     1      43.660 -17.934   3.467  1.00  0.00    -0.313 OA
BRANCH  34  35
HETATM   35  C   UNL     1      43.197 -18.518   2.232  1.00  0.00     0.124 C 
HETATM   36  C   UNL     1      43.755 -17.654   1.106  1.00  0.00     0.040 C 
HETATM   37  C   UNL     1      43.722 -19.944   2.123  1.00  0.00     0.040 C 
ENDBRANCH  34  35
ENDBRANCH  32  34
ENDBRANCH  10  32
TORSDOF 9
ENDMDL
MODEL 2
REMARK VINA RESULT:      -7.8      3.241      5.519
REMARK  9 active torsions:
REMARK  status: ('A' for Active; 'I' for Inactive)
REMARK    1  A    between atoms: C_4  and  C_5 
REMARK    2  A    between atoms: C_7  and  C_8 
REMARK    3  A    between atoms: C_8  and  C_9 
REMARK       I    between atoms: C_9  and  N_10 
REMARK    4  A    between atoms: N_10  and  C_11 
REMARK    5  A    between atoms: C_11  and  C_12 
REMARK    6  A    between atoms: C_12  and  N_13 
REMARK    7  A    between atoms: C_27  and  C_28 
REMARK    8  A    between atoms: C_28  and  O_29 
REMARK    9  A    between atoms: O_29  and  C_30 
ROOT
HETATM    1  C   UNL     1      41.272 -13.459   1.856  1.00  0.00     0.166 C 
HETATM    2  N   UNL     1      40.634 -13.071   3.152  1.00  0.00    -0.319 N 
HETATM    3  C   UNL     1      40.781 -13.429   4.393  1.00  0.00     0.011 C 
HETATM    4  C   UNL     1      39.547 -11.967   3.018  1.00  0.00     0.170 C 
HETATM    5  S   UNL     1      38.884 -11.502   4.548  1.00  0.00    -0.086 SA
HETATM    6  C   UNL     1      39.797 -12.819   5.373  1.00  0.00     0.135 C 
HETATM    7  N   UNL     1      39.135 -11.435   1.926  1.00  0.00    -0.229 NA
HETATM    8  C   UNL     1      39.647 -11.884   0.736  1.00  0.00     0.048 C 
HETATM    9  C   UNL     1      39.073 -11.165  -0.468  1.00  0.00     0.071 C 
HETATM   10  C   UNL     1      40.593 -12.841   0.665  1.00  0.00     0.069 C 
ENDROOT
BRANCH   3  11
HETATM   11  C   UNL     1      41.752 -14.499   4.822  1.00  0.00     0.156 C 
BRANCH  11  12
HETATM   12  C   UNL     1      43.065 -13.988   5.380  1.00  0.00     0.223 C 
HETATM   13  N   UNL     1      43.205 -14.089   6.749  1.00  0.00    -0.359 N 
HETATM   14  H   UNL     1      42.489 -14.628   7.233  1.00  0.00     0.162 HD
HETATM   15  O   UNL     1      43.941 -13.527   4.660  1.00  0.00    -0.273 OA
BRANCH  13  16
HETATM   16  C   UNL     1      44.529 -14.163   7.380  1.00  0.00     0.150 C 
BRANCH  16  17
HETATM   17  C   UNL     1      45.054 -12.900   8.094  1.00  0.00     0.254 C 
BRANCH  17  18
HETATM   18  N   UNL     1      44.141 -12.460   9.228  1.00  0.00    -0.070 N 
HETATM   19  H   UNL     1      43.420 -13.189   9.305  1.00  0.00     0.279 HD
HETATM   20  C   UNL     1      44.858 -12.350  10.556  1.00  0.00     0.235 C 
HETATM   21  C   UNL     1      43.861 -11.991  11.649  1.00  0.00     0.028 C 
HETATM   22  C   UNL     1      43.103 -10.711  11.324  1.00  0.00     0.003 C 
HETATM   23  C   UNL     1      42.435 -10.806   9.958  1.00  0.00     0.028 C 
HETATM   24  C   UNL     1      43.433 -11.167   8.867  1.00  0.00     0.235 C 
ENDBRANCH  17  18
ENDBRANCH  16  17
ENDBRANCH  13  16
ENDBRANCH  11  12
ENDBRANCH   3  11
BRANCH   1  25
HETATM   25  C   UNL     1      41.409 -14.976   1.756  1.00  0.00    -0.030 A 
HETATM   26  C   UNL     1      42.694 -15.539   1.605  1.00  0.00     0.016 A 
HETATM   27  C   UNL     1      42.881 -16.926   1.571  1.00  0.00    -0.061 A 
HETATM   28  C   UNL     1      44.257 -17.500   1.392  1.00  0.00     0.048 C 
HETATM   29  C   UNL     1      41.760 -17.758   1.627  1.00  0.00     0.007 A 
HETATM   30  C   UNL     1      40.479 -17.216   1.732  1.00  0.00     0.001 A 
HETATM   31  C   UNL     1      40.299 -15.834   1.797  1.00  0.00     0.009 A 
ENDBRANCH   1  25
BRANCH  10  32
HETATM   32  C   UNL     1      41.066 -13.336  -0.648  1.00  0.00     0.294 C 
HETATM   33  O   UNL     1      42.167 -13.069  -1.091  1.00  0.00    -0.259 OA
BRANCH  32  34
HETATM   34  O   UNL     1      40.136 -14.181  -1.145  1.00  0.00    -0.313 OA
BRANCH  34  35
HETATM   35  C   UNL     1      40.134 -14.407  -2.570  1.00  0.00     0.124 C 
HETATM   36  C   UNL     1      40.764 -15.777  -2.795  1.00  0.00     0.040 C 
HETATM   37  C   UNL     1      38.698 -14.387  -3.079  1.00  0.00     0.040 C 
ENDBRANCH  34  35
ENDBRANCH  32  34
ENDBRANCH  10  32
TORSDOF 9
ENDMDL
MODEL 3
REMARK VINA RESULT:      -7.7      3.670      7.911
REMARK  9 active torsions:
REMARK  status: ('A' for Active; 'I' for Inactive)
REMARK    1  A    between atoms: C_4  and  C_5 
REMARK    2  A    between atoms: C_7  and  C_8 
REMARK    3  A    between atoms: C_8  and  C_9 
REMARK       I    between atoms: C_9  and  N_10 
REMARK    4  A    between atoms: N_10  and  C_11 
REMARK    5  A    between atoms: C_11  and  C_12 
REMARK    6  A    between atoms: C_12  and  N_13 
REMARK    7  A    between atoms: C_27  and  C_28 
REMARK    8  A    between atoms: C_28  and  O_29 
REMARK    9  A    between atoms: O_29  and  C_30 
ROOT
HETATM    1  C   UNL     1      40.706 -13.493   2.063  1.00  0.00     0.166 C 
HETATM    2  N   UNL     1      40.697 -13.143   3.517  1.00  0.00    -0.319 N 
HETATM    3  C   UNL     1      41.425 -13.466   4.545  1.00  0.00     0.011 C 
HETATM    4  C   UNL     1      39.577 -12.145   3.923  1.00  0.00     0.170 C 
HETATM    5  S   UNL     1      39.647 -11.717   5.599  1.00  0.00    -0.086 SA
HETATM    6  C   UNL     1      40.947 -12.932   5.881  1.00  0.00     0.135 C 
HETATM    7  N   UNL     1      38.668 -11.671   3.153  1.00  0.00    -0.229 NA
HETATM    8  C   UNL     1      38.618 -12.090   1.848  1.00  0.00     0.048 C 
HETATM    9  C   UNL     1      37.497 -11.446   1.059  1.00  0.00     0.071 C 
HETATM   10  C   UNL     1      39.507 -12.959   1.329  1.00  0.00     0.069 C 
ENDROOT
BRANCH   3  11
HETATM   11  C   UNL     1      42.575 -14.438   4.455  1.00  0.00     0.156 C 
BRANCH  11  12
HETATM   12  C   UNL     1      42.276 -15.833   4.967  1.00  0.00     0.223 C 
HETATM   13  N   UNL     1      43.250 -16.776   4.713  1.00  0.00    -0.359 N 
HETATM   14  H   UNL     1      44.132 -16.422   4.347  1.00  0.00     0.162 HD
HETATM   15  O   UNL     1      41.244 -16.097   5.570  1.00  0.00    -0.273 OA
BRANCH  13  16
HETATM   16  C   UNL     1      43.397 -17.971   5.555  1.00  0.00     0.150 C 
BRANCH  16  17
HETATM   17  C   UNL     1      44.589 -18.909   5.268  1.00  0.00     0.254 C 
BRANCH  17  18
HETATM   18  N   UNL     1      44.198 -20.078   4.379  1.00  0.00    -0.070 N 
HETATM   19  H   UNL     1      43.225 -20.303   4.624  1.00  0.00     0.279 HD
HETATM   20  C   UNL     1      44.257 -19.747   2.904  1.00  0.00     0.235 C 
HETATM   21  C   UNL     1      43.770 -20.937   2.089  1.00  0.00     0.028 C 
HETATM   22  C   UNL     1      44.565 -22.199   2.403  1.00  0.00     0.003 C 
HETATM   23  C   UNL     1      44.552 -22.492   3.898  1.00  0.00     0.028 C 
HETATM   24  C   UNL     1      45.036 -21.300   4.710  1.00  0.00     0.235 C 
ENDBRANCH  17  18
ENDBRANCH  16  17
ENDBRANCH  13  16
ENDBRANCH  11  12
ENDBRANCH   3  11
BRANCH   1  25
HETATM   25  C   UNL     1      40.915 -14.993   1.870  1.00  0.00    -0.030 A 
HETATM   26  C   UNL     1      42.138 -15.451   1.337  1.00  0.00     0.016 A 
HETATM   27  C   UNL     1      42.405 -16.818   1.199  1.00  0.00    -0.061 A 
HETATM   28  C   UNL     1      43.709 -17.279   0.612  1.00  0.00     0.048 C 
HETATM   29  C   UNL     1      41.410 -17.737   1.542  1.00  0.00     0.007 A 
HETATM   30  C   UNL     1      40.179 -17.298   2.029  1.00  0.00     0.001 A 
HETATM   31  C   UNL     1      39.927 -15.936   2.196  1.00  0.00     0.009 A 
ENDBRANCH   1  25
BRANCH  10  32
HETATM   32  C   UNL     1      39.371 -13.431  -0.068  1.00  0.00     0.294 C 
HETATM   33  O   UNL     1      38.519 -14.229  -0.409  1.00  0.00    -0.259 OA
BRANCH  32  34
HETATM   34  O   UNL     1      40.242 -12.743  -0.838  1.00  0.00    -0.313 OA
BRANCH  34  35
HETATM   35  C   UNL     1      41.111 -13.503  -1.703  1.00  0.00     0.124 C 
HETATM   36  C   UNL     1      40.514 -13.421  -3.103  1.00  0.00     0.040 C 
HETATM   37  C   UNL     1      42.505 -12.888  -1.678  1.00  0.00     0.040 C 
ENDBRANCH  34  35
ENDBRANCH  32  34
ENDBRANCH  10  32
TORSDOF 9
ENDMDL
MODEL 4
REMARK VINA RESULT:      -7.7      2.973      5.618
REMARK  9 active torsions:
REMARK  status: ('A' for Active; 'I' for Inactive)
REMARK    1  A    between atoms: C_4  and  C_5 
REMARK    2  A    between atoms: C_7  and  C_8 
REMARK    3  A    between atoms: C_8  and  C_9 
REMARK       I    between atoms: C_9  and  N_10 
REMARK    4  A    between atoms: N_10  and  C_11 
REMARK    5  A    between atoms: C_11  and  C_12 
REMARK    6  A    between atoms: C_12  and  N_13 
REMARK    7  A    between atoms: C_27  and  C_28 
REMARK    8  A    between atoms: C_28  and  O_29 
REMARK    9  A    between atoms: O_29  and  C_30 
ROOT
HETATM    1  C   UNL     1      40.652 -15.508   2.698  1.00  0.00     0.166 C 
HETATM    2  N   UNL     1      41.446 -16.731   3.030  1.00  0.00    -0.319 N 
HETATM    3  C   UNL     1      41.750 -17.361   4.126  1.00  0.00     0.011 C 
HETATM    4  C   UNL     1      42.045 -17.454   1.791  1.00  0.00     0.170 C 
HETATM    5  S   UNL     1      42.897 -18.900   2.215  1.00  0.00    -0.086 SA
HETATM    6  C   UNL     1      42.705 -18.529   3.968  1.00  0.00     0.135 C 
HETATM    7  N   UNL     1      41.963 -17.064   0.572  1.00  0.00    -0.229 NA
HETATM    8  C   UNL     1      41.331 -15.879   0.295  1.00  0.00     0.048 C 
HETATM    9  C   UNL     1      41.309 -15.547  -1.183  1.00  0.00     0.071 C 
HETATM   10  C   UNL     1      40.760 -15.118   1.250  1.00  0.00     0.069 C 
ENDROOT
BRANCH   3  11
HETATM   11  C   UNL     1      41.324 -16.877   5.488  1.00  0.00     0.156 C 
BRANCH  11  12
HETATM   12  C   UNL     1      42.441 -16.764   6.508  1.00  0.00     0.223 C 
HETATM   13  N   UNL     1      43.261 -15.664   6.364  1.00  0.00    -0.359 N 
HETATM   14  H   UNL     1      42.956 -14.962   5.694  1.00  0.00     0.162 HD
HETATM   15  O   UNL     1      42.592 -17.589   7.399  1.00  0.00    -0.273 OA
BRANCH  13  16
HETATM   16  C   UNL     1      44.005 -15.111   7.504  1.00  0.00     0.150 C 
BRANCH  16  17
HETATM   17  C   UNL     1      44.587 -13.689   7.357  1.00  0.00     0.254 C 
BRANCH  17  18
HETATM   18  N   UNL     1      44.439 -12.873   8.631  1.00  0.00    -0.070 N 
HETATM   19  H   UNL     1      44.029 -13.510   9.326  1.00  0.00     0.279 HD
HETATM   20  C   UNL     1      45.760 -12.364   9.166  1.00  0.00     0.235 C 
HETATM   21  C   UNL     1      45.535 -11.634  10.483  1.00  0.00     0.028 C 
HETATM   22  C   UNL     1      44.527 -10.502  10.335  1.00  0.00     0.003 C 
HETATM   23  C   UNL     1      43.221 -11.010   9.738  1.00  0.00     0.028 C 
HETATM   24  C   UNL     1      43.449 -11.741   8.424  1.00  0.00     0.235 C 
ENDBRANCH  17  18
ENDBRANCH  16  17
ENDBRANCH  13  16
ENDBRANCH  11  12
ENDBRANCH   3  11
BRANCH   1  25
HETATM   25  C   UNL     1      40.989 -14.370   3.658  1.00  0.00    -0.030 A 
HETATM   26  C   UNL     1      40.019 -13.952   4.593  1.00  0.00     0.016 A 
HETATM   27  C   UNL     1      40.299 -12.956   5.536  1.00  0.00    -0.061 A 
HETATM   28  C   UNL     1      39.243 -12.518   6.510  1.00  0.00     0.048 C 
HETATM   29  C   UNL     1      41.546 -12.328   5.503  1.00  0.00     0.007 A 
HETATM   30  C   UNL     1      42.501 -12.700   4.556  1.00  0.00     0.001 A 
HETATM   31  C   UNL     1      42.231 -13.714   3.637  1.00  0.00     0.009 A 
ENDBRANCH   1  25
BRANCH  10  32
HETATM   32  C   UNL     1      40.147 -13.815   0.907  1.00  0.00     0.294 C 
HETATM   33  O   UNL     1      40.806 -12.806   0.740  1.00  0.00    -0.259 OA
BRANCH  32  34
HETATM   34  O   UNL     1      38.824 -14.004   0.713  1.00  0.00    -0.313 OA
BRANCH  34  35
HETATM   35  C   UNL     1      38.146 -13.100  -0.184  1.00  0.00     0.124 C 
HETATM   36  C   UNL     1      37.879 -13.877  -1.468  1.00  0.00     0.040 C 
HETATM   37  C   UNL     1      36.837 -12.651   0.453  1.00  0.00     0.040 C 
ENDBRANCH  34  35
ENDBRANCH  32  34
ENDBRANCH  10  32
TORSDOF 9
ENDMDL
MODEL 5
REMARK VINA RESULT:      -7.7      5.593      9.301
REMARK  9 active torsions:
REMARK  status: ('A' for Active; 'I' for Inactive)
REMARK    1  A    between atoms: C_4  and  C_5 
REMARK    2  A    between atoms: C_7  and  C_8 
REMARK    3  A    between atoms: C_8  and  C_9 
REMARK       I    between atoms: C_9  and  N_10 
REMARK    4  A    between atoms: N_10  and  C_11 
REMARK    5  A    between atoms: C_11  and  C_12 
REMARK    6  A    between atoms: C_12  and  N_13 
REMARK    7  A    between atoms: C_27  and  C_28 
REMARK    8  A    between atoms: C_28  and  O_29 
REMARK    9  A    between atoms: O_29  and  C_30 
ROOT
HETATM    1  C   UNL     1      41.565 -13.449  -0.961  1.00  0.00     0.166 C 
HETATM    2  N   UNL     1      41.507 -13.618   0.524  1.00  0.00    -0.319 N 
HETATM    3  C   UNL     1      41.064 -14.540   1.328  1.00  0.00     0.011 C 
HETATM    4  C   UNL     1      42.131 -12.439   1.322  1.00  0.00     0.170 C 
HETATM    5  S   UNL     1      42.102 -12.708   3.032  1.00  0.00    -0.086 SA
HETATM    6  C   UNL     1      41.123 -14.204   2.806  1.00  0.00     0.135 C 
HETATM    7  N   UNL     1      42.613 -11.359   0.827  1.00  0.00    -0.229 NA
HETATM    8  C   UNL     1      42.556 -11.167  -0.529  1.00  0.00     0.048 C 
HETATM    9  C   UNL     1      43.164  -9.852  -0.970  1.00  0.00     0.071 C 
HETATM   10  C   UNL     1      42.041 -12.083  -1.373  1.00  0.00     0.069 C 
ENDROOT
BRANCH   3  11
HETATM   11  C   UNL     1      40.387 -15.793   0.835  1.00  0.00     0.156 C 
BRANCH  11  12
HETATM   12  C   UNL     1      41.288 -17.006   0.719  1.00  0.00     0.223 C 
HETATM   13  N   UNL     1      42.633 -16.732   0.580  1.00  0.00    -0.359 N 
HETATM   14  H   UNL     1      42.908 -15.761   0.719  1.00  0.00     0.162 HD
HETATM   15  O   UNL     1      40.848 -18.148   0.757  1.00  0.00    -0.273 OA
BRANCH  13  16
HETATM   16  C   UNL     1      43.658 -17.702   0.988  1.00  0.00     0.150 C 
BRANCH  16  17
HETATM   17  C   UNL     1      43.738 -18.075   2.484  1.00  0.00     0.254 C 
BRANCH  17  18
HETATM   18  N   UNL     1      44.346 -19.451   2.701  1.00  0.00    -0.070 N 
HETATM   19  H   UNL     1      45.313 -19.387   2.359  1.00  0.00     0.279 HD
HETATM   20  C   UNL     1      44.377 -19.861   4.157  1.00  0.00     0.235 C 
HETATM   21  C   UNL     1      45.076 -21.206   4.297  1.00  0.00     0.028 C 
HETATM   22  C   UNL     1      44.417 -22.277   3.437  1.00  0.00     0.003 C 
HETATM   23  C   UNL     1      44.333 -21.831   1.983  1.00  0.00     0.028 C 
HETATM   24  C   UNL     1      43.637 -20.485   1.845  1.00  0.00     0.235 C 
ENDBRANCH  17  18
ENDBRANCH  16  17
ENDBRANCH  13  16
ENDBRANCH  11  12
ENDBRANCH   3  11
BRANCH   1  25
HETATM   25  C   UNL     1      40.239 -13.848  -1.602  1.00  0.00    -0.030 A 
HETATM   26  C   UNL     1      40.241 -14.791  -2.650  1.00  0.00     0.016 A 
HETATM   27  C   UNL     1      39.047 -15.237  -3.230  1.00  0.00    -0.061 A 
HETATM   28  C   UNL     1      39.078 -16.230  -4.357  1.00  0.00     0.048 C 
HETATM   29  C   UNL     1      37.840 -14.685  -2.795  1.00  0.00     0.007 A 
HETATM   30  C   UNL     1      37.824 -13.719  -1.790  1.00  0.00     0.001 A 
HETATM   31  C   UNL     1      39.013 -13.299  -1.192  1.00  0.00     0.009 A 
ENDBRANCH   1  25
BRANCH  10  32
HETATM   32  C   UNL     1      41.942 -11.800  -2.822  1.00  0.00     0.294 C 
HETATM   33  O   UNL     1      42.665 -12.331  -3.644  1.00  0.00    -0.259 OA
BRANCH  32  34
HETATM   34  O   UNL     1      40.880 -10.989  -3.027  1.00  0.00    -0.313 OA
BRANCH  34  35
HETATM   35  C   UNL     1      40.302 -10.969  -4.348  1.00  0.00     0.124 C 
HETATM   36  C   UNL     1      38.796 -11.114  -4.168  1.00  0.00     0.040 C 
HETATM   37  C   UNL     1      40.635  -9.643  -5.021  1.00  0.00     0.040 C 
ENDBRANCH  34  35
ENDBRANCH  32  34
ENDBRANCH  10  32
TORSDOF 9
ENDMDL
MODEL 6
REMARK VINA RESULT:      -7.6      2.455      4.237
REMARK  9 active torsions:
REMARK  status: ('A' for Active; 'I' for Inactive)
REMARK    1  A    between atoms: C_4  and  C_5 
REMARK    2  A    between atoms: C_7  and  C_8 
REMARK    3  A    between atoms: C_8  and  C_9 
REMARK       I    between atoms: C_9  and  N_10 
REMARK    4  A    between atoms: N_10  and  C_11 
REMARK    5  A    between atoms: C_11  and  C_12 
REMARK    6  A    between atoms: C_12  and  N_13 
REMARK    7  A    between atoms: C_27  and  C_28 
REMARK    8  A    between atoms: C_28  and  O_29 
REMARK    9  A    between atoms: O_29  and  C_30 
ROOT
HETATM    1  C   UNL     1      42.021 -14.427   2.794  1.00  0.00     0.166 C 
HETATM    2  N   UNL     1      40.818 -13.541   2.725  1.00  0.00    -0.319 N 
HETATM    3  C   UNL     1      40.304 -12.628   3.494  1.00  0.00     0.011 C 
HETATM    4  C   UNL     1      39.974 -13.718   1.432  1.00  0.00     0.170 C 
HETATM    5  S   UNL     1      38.631 -12.627   1.363  1.00  0.00    -0.086 SA
HETATM    6  C   UNL     1      38.969 -12.066   3.042  1.00  0.00     0.135 C 
HETATM    7  N   UNL     1      40.188 -14.567   0.495  1.00  0.00    -0.229 NA
HETATM    8  C   UNL     1      41.228 -15.451   0.626  1.00  0.00     0.048 C 
HETATM    9  C   UNL     1      41.363 -16.391  -0.554  1.00  0.00     0.071 C 
HETATM   10  C   UNL     1      42.058 -15.445   1.688  1.00  0.00     0.069 C 
ENDROOT
BRANCH   3  11
HETATM   11  C   UNL     1      40.898 -12.258   4.829  1.00  0.00     0.156 C 
BRANCH  11  12
HETATM   12  C   UNL     1      40.021 -12.562   6.028  1.00  0.00     0.223 C 
HETATM   13  N   UNL     1      40.374 -11.920   7.196  1.00  0.00    -0.359 N 
HETATM   14  H   UNL     1      41.085 -11.196   7.112  1.00  0.00     0.162 HD
HETATM   15  O   UNL     1      39.062 -13.319   5.954  1.00  0.00    -0.273 OA
BRANCH  13  16
HETATM   16  C   UNL     1      39.389 -11.661   8.255  1.00  0.00     0.150 C 
BRANCH  16  17
HETATM   17  C   UNL     1      39.751 -10.613   9.329  1.00  0.00     0.254 C 
BRANCH  17  18
HETATM   18  N   UNL     1      40.740 -11.154  10.349  1.00  0.00    -0.070 N 
HETATM   19  H   UNL     1      40.702 -12.178  10.260  1.00  0.00     0.279 HD
HETATM   20  C   UNL     1      42.161 -10.703  10.092  1.00  0.00     0.235 C 
HETATM   21  C   UNL     1      43.098 -11.354  11.100  1.00  0.00     0.028 C 
HETATM   22  C   UNL     1      42.677 -11.060  12.534  1.00  0.00     0.003 C 
HETATM   23  C   UNL     1      41.226 -11.461  12.768  1.00  0.00     0.028 C 
HETATM   24  C   UNL     1      40.292 -10.810  11.758  1.00  0.00     0.235 C 
ENDBRANCH  17  18
ENDBRANCH  16  17
ENDBRANCH  13  16
ENDBRANCH  11  12
ENDBRANCH   3  11
BRANCH   1  25
HETATM   25  C   UNL     1      42.161 -15.039   4.185  1.00  0.00    -0.030 A 
HETATM   26  C   UNL     1      43.317 -14.759   4.943  1.00  0.00     0.016 A 
HETATM   27  C   UNL     1      43.467 -15.244   6.248  1.00  0.00    -0.061 A 
HETATM   28  C   UNL     1      44.716 -14.946   7.028  1.00  0.00     0.048 C 
HETATM   29  C   UNL     1      42.473 -16.070   6.777  1.00  0.00     0.007 A 
HETATM   30  C   UNL     1      41.344 -16.392   6.024  1.00  0.00     0.001 A 
HETATM   31  C   UNL     1      41.182 -15.881   4.736  1.00  0.00     0.009 A 
ENDBRANCH   1  25
BRANCH  10  32
HETATM   32  C   UNL     1      43.126 -16.463   1.814  1.00  0.00     0.294 C 
HETATM   33  O   UNL     1      44.296 -16.217   1.588  1.00  0.00    -0.259 OA
BRANCH  32  34
HETATM   34  O   UNL     1      42.580 -17.594   2.313  1.00  0.00    -0.313 OA
BRANCH  34  35
HETATM   35  C   UNL     1      43.479 -18.654   2.700  1.00  0.00     0.124 C 
HETATM   36  C   UNL     1      43.295 -18.857   4.199  1.00  0.00     0.040 C 
HETATM   37  C   UNL     1      43.116 -19.922   1.938  1.00  0.00     0.040 C 
ENDBRANCH  34  35
ENDBRANCH  32  34
ENDBRANCH  10  32
TORSDOF 9
ENDMDL
MODEL 7
REMARK VINA RESULT:      -7.6      4.136      7.002
REMARK  9 active torsions:
REMARK  status: ('A' for Active; 'I' for Inactive)
REMARK    1  A    between atoms: C_4  and  C_5 
REMARK    2  A    between atoms: C_7  and  C_8 
REMARK    3  A    between atoms: C_8  and  C_9 
REMARK       I    between atoms: C_9  and  N_10 
REMARK    4  A    between atoms: N_10  and  C_11 
REMARK    5  A    between atoms: C_11  and  C_12 
REMARK    6  A    between atoms: C_12  and  N_13 
REMARK    7  A    between atoms: C_27  and  C_28 
REMARK    8  A    between atoms: C_28  and  O_29 
REMARK    9  A    between atoms: O_29  and  C_30 
ROOT
HETATM    1  C   UNL     1      41.514 -13.222   0.484  1.00  0.00     0.166 C 
HETATM    2  N   UNL     1      41.214 -12.296   1.619  1.00  0.00    -0.319 N 
HETATM    3  C   UNL     1      41.548 -12.243   2.875  1.00  0.00     0.011 C 
HETATM    4  C   UNL     1      40.308 -11.093   1.235  1.00  0.00     0.170 C 
HETATM    5  S   UNL     1      40.044 -10.012   2.562  1.00  0.00    -0.086 SA
HETATM    6  C   UNL     1      40.886 -11.143   3.684  1.00  0.00     0.135 C 
HETATM    7  N   UNL     1      39.776 -10.880   0.088  1.00  0.00    -0.229 NA
HETATM    8  C   UNL     1      39.964 -11.798  -0.912  1.00  0.00     0.048 C 
HETATM    9  C   UNL     1      39.281 -11.416  -2.209  1.00  0.00     0.071 C 
HETATM   10  C   UNL     1      40.716 -12.905  -0.751  1.00  0.00     0.069 C 
ENDROOT
BRANCH   3  11
HETATM   11  C   UNL     1      42.406 -13.292   3.534  1.00  0.00     0.156 C 
BRANCH  11  12
HETATM   12  C   UNL     1      41.919 -13.757   4.893  1.00  0.00     0.223 C 
HETATM   13  N   UNL     1      40.792 -14.552   4.875  1.00  0.00    -0.359 N 
HETATM   14  H   UNL     1      40.484 -14.874   3.959  1.00  0.00     0.162 HD
HETATM   15  O   UNL     1      42.496 -13.453   5.929  1.00  0.00    -0.273 OA
BRANCH  13  16
HETATM   16  C   UNL     1      40.507 -15.500   5.961  1.00  0.00     0.150 C 
BRANCH  16  17
HETATM   17  C   UNL     1      40.911 -16.975   5.749  1.00  0.00     0.254 C 
BRANCH  17  18
HETATM   18  N   UNL     1      42.415 -17.145   5.616  1.00  0.00    -0.070 N 
HETATM   19  H   UNL     1      42.716 -16.446   4.924  1.00  0.00     0.279 HD
HETATM   20  C   UNL     1      43.156 -16.889   6.910  1.00  0.00     0.235 C 
HETATM   21  C   UNL     1      44.656 -16.993   6.673  1.00  0.00     0.028 C 
HETATM   22  C   UNL     1      45.041 -18.341   6.075  1.00  0.00     0.003 C 
HETATM   23  C   UNL     1      44.245 -18.619   4.806  1.00  0.00     0.028 C 
HETATM   24  C   UNL     1      42.747 -18.512   5.045  1.00  0.00     0.235 C 
ENDBRANCH  17  18
ENDBRANCH  16  17
ENDBRANCH  13  16
ENDBRANCH  11  12
ENDBRANCH   3  11
BRANCH   1  25
HETATM   25  C   UNL     1      41.390 -14.677   0.928  1.00  0.00    -0.030 A 
HETATM   26  C   UNL     1      42.512 -15.525   0.816  1.00  0.00     0.016 A 
HETATM   27  C   UNL     1      42.470 -16.850   1.266  1.00  0.00    -0.061 A 
HETATM   28  C   UNL     1      43.674 -17.737   1.119  1.00  0.00     0.048 C 
HETATM   29  C   UNL     1      41.271 -17.349   1.779  1.00  0.00     0.007 A 
HETATM   30  C   UNL     1      40.140 -16.537   1.856  1.00  0.00     0.001 A 
HETATM   31  C   UNL     1      40.193 -15.207   1.436  1.00  0.00     0.009 A 
ENDBRANCH   1  25
BRANCH  10  32
HETATM   32  C   UNL     1      40.835 -13.899  -1.842  1.00  0.00     0.294 C 
HETATM   33  O   UNL     1      41.872 -14.083  -2.450  1.00  0.00    -0.259 OA
BRANCH  32  34
HETATM   34  O   UNL     1      39.675 -14.587  -1.920  1.00  0.00    -0.313 OA
BRANCH  34  35
HETATM   35  C   UNL     1      39.128 -14.825  -3.234  1.00  0.00     0.124 C 
HETATM   36  C   UNL     1      39.528 -16.244  -3.622  1.00  0.00     0.040 C 
HETATM   37  C   UNL     1      37.611 -14.693  -3.177  1.00  0.00     0.040 C 
ENDBRANCH  34  35
ENDBRANCH  32  34
ENDBRANCH  10  32
TORSDOF 9
ENDMDL
MODEL 8
REMARK VINA RESULT:      -7.5      3.824      6.950
REMARK  9 active torsions:
REMARK  status: ('A' for Active; 'I' for Inactive)
REMARK    1  A    between atoms: C_4  and  C_5 
REMARK    2  A    between atoms: C_7  and  C_8 
REMARK    3  A    between atoms: C_8  and  C_9 
REMARK       I    between atoms: C_9  and  N_10 
REMARK    4  A    between atoms: N_10  and  C_11 
REMARK    5  A    between atoms: C_11  and  C_12 
REMARK    6  A    between atoms: C_12  and  N_13 
REMARK    7  A    between atoms: C_27  and  C_28 
REMARK    8  A    between atoms: C_28  and  O_29 
REMARK    9  A    between atoms: O_29  and  C_30 
ROOT
HETATM    1  C   UNL     1      41.476 -13.409   2.329  1.00  0.00     0.166 C 
HETATM    2  N   UNL     1      40.690 -13.203   3.585  1.00  0.00    -0.319 N 
HETATM    3  C   UNL     1      40.584 -13.834   4.717  1.00  0.00     0.011 C 
HETATM    4  C   UNL     1      39.793 -11.934   3.572  1.00  0.00     0.170 C 
HETATM    5  S   UNL     1      38.955 -11.700   5.068  1.00  0.00    -0.086 SA
HETATM    6  C   UNL     1      39.541 -13.292   5.675  1.00  0.00     0.135 C 
HETATM    7  N   UNL     1      39.639 -11.124   2.590  1.00  0.00    -0.229 NA
HETATM    8  C   UNL     1      40.276 -11.388   1.405  1.00  0.00     0.048 C 
HETATM    9  C   UNL     1      40.005 -10.348   0.338  1.00  0.00     0.071 C 
HETATM   10  C   UNL     1      41.088 -12.451   1.237  1.00  0.00     0.069 C 
ENDROOT
BRANCH   3  11
HETATM   11  C   UNL     1      41.324 -15.116   5.007  1.00  0.00     0.156 C 
BRANCH  11  12
HETATM   12  C   UNL     1      42.422 -15.001   6.047  1.00  0.00     0.223 C 
HETATM   13  N   UNL     1      42.431 -15.990   7.008  1.00  0.00    -0.359 N 
HETATM   14  H   UNL     1      41.805 -16.777   6.847  1.00  0.00     0.162 HD
HETATM   15  O   UNL     1      43.246 -14.096   6.023  1.00  0.00    -0.273 OA
BRANCH  13  16
HETATM   16  C   UNL     1      43.663 -16.351   7.723  1.00  0.00     0.150 C 
BRANCH  16  17
HETATM   17  C   UNL     1      43.793 -17.800   8.239  1.00  0.00     0.254 C 
BRANCH  17  18
HETATM   18  N   UNL     1      43.744 -18.817   7.111  1.00  0.00    -0.070 N 
HETATM   19  H   UNL     1      42.809 -18.725   6.692  1.00  0.00     0.279 HD
HETATM   20  C   UNL     1      44.779 -18.562   6.037  1.00  0.00     0.235 C 
HETATM   21  C   UNL     1      44.607 -19.567   4.907  1.00  0.00     0.028 C 
HETATM   22  C   UNL     1      44.679 -21.002   5.413  1.00  0.00     0.003 C 
HETATM   23  C   UNL     1      43.677 -21.235   6.536  1.00  0.00     0.028 C 
HETATM   24  C   UNL     1      43.849 -20.227   7.662  1.00  0.00     0.235 C 
ENDBRANCH  17  18
ENDBRANCH  16  17
ENDBRANCH  13  16
ENDBRANCH  11  12
ENDBRANCH   3  11
BRANCH   1  25
HETATM   25  C   UNL     1      41.429 -14.872   1.897  1.00  0.00    -0.030 A 
HETATM   26  C   UNL     1      42.641 -15.564   1.690  1.00  0.00     0.016 A 
HETATM   27  C   UNL     1      42.654 -16.923   1.354  1.00  0.00    -0.061 A 
HETATM   28  C   UNL     1      43.958 -17.632   1.122  1.00  0.00     0.048 C 
HETATM   29  C   UNL     1      41.437 -17.581   1.163  1.00  0.00     0.007 A 
HETATM   30  C   UNL     1      40.231 -16.900   1.321  1.00  0.00     0.001 A 
HETATM   31  C   UNL     1      40.220 -15.553   1.687  1.00  0.00     0.009 A 
ENDBRANCH   1  25
BRANCH  10  32
HETATM   32  C   UNL     1      41.701 -12.729  -0.082  1.00  0.00     0.294 C 
HETATM   33  O   UNL     1      42.838 -12.395  -0.359  1.00  0.00    -0.259 OA
BRANCH  32  34
HETATM   34  O   UNL     1      40.840 -13.481  -0.802  1.00  0.00    -0.313 OA
BRANCH  34  35
HETATM   35  C   UNL     1      41.323 -14.044  -2.040  1.00  0.00     0.124 C 
HETATM   36  C   UNL     1      40.907 -15.511  -2.042  1.00  0.00     0.040 C 
HETATM   37  C   UNL     1      40.685 -13.305  -3.209  1.00  0.00     0.040 C 
ENDBRANCH  34  35
ENDBRANCH  32  34
ENDBRANCH  10  32
TORSDOF 9
ENDMDL
MODEL 9
REMARK VINA RESULT:      -7.5      3.691      7.801
REMARK  9 active torsions:
REMARK  status: ('A' for Active; 'I' for Inactive)
REMARK    1  A    between atoms: C_4  and  C_5 
REMARK    2  A    between atoms: C_7  and  C_8 
REMARK    3  A    between atoms: C_8  and  C_9 
REMARK       I    between atoms: C_9  and  N_10 
REMARK    4  A    between atoms: N_10  and  C_11 
REMARK    5  A    between atoms: C_11  and  C_12 
REMARK    6  A    between atoms: C_12  and  N_13 
REMARK    7  A    between atoms: C_27  and  C_28 
REMARK    8  A    between atoms: C_28  and  O_29 
REMARK    9  A    between atoms: O_29  and  C_30 
ROOT
HETATM    1  C   UNL     1      42.275 -16.878   4.672  1.00  0.00     0.166 C 
HETATM    2  N   UNL     1      41.456 -15.672   4.339  1.00  0.00    -0.319 N 
HETATM    3  C   UNL     1      40.611 -15.366   3.400  1.00  0.00     0.011 C 
HETATM    4  C   UNL     1      41.618 -14.498   5.344  1.00  0.00     0.170 C 
HETATM    5  S   UNL     1      40.602 -13.150   4.957  1.00  0.00    -0.086 SA
HETATM    6  C   UNL     1      40.104 -13.936   3.414  1.00  0.00     0.135 C 
HETATM    7  N   UNL     1      42.408 -14.466   6.354  1.00  0.00    -0.229 NA
HETATM    8  C   UNL     1      43.237 -15.534   6.581  1.00  0.00     0.048 C 
HETATM    9  C   UNL     1      44.111 -15.360   7.806  1.00  0.00     0.071 C 
HETATM   10  C   UNL     1      43.236 -16.635   5.804  1.00  0.00     0.069 C 
ENDROOT
BRANCH   3  11
HETATM   11  C   UNL     1      40.273 -16.305   2.270  1.00  0.00     0.156 C 
BRANCH  11  12
HETATM   12  C   UNL     1      40.377 -15.703   0.882  1.00  0.00     0.223 C 
HETATM   13  N   UNL     1      39.310 -14.917   0.498  1.00  0.00    -0.359 N 
HETATM   14  H   UNL     1      38.634 -14.693   1.226  1.00  0.00     0.162 HD
HETATM   15  O   UNL     1      41.347 -15.897   0.162  1.00  0.00    -0.273 OA
BRANCH  13  16
HETATM   16  C   UNL     1      39.462 -13.863  -0.514  1.00  0.00     0.150 C 
BRANCH  16  17
HETATM   17  C   UNL     1      39.451 -14.287  -1.998  1.00  0.00     0.254 C 
BRANCH  17  18
HETATM   18  N   UNL     1      40.505 -13.555  -2.812  1.00  0.00    -0.070 N 
HETATM   19  H   UNL     1      40.779 -14.202  -3.562  1.00  0.00     0.279 HD
HETATM   20  C   UNL     1      39.987 -12.280  -3.441  1.00  0.00     0.235 C 
HETATM   21  C   UNL     1      41.073 -11.655  -4.306  1.00  0.00     0.028 C 
HETATM   22  C   UNL     1      42.349 -11.400  -3.513  1.00  0.00     0.003 C 
HETATM   23  C   UNL     1      42.830 -12.674  -2.831  1.00  0.00     0.028 C 
HETATM   24  C   UNL     1      41.742 -13.298  -1.970  1.00  0.00     0.235 C 
ENDBRANCH  17  18
ENDBRANCH  16  17
ENDBRANCH  13  16
ENDBRANCH  11  12
ENDBRANCH   3  11
BRANCH   1  25
HETATM   25  C   UNL     1      42.944 -17.439   3.420  1.00  0.00    -0.030 A 
HETATM   26  C   UNL     1      42.786 -18.806   3.113  1.00  0.00     0.016 A 
HETATM   27  C   UNL     1      43.327 -19.357   1.945  1.00  0.00    -0.061 A 
HETATM   28  C   UNL     1      43.158 -20.820   1.650  1.00  0.00     0.048 C 
HETATM   29  C   UNL     1      44.086 -18.540   1.104  1.00  0.00     0.007 A 
HETATM   30  C   UNL     1      44.289 -17.196   1.416  1.00  0.00     0.001 A 
HETATM   31  C   UNL     1      43.722 -16.642   2.565  1.00  0.00     0.009 A 
ENDBRANCH   1  25
BRANCH  10  32
HETATM   32  C   UNL     1      44.197 -17.733   6.052  1.00  0.00     0.294 C 
HETATM   33  O   UNL     1      45.401 -17.560   6.062  1.00  0.00    -0.259 OA
BRANCH  32  34
HETATM   34  O   UNL     1      43.500 -18.848   6.364  1.00  0.00    -0.313 OA
BRANCH  34  35
HETATM   35  C   UNL     1      44.251 -20.047   6.643  1.00  0.00     0.124 C 
HETATM   36  C   UNL     1      43.389 -20.896   7.570  1.00  0.00     0.040 C 
HETATM   37  C   UNL     1      44.520 -20.785   5.337  1.00  0.00     0.040 C 
ENDBRANCH  34  35
ENDBRANCH  32  34
ENDBRANCH  10  32
TORSDOF 9
ENDMDL
MODEL 10
REMARK VINA RESULT:      -7.3      4.235      8.614
REMARK  9 active torsions:
REMARK  status: ('A' for Active; 'I' for Inactive)
REMARK    1  A    between atoms: C_4  and  C_5 
REMARK    2  A    between atoms: C_7  and  C_8 
REMARK    3  A    between atoms: C_8  and  C_9 
REMARK       I    between atoms: C_9  and  N_10 
REMARK    4  A    between atoms: N_10  and  C_11 
REMARK    5  A    between atoms: C_11  and  C_12 
REMARK    6  A    between atoms: C_12  and  N_13 
REMARK    7  A    between atoms: C_27  and  C_28 
REMARK    8  A    between atoms: C_28  and  O_29 
REMARK    9  A    between atoms: O_29  and  C_30 
ROOT
HETATM    1  C   UNL     1      40.272 -15.199   3.560  1.00  0.00     0.166 C 
HETATM    2  N   UNL     1      39.713 -14.244   2.554  1.00  0.00    -0.319 N 
HETATM    3  C   UNL     1      39.548 -14.259   1.265  1.00  0.00     0.011 C 
HETATM    4  C   UNL     1      39.179 -12.918   3.166  1.00  0.00     0.170 C 
HETATM    5  S   UNL     1      38.482 -11.873   1.975  1.00  0.00    -0.086 SA
HETATM    6  C   UNL     1      39.026 -12.972   0.655  1.00  0.00     0.135 C 
HETATM    7  N   UNL     1      39.235 -12.575   4.401  1.00  0.00    -0.229 NA
HETATM    8  C   UNL     1      39.854 -13.411   5.294  1.00  0.00     0.048 C 
HETATM    9  C   UNL     1      39.842 -12.880   6.713  1.00  0.00     0.071 C 
HETATM   10  C   UNL     1      40.380 -14.599   4.935  1.00  0.00     0.069 C 
ENDROOT
BRANCH   3  11
HETATM   11  C   UNL     1      39.993 -15.411   0.401  1.00  0.00     0.156 C 
BRANCH  11  12
HETATM   12  C   UNL     1      40.946 -15.042  -0.719  1.00  0.00     0.223 C 
HETATM   13  N   UNL     1      40.555 -15.436  -1.982  1.00  0.00    -0.359 N 
HETATM   14  H   UNL     1      39.606 -15.798  -2.064  1.00  0.00     0.162 HD
HETATM   15  O   UNL     1      41.984 -14.428  -0.512  1.00  0.00    -0.273 OA
BRANCH  13  16
HETATM   16  C   UNL     1      41.027 -14.734  -3.183  1.00  0.00     0.150 C 
BRANCH  16  17
HETATM   17  C   UNL     1      40.173 -13.561  -3.710  1.00  0.00     0.254 C 
BRANCH  17  18
HETATM   18  N   UNL     1      40.784 -12.210  -3.375  1.00  0.00    -0.070 N 
HETATM   19  H   UNL     1      40.339 -11.912  -2.497  1.00  0.00     0.279 HD
HETATM   20  C   UNL     1      42.280 -12.275  -3.158  1.00  0.00     0.235 C 
HETATM   21  C   UNL     1      42.799 -10.905  -2.743  1.00  0.00     0.028 C 
HETATM   22  C   UNL     1      42.435  -9.832  -3.761  1.00  0.00     0.003 C 
HETATM   23  C   UNL     1      40.934  -9.814  -4.020  1.00  0.00     0.028 C 
HETATM   24  C   UNL     1      40.417 -11.185  -4.432  1.00  0.00     0.235 C 
ENDBRANCH  17  18
ENDBRANCH  16  17
ENDBRANCH  13  16
ENDBRANCH  11  12
ENDBRANCH   3  11
BRANCH   1  25
HETATM   25  C   UNL     1      41.580 -15.806   3.060  1.00  0.00    -0.030 A 
HETATM   26  C   UNL     1      41.659 -17.202   2.871  1.00  0.00     0.016 A 
HETATM   27  C   UNL     1      42.813 -17.802   2.356  1.00  0.00    -0.061 A 
HETATM   28  C   UNL     1      42.878 -19.293   2.181  1.00  0.00     0.048 C 
HETATM   29  C   UNL     1      43.924 -17.001   2.082  1.00  0.00     0.007 A 
HETATM   30  C   UNL     1      43.877 -15.624   2.304  1.00  0.00     0.001 A 
HETATM   31  C   UNL     1      42.713 -15.025   2.789  1.00  0.00     0.009 A 
ENDBRANCH   1  25
BRANCH  10  32
HETATM   32  C   UNL     1      41.096 -15.435   5.925  1.00  0.00     0.294 C 
HETATM   33  O   UNL     1      40.591 -16.414   6.442  1.00  0.00    -0.259 OA
BRANCH  32  34
HETATM   34  O   UNL     1      42.366 -14.985   6.025  1.00  0.00    -0.313 OA
BRANCH  34  35
HETATM   35  C   UNL     1      43.294 -15.776   6.795  1.00  0.00     0.124 C 
HETATM   36  C   UNL     1      43.808 -16.872   5.868  1.00  0.00     0.040 C 
HETATM   37  C   UNL     1      44.441 -14.889   7.262  1.00  0.00     0.040 C 
ENDBRANCH  34  35
ENDBRANCH  32  34
ENDBRANCH  10  32
TORSDOF 9
ENDMDL
