MODEL 1
REMARK VINA RESULT:      -8.6      0.000      0.000
REMARK  8 active torsions:
REMARK  status: ('A' for Active; 'I' for Inactive)
REMARK    1  A    between atoms: C_8  and  C_9 
REMARK       I    between atoms: C_9  and  N_10 
REMARK    2  A    between atoms: N_10  and  N_11 
REMARK    3  A    between atoms: N_11  and  C_12 
REMARK    4  A    between atoms: C_12  and  N_13 
REMARK    5  A    between atoms: N_13  and  C_14 
REMARK    6  A    between atoms: C_15  and  O_16 
REMARK    7  A    between atoms: C_19  and  O_20 
REMARK    8  A    between atoms: C_26  and  C_27 
ROOT
HETATM    1  C   UNL     1      43.754 -17.865   6.775  1.00  0.00     0.275 C 
HETATM    2  N   UNL     1      44.014 -16.548   6.460  1.00  0.00    -0.263 N 
HETATM    3  O   UNL     1      43.316 -18.221   7.867  1.00  0.00    -0.266 OA
HETATM    4  H   UNL     1      44.558 -16.321   5.632  1.00  0.00     0.190 HD
ENDROOT
BRANCH   2   5
HETATM    5  N   UNL     1      43.853 -15.549   7.443  1.00  0.00    -0.273 N 
HETATM    6  H   UNL     1      43.094 -15.755   8.096  1.00  0.00     0.189 HD
BRANCH   5   7
HETATM    7  C   UNL     1      43.949 -14.245   7.054  1.00  0.00     0.191 C 
HETATM    8  S   UNL     1      45.235 -13.317   7.573  1.00  0.00    -0.039 SA
BRANCH   7   9
HETATM    9  N   UNL     1      42.960 -13.671   6.316  1.00  0.00    -0.330 N 
HETATM   10  H   UNL     1      42.658 -12.759   6.650  1.00  0.00     0.168 HD
BRANCH   9  11
HETATM   11  C   UNL     1      42.452 -13.987   5.032  1.00  0.00     0.068 A 
HETATM   12  C   UNL     1      41.342 -14.856   4.971  1.00  0.00     0.097 A 
HETATM   13  C   UNL     1      40.776 -15.186   3.732  1.00  0.00     0.075 A 
HETATM   14  C   UNL     1      41.298 -14.646   2.555  1.00  0.00     0.070 A 
HETATM   15  C   UNL     1      42.384 -13.773   2.624  1.00  0.00     0.039 A 
HETATM   16  C   UNL     1      42.953 -13.434   3.853  1.00  0.00     0.035 A 
BRANCH  12  17
HETATM   17  O   UNL     1      40.904 -15.332   6.187  1.00  0.00    -0.354 OA
HETATM   18  C   UNL     1      40.444 -16.678   6.236  1.00  0.00     0.210 C 
ENDBRANCH  12  17
BRANCH  14  19
HETATM   19  O   UNL     1      40.843 -14.882   1.288  1.00  0.00    -0.356 OA
HETATM   20  C   UNL     1      41.684 -14.491   0.210  1.00  0.00     0.210 C 
ENDBRANCH  14  19
ENDBRANCH   9  11
ENDBRANCH   7   9
ENDBRANCH   5   7
ENDBRANCH   2   5
BRANCH   1  21
HETATM   21  C   UNL     1      44.076 -18.798   5.716  1.00  0.00     0.098 A 
HETATM   22  C   UNL     1      43.736 -18.752   4.377  1.00  0.00     0.138 A 
HETATM   23  N   UNL     1      42.991 -17.893   3.634  1.00  0.00    -0.370 N 
HETATM   24  N   UNL     1      44.300 -19.871   3.808  1.00  0.00    -0.240 N 
HETATM   25  C   UNL     1      42.924 -18.010   2.181  1.00  0.00     0.081 C 
HETATM   26  H   UNL     1      42.292 -17.281   4.057  1.00  0.00     0.161 HD
HETATM   27  C   UNL     1      44.026 -17.164   1.549  1.00  0.00     0.032 C 
HETATM   28  C   UNL     1      42.986 -19.484   1.773  1.00  0.00     0.061 C 
HETATM   29  C   UNL     1      44.187 -20.218   2.402  1.00  0.00     0.221 C 
HETATM   30  N   UNL     1      45.028 -20.601   4.665  1.00  0.00    -0.181 NA
HETATM   31  C   UNL     1      44.851 -19.975   5.832  1.00  0.00     0.160 A 
BRANCH  29  32
HETATM   32  C   UNL     1      44.033 -21.709   2.184  1.00  0.00     0.409 C 
HETATM   33  F   UNL     1      43.877 -22.391   3.340  1.00  0.00    -0.169 F 
HETATM   34  F   UNL     1      42.911 -21.942   1.447  1.00  0.00    -0.169 F 
HETATM   35  F   UNL     1      45.050 -22.264   1.492  1.00  0.00    -0.169 F 
ENDBRANCH  29  32
ENDBRANCH   1  21
TORSDOF 8
ENDMDL
MODEL 2
REMARK VINA RESULT:      -8.1      4.171      6.356
REMARK  8 active torsions:
REMARK  status: ('A' for Active; 'I' for Inactive)
REMARK    1  A    between atoms: C_8  and  C_9 
REMARK       I    between atoms: C_9  and  N_10 
REMARK    2  A    between atoms: N_10  and  N_11 
REMARK    3  A    between atoms: N_11  and  C_12 
REMARK    4  A    between atoms: C_12  and  N_13 
REMARK    5  A    between atoms: N_13  and  C_14 
REMARK    6  A    between atoms: C_15  and  O_16 
REMARK    7  A    between atoms: C_19  and  O_20 
REMARK    8  A    between atoms: C_26  and  C_27 
ROOT
HETATM    1  C   UNL     1      43.732 -14.649   6.361  1.00  0.00     0.275 C 
HETATM    2  N   UNL     1      42.791 -13.645   6.449  1.00  0.00    -0.263 N 
HETATM    3  O   UNL     1      44.767 -14.660   7.024  1.00  0.00    -0.266 OA
HETATM    4  H   UNL     1      42.059 -13.571   5.748  1.00  0.00     0.190 HD
ENDROOT
BRANCH   2   5
HETATM    5  N   UNL     1      43.037 -12.526   7.272  1.00  0.00    -0.273 N 
HETATM    6  H   UNL     1      43.457 -12.779   8.169  1.00  0.00     0.189 HD
BRANCH   5   7
HETATM    7  C   UNL     1      42.086 -11.549   7.329  1.00  0.00     0.191 C 
HETATM    8  S   UNL     1      40.856 -11.524   6.202  1.00  0.00    -0.039 SA
BRANCH   7   9
HETATM    9  N   UNL     1      42.180 -10.548   8.245  1.00  0.00    -0.330 N 
HETATM   10  H   UNL     1      41.918  -9.630   7.897  1.00  0.00     0.168 HD
BRANCH   9  11
HETATM   11  C   UNL     1      42.329 -10.584   9.653  1.00  0.00     0.068 A 
HETATM   12  C   UNL     1      43.644 -10.585  10.165  1.00  0.00     0.097 A 
HETATM   13  C   UNL     1      43.858 -10.592  11.550  1.00  0.00     0.075 A 
HETATM   14  C   UNL     1      42.773 -10.584  12.429  1.00  0.00     0.070 A 
HETATM   15  C   UNL     1      41.475 -10.565  11.916  1.00  0.00     0.039 A 
HETATM   16  C   UNL     1      41.251 -10.552  10.538  1.00  0.00     0.035 A 
BRANCH  12  17
HETATM   17  O   UNL     1      44.641 -10.591   9.216  1.00  0.00    -0.354 OA
HETATM   18  C   UNL     1      45.742 -11.467   9.429  1.00  0.00     0.210 C 
ENDBRANCH  12  17
BRANCH  14  19
HETATM   19  O   UNL     1      42.841 -10.589  13.794  1.00  0.00    -0.356 OA
HETATM   20  C   UNL     1      41.678 -10.184  14.506  1.00  0.00     0.210 C 
ENDBRANCH  14  19
ENDBRANCH   9  11
ENDBRANCH   7   9
ENDBRANCH   5   7
ENDBRANCH   2   5
BRANCH   1  21
HETATM   21  C   UNL     1      43.409 -15.674   5.392  1.00  0.00     0.098 A 
HETATM   22  C   UNL     1      43.798 -17.001   5.360  1.00  0.00     0.138 A 
HETATM   23  N   UNL     1      44.603 -17.755   6.151  1.00  0.00    -0.370 N 
HETATM   24  N   UNL     1      43.208 -17.538   4.238  1.00  0.00    -0.240 N 
HETATM   25  C   UNL     1      44.717 -19.197   5.961  1.00  0.00     0.081 C 
HETATM   26  H   UNL     1      45.312 -17.335   6.755  1.00  0.00     0.161 HD
HETATM   27  C   UNL     1      43.674 -19.909   6.820  1.00  0.00     0.032 C 
HETATM   28  C   UNL     1      44.607 -19.538   4.473  1.00  0.00     0.061 C 
HETATM   29  C   UNL     1      43.356 -18.921   3.819  1.00  0.00     0.221 C 
HETATM   30  N   UNL     1      42.420 -16.674   3.580  1.00  0.00    -0.181 NA
HETATM   31  C   UNL     1      42.582 -15.532   4.254  1.00  0.00     0.160 A 
BRANCH  29  32
HETATM   32  C   UNL     1      43.454 -19.062   2.314  1.00  0.00     0.409 C 
HETATM   33  F   UNL     1      44.352 -18.212   1.768  1.00  0.00    -0.169 F 
HETATM   34  F   UNL     1      43.883 -20.320   2.009  1.00  0.00    -0.169 F 
HETATM   35  F   UNL     1      42.275 -18.911   1.676  1.00  0.00    -0.169 F 
ENDBRANCH  29  32
ENDBRANCH   1  21
TORSDOF 8
ENDMDL
MODEL 3
REMARK VINA RESULT:      -8.1      2.191      2.998
REMARK  8 active torsions:
REMARK  status: ('A' for Active; 'I' for Inactive)
REMARK    1  A    between atoms: C_8  and  C_9 
REMARK       I    between atoms: C_9  and  N_10 
REMARK    2  A    between atoms: N_10  and  N_11 
REMARK    3  A    between atoms: N_11  and  C_12 
REMARK    4  A    between atoms: C_12  and  N_13 
REMARK    5  A    between atoms: N_13  and  C_14 
REMARK    6  A    between atoms: C_15  and  O_16 
REMARK    7  A    between atoms: C_19  and  O_20 
REMARK    8  A    between atoms: C_26  and  C_27 
ROOT
HETATM    1  C   UNL     1      42.980 -15.832   6.255  1.00  0.00     0.275 C 
HETATM    2  N   UNL     1      41.614 -15.855   6.062  1.00  0.00    -0.263 N 
HETATM    3  O   UNL     1      43.577 -14.856   6.705  1.00  0.00    -0.266 OA
HETATM    4  H   UNL     1      41.192 -16.595   5.508  1.00  0.00     0.190 HD
ENDROOT
BRANCH   2   5
HETATM    5  N   UNL     1      40.853 -14.694   6.310  1.00  0.00    -0.273 N 
HETATM    6  H   UNL     1      40.403 -14.704   7.228  1.00  0.00     0.189 HD
BRANCH   5   7
HETATM    7  C   UNL     1      40.090 -14.198   5.293  1.00  0.00     0.191 C 
HETATM    8  S   UNL     1      39.391 -12.690   5.441  1.00  0.00    -0.039 SA
BRANCH   7   9
HETATM    9  N   UNL     1      39.824 -14.958   4.197  1.00  0.00    -0.330 N 
HETATM   10  H   UNL     1      39.255 -15.780   4.380  1.00  0.00     0.168 HD
BRANCH   9  11
HETATM   11  C   UNL     1      39.975 -14.685   2.815  1.00  0.00     0.068 A 
HETATM   12  C   UNL     1      41.291 -14.602   2.312  1.00  0.00     0.097 A 
HETATM   13  C   UNL     1      41.507 -14.362   0.948  1.00  0.00     0.075 A 
HETATM   14  C   UNL     1      40.423 -14.218   0.080  1.00  0.00     0.070 A 
HETATM   15  C   UNL     1      39.125 -14.320   0.580  1.00  0.00     0.039 A 
HETATM   16  C   UNL     1      38.898 -14.564   1.936  1.00  0.00     0.035 A 
BRANCH  12  17
HETATM   17  O   UNL     1      42.287 -14.759   3.249  1.00  0.00    -0.354 OA
HETATM   18  C   UNL     1      43.380 -13.850   3.201  1.00  0.00     0.210 C 
ENDBRANCH  12  17
BRANCH  14  19
HETATM   19  O   UNL     1      40.493 -13.984  -1.265  1.00  0.00    -0.356 OA
HETATM   20  C   UNL     1      40.731 -15.103  -2.110  1.00  0.00     0.210 C 
ENDBRANCH  14  19
ENDBRANCH   9  11
ENDBRANCH   7   9
ENDBRANCH   5   7
ENDBRANCH   2   5
BRANCH   1  21
HETATM   21  C   UNL     1      43.652 -17.047   5.849  1.00  0.00     0.098 A 
HETATM   22  C   UNL     1      43.575 -17.730   4.649  1.00  0.00     0.138 A 
HETATM   23  N   UNL     1      42.855 -17.539   3.514  1.00  0.00    -0.370 N 
HETATM   24  N   UNL     1      44.418 -18.810   4.777  1.00  0.00    -0.240 N 
HETATM   25  C   UNL     1      43.091 -18.348   2.323  1.00  0.00     0.081 C 
HETATM   26  H   UNL     1      41.995 -16.989   3.507  1.00  0.00     0.161 HD
HETATM   27  C   UNL     1      44.137 -17.668   1.442  1.00  0.00     0.032 C 
HETATM   28  C   UNL     1      43.478 -19.773   2.727  1.00  0.00     0.061 C 
HETATM   29  C   UNL     1      44.640 -19.802   3.739  1.00  0.00     0.221 C 
HETATM   30  N   UNL     1      45.079 -18.840   5.944  1.00  0.00    -0.181 NA
HETATM   31  C   UNL     1      44.577 -17.798   6.612  1.00  0.00     0.160 A 
BRANCH  29  32
HETATM   32  C   UNL     1      44.784 -21.202   4.298  1.00  0.00     0.409 C 
HETATM   33  F   UNL     1      43.968 -21.430   5.352  1.00  0.00    -0.169 F 
HETATM   34  F   UNL     1      44.432 -22.106   3.340  1.00  0.00    -0.169 F 
HETATM   35  F   UNL     1      46.046 -21.517   4.655  1.00  0.00    -0.169 F 
ENDBRANCH  29  32
ENDBRANCH   1  21
TORSDOF 8
ENDMDL
MODEL 4
REMARK VINA RESULT:      -7.9      4.860      7.719
REMARK  8 active torsions:
REMARK  status: ('A' for Active; 'I' for Inactive)
REMARK    1  A    between atoms: C_8  and  C_9 
REMARK       I    between atoms: C_9  and  N_10 
REMARK    2  A    between atoms: N_10  and  N_11 
REMARK    3  A    between atoms: N_11  and  C_12 
REMARK    4  A    between atoms: C_12  and  N_13 
REMARK    5  A    between atoms: N_13  and  C_14 
REMARK    6  A    between atoms: C_15  and  O_16 
REMARK    7  A    between atoms: C_19  and  O_20 
REMARK    8  A    between atoms: C_26  and  C_27 
ROOT
HETATM    1  C   UNL     1      39.796 -14.597   1.822  1.00  0.00     0.275 C 
HETATM    2  N   UNL     1      40.594 -14.779   2.932  1.00  0.00    -0.263 N 
HETATM    3  O   UNL     1      38.687 -15.112   1.701  1.00  0.00    -0.266 OA
HETATM    4  H   UNL     1      41.573 -14.505   2.905  1.00  0.00     0.190 HD
ENDROOT
BRANCH   2   5
HETATM    5  N   UNL     1      40.178 -15.654   3.957  1.00  0.00    -0.273 N 
HETATM    6  H   UNL     1      39.343 -15.322   4.445  1.00  0.00     0.189 HD
BRANCH   5   7
HETATM    7  C   UNL     1      41.136 -16.211   4.753  1.00  0.00     0.191 C 
HETATM    8  S   UNL     1      40.820 -16.470   6.371  1.00  0.00    -0.039 SA
BRANCH   7   9
HETATM    9  N   UNL     1      42.374 -16.478   4.258  1.00  0.00    -0.330 N 
HETATM   10  H   UNL     1      43.043 -15.719   4.359  1.00  0.00     0.168 HD
BRANCH   9  11
HETATM   11  C   UNL     1      42.976 -17.697   3.861  1.00  0.00     0.068 A 
HETATM   12  C   UNL     1      42.724 -18.145   2.546  1.00  0.00     0.097 A 
HETATM   13  C   UNL     1      43.312 -19.330   2.084  1.00  0.00     0.075 A 
HETATM   14  C   UNL     1      44.161 -20.065   2.915  1.00  0.00     0.070 A 
HETATM   15  C   UNL     1      44.420 -19.607   4.207  1.00  0.00     0.039 A 
HETATM   16  C   UNL     1      43.843 -18.425   4.677  1.00  0.00     0.035 A 
BRANCH  12  17
HETATM   17  O   UNL     1      41.877 -17.348   1.809  1.00  0.00    -0.354 OA
HETATM   18  C   UNL     1      42.357 -16.861   0.562  1.00  0.00     0.210 C 
ENDBRANCH  12  17
BRANCH  14  19
HETATM   19  O   UNL     1      44.797 -21.230   2.591  1.00  0.00    -0.356 OA
HETATM   20  C   UNL     1      44.188 -22.050   1.600  1.00  0.00     0.210 C 
ENDBRANCH  14  19
ENDBRANCH   9  11
ENDBRANCH   7   9
ENDBRANCH   5   7
ENDBRANCH   2   5
BRANCH   1  21
HETATM   21  C   UNL     1      40.396 -13.772   0.795  1.00  0.00     0.098 A 
HETATM   22  C   UNL     1      40.153 -13.756  -0.566  1.00  0.00     0.138 A 
HETATM   23  N   UNL     1      39.348 -14.489  -1.377  1.00  0.00    -0.370 N 
HETATM   24  N   UNL     1      40.976 -12.781  -1.083  1.00  0.00    -0.240 N 
HETATM   25  C   UNL     1      39.177 -14.146  -2.785  1.00  0.00     0.081 C 
HETATM   26  H   UNL     1      39.008 -15.413  -1.107  1.00  0.00     0.161 HD
HETATM   27  C   UNL     1      37.995 -13.193  -2.938  1.00  0.00     0.032 C 
HETATM   28  C   UNL     1      40.484 -13.581  -3.348  1.00  0.00     0.061 C 
HETATM   29  C   UNL     1      41.044 -12.430  -2.491  1.00  0.00     0.221 C 
HETATM   30  N   UNL     1      41.685 -12.127  -0.151  1.00  0.00    -0.181 NA
HETATM   31  C   UNL     1      41.368 -12.762   0.982  1.00  0.00     0.160 A 
BRANCH  29  32
HETATM   32  C   UNL     1      42.454 -12.109  -2.940  1.00  0.00     0.409 C 
HETATM   33  F   UNL     1      43.348 -13.052  -2.566  1.00  0.00    -0.169 F 
HETATM   34  F   UNL     1      42.492 -12.066  -4.302  1.00  0.00    -0.169 F 
HETATM   35  F   UNL     1      42.898 -10.906  -2.521  1.00  0.00    -0.169 F 
ENDBRANCH  29  32
ENDBRANCH   1  21
TORSDOF 8
ENDMDL
MODEL 5
REMARK VINA RESULT:      -7.8      4.071      6.262
REMARK  8 active torsions:
REMARK  status: ('A' for Active; 'I' for Inactive)
REMARK    1  A    between atoms: C_8  and  C_9 
REMARK       I    between atoms: C_9  and  N_10 
REMARK    2  A    between atoms: N_10  and  N_11 
REMARK    3  A    between atoms: N_11  and  C_12 
REMARK    4  A    between atoms: C_12  and  N_13 
REMARK    5  A    between atoms: N_13  and  C_14 
REMARK    6  A    between atoms: C_15  and  O_16 
REMARK    7  A    between atoms: C_19  and  O_20 
REMARK    8  A    between atoms: C_26  and  C_27 
ROOT
HETATM    1  C   UNL     1      41.282 -14.406   5.599  1.00  0.00     0.275 C 
HETATM    2  N   UNL     1      41.751 -13.365   6.373  1.00  0.00    -0.263 N 
HETATM    3  O   UNL     1      40.155 -14.422   5.108  1.00  0.00    -0.266 OA
HETATM    4  H   UNL     1      42.601 -13.480   6.918  1.00  0.00     0.190 HD
ENDROOT
BRANCH   2   5
HETATM    5  N   UNL     1      40.894 -12.293   6.698  1.00  0.00    -0.273 N 
HETATM    6  H   UNL     1      40.185 -12.122   5.981  1.00  0.00     0.189 HD
BRANCH   5   7
HETATM    7  C   UNL     1      41.447 -11.174   7.249  1.00  0.00     0.191 C 
HETATM    8  S   UNL     1      40.841  -9.670   6.855  1.00  0.00    -0.039 SA
BRANCH   7   9
HETATM    9  N   UNL     1      42.541 -11.269   8.051  1.00  0.00    -0.330 N 
HETATM   10  H   UNL     1      43.412 -11.452   7.559  1.00  0.00     0.168 HD
BRANCH   9  11
HETATM   11  C   UNL     1      42.737 -10.911   9.407  1.00  0.00     0.068 A 
HETATM   12  C   UNL     1      44.068 -10.814   9.866  1.00  0.00     0.097 A 
HETATM   13  C   UNL     1      44.328 -10.438  11.191  1.00  0.00     0.075 A 
HETATM   14  C   UNL     1      43.274 -10.142  12.058  1.00  0.00     0.070 A 
HETATM   15  C   UNL     1      41.961 -10.222  11.592  1.00  0.00     0.039 A 
HETATM   16  C   UNL     1      41.691 -10.591  10.273  1.00  0.00     0.035 A 
BRANCH  12  17
HETATM   17  O   UNL     1      45.032 -11.125   8.934  1.00  0.00    -0.354 OA
HETATM   18  C   UNL     1      45.812 -12.293   9.162  1.00  0.00     0.210 C 
ENDBRANCH  12  17
BRANCH  14  19
HETATM   19  O   UNL     1      43.388  -9.764  13.366  1.00  0.00    -0.356 OA
HETATM   20  C   UNL     1      42.415 -10.263  14.276  1.00  0.00     0.210 C 
ENDBRANCH  14  19
ENDBRANCH   9  11
ENDBRANCH   7   9
ENDBRANCH   5   7
ENDBRANCH   2   5
BRANCH   1  21
HETATM   21  C   UNL     1      42.223 -15.494   5.444  1.00  0.00     0.098 A 
HETATM   22  C   UNL     1      42.361 -16.389   4.399  1.00  0.00     0.138 A 
HETATM   23  N   UNL     1      41.679 -16.579   3.240  1.00  0.00    -0.370 N 
HETATM   24  N   UNL     1      43.409 -17.211   4.744  1.00  0.00    -0.240 N 
HETATM   25  C   UNL     1      42.149 -17.523   2.231  1.00  0.00     0.081 C 
HETATM   26  H   UNL     1      40.722 -16.247   3.117  1.00  0.00     0.161 HD
HETATM   27  C   UNL     1      43.068 -16.804   1.247  1.00  0.00     0.032 C 
HETATM   28  C   UNL     1      42.813 -18.724   2.909  1.00  0.00     0.061 C 
HETATM   29  C   UNL     1      43.896 -18.304   3.920  1.00  0.00     0.221 C 
HETATM   30  N   UNL     1      43.997 -16.874   5.901  1.00  0.00    -0.181 NA
HETATM   31  C   UNL     1      43.245 -15.864   6.348  1.00  0.00     0.160 A 
BRANCH  29  32
HETATM   32  C   UNL     1      44.310 -19.507   4.742  1.00  0.00     0.409 C 
HETATM   33  F   UNL     1      44.426 -20.631   3.999  1.00  0.00    -0.169 F 
HETATM   34  F   UNL     1      45.540 -19.279   5.284  1.00  0.00    -0.169 F 
HETATM   35  F   UNL     1      43.491 -19.762   5.783  1.00  0.00    -0.169 F 
ENDBRANCH  29  32
ENDBRANCH   1  21
TORSDOF 8
ENDMDL
MODEL 6
REMARK VINA RESULT:      -7.7      4.906      7.709
REMARK  8 active torsions:
REMARK  status: ('A' for Active; 'I' for Inactive)
REMARK    1  A    between atoms: C_8  and  C_9 
REMARK       I    between atoms: C_9  and  N_10 
REMARK    2  A    between atoms: N_10  and  N_11 
REMARK    3  A    between atoms: N_11  and  C_12 
REMARK    4  A    between atoms: C_12  and  N_13 
REMARK    5  A    between atoms: N_13  and  C_14 
REMARK    6  A    between atoms: C_15  and  O_16 
REMARK    7  A    between atoms: C_19  and  O_20 
REMARK    8  A    between atoms: C_26  and  C_27 
ROOT
HETATM    1  C   UNL     1      39.545 -14.748   1.607  1.00  0.00     0.275 C 
HETATM    2  N   UNL     1      40.527 -15.025   2.535  1.00  0.00    -0.263 N 
HETATM    3  O   UNL     1      38.409 -15.212   1.673  1.00  0.00    -0.266 OA
HETATM    4  H   UNL     1      41.495 -14.787   2.336  1.00  0.00     0.190 HD
ENDROOT
BRANCH   2   5
HETATM    5  N   UNL     1      40.268 -15.940   3.576  1.00  0.00    -0.273 N 
HETATM    6  H   UNL     1      39.333 -15.831   3.976  1.00  0.00     0.189 HD
BRANCH   5   7
HETATM    7  C   UNL     1      41.262 -16.185   4.477  1.00  0.00     0.191 C 
HETATM    8  S   UNL     1      40.958 -16.023   6.110  1.00  0.00    -0.039 SA
BRANCH   7   9
HETATM    9  N   UNL     1      42.521 -16.477   4.054  1.00  0.00    -0.330 N 
HETATM   10  H   UNL     1      43.206 -15.746   4.226  1.00  0.00     0.168 HD
BRANCH   9  11
HETATM   11  C   UNL     1      43.108 -17.701   3.649  1.00  0.00     0.068 A 
HETATM   12  C   UNL     1      43.988 -18.329   4.556  1.00  0.00     0.097 A 
HETATM   13  C   UNL     1      44.580 -19.555   4.224  1.00  0.00     0.075 A 
HETATM   14  C   UNL     1      44.290 -20.169   3.004  1.00  0.00     0.070 A 
HETATM   15  C   UNL     1      43.404 -19.551   2.119  1.00  0.00     0.039 A 
HETATM   16  C   UNL     1      42.806 -18.332   2.441  1.00  0.00     0.035 A 
BRANCH  12  17
HETATM   17  O   UNL     1      44.205 -17.643   5.730  1.00  0.00    -0.354 OA
HETATM   18  C   UNL     1      44.181 -18.392   6.939  1.00  0.00     0.210 C 
ENDBRANCH  12  17
BRANCH  14  19
HETATM   19  O   UNL     1      44.794 -21.359   2.560  1.00  0.00    -0.356 OA
HETATM   20  C   UNL     1      44.101 -22.005   1.498  1.00  0.00     0.210 C 
ENDBRANCH  14  19
ENDBRANCH   9  11
ENDBRANCH   7   9
ENDBRANCH   5   7
ENDBRANCH   2   5
BRANCH   1  21
HETATM   21  C   UNL     1      39.981 -13.889   0.527  1.00  0.00     0.098 A 
HETATM   22  C   UNL     1      40.337 -14.223  -0.767  1.00  0.00     0.138 A 
HETATM   23  N   UNL     1      40.439 -15.404  -1.429  1.00  0.00    -0.370 N 
HETATM   24  N   UNL     1      40.659 -13.036  -1.386  1.00  0.00    -0.240 N 
HETATM   25  C   UNL     1      40.699 -15.447  -2.865  1.00  0.00     0.081 C 
HETATM   26  H   UNL     1      40.554 -16.290  -0.936  1.00  0.00     0.161 HD
HETATM   27  C   UNL     1      39.373 -15.455  -3.623  1.00  0.00     0.032 C 
HETATM   28  C   UNL     1      41.615 -14.288  -3.265  1.00  0.00     0.061 C 
HETATM   29  C   UNL     1      41.093 -12.927  -2.767  1.00  0.00     0.221 C 
HETATM   30  N   UNL     1      40.477 -11.959  -0.608  1.00  0.00    -0.181 NA
HETATM   31  C   UNL     1      40.112 -12.482   0.566  1.00  0.00     0.160 A 
BRANCH  29  32
HETATM   32  C   UNL     1      42.170 -11.878  -2.954  1.00  0.00     0.409 C 
HETATM   33  F   UNL     1      43.179 -12.002  -2.063  1.00  0.00    -0.169 F 
HETATM   34  F   UNL     1      42.729 -12.023  -4.188  1.00  0.00    -0.169 F 
HETATM   35  F   UNL     1      41.708 -10.611  -2.906  1.00  0.00    -0.169 F 
ENDBRANCH  29  32
ENDBRANCH   1  21
TORSDOF 8
ENDMDL
MODEL 7
REMARK VINA RESULT:      -7.7      6.354      9.682
REMARK  8 active torsions:
REMARK  status: ('A' for Active; 'I' for Inactive)
REMARK    1  A    between atoms: C_8  and  C_9 
REMARK       I    between atoms: C_9  and  N_10 
REMARK    2  A    between atoms: N_10  and  N_11 
REMARK    3  A    between atoms: N_11  and  C_12 
REMARK    4  A    between atoms: C_12  and  N_13 
REMARK    5  A    between atoms: N_13  and  C_14 
REMARK    6  A    between atoms: C_15  and  O_16 
REMARK    7  A    between atoms: C_19  and  O_20 
REMARK    8  A    between atoms: C_26  and  C_27 
ROOT
HETATM    1  C   UNL     1      41.334 -10.831   7.081  1.00  0.00     0.275 C 
HETATM    2  N   UNL     1      40.930 -12.150   7.107  1.00  0.00    -0.263 N 
HETATM    3  O   UNL     1      41.441 -10.183   6.043  1.00  0.00    -0.266 OA
HETATM    4  H   UNL     1      41.047 -12.701   7.954  1.00  0.00     0.190 HD
ENDROOT
BRANCH   2   5
HETATM    5  N   UNL     1      40.697 -12.834   5.897  1.00  0.00    -0.273 N 
HETATM    6  H   UNL     1      39.718 -13.104   5.777  1.00  0.00     0.189 HD
BRANCH   5   7
HETATM    7  C   UNL     1      41.610 -13.767   5.501  1.00  0.00     0.191 C 
HETATM    8  S   UNL     1      42.471 -13.538   4.090  1.00  0.00    -0.039 SA
BRANCH   7   9
HETATM    9  N   UNL     1      41.764 -14.923   6.202  1.00  0.00    -0.330 N 
HETATM   10  H   UNL     1      41.031 -15.105   6.884  1.00  0.00     0.168 HD
BRANCH   9  11
HETATM   11  C   UNL     1      42.609 -16.039   5.987  1.00  0.00     0.068 A 
HETATM   12  C   UNL     1      43.844 -16.057   6.670  1.00  0.00     0.097 A 
HETATM   13  C   UNL     1      44.713 -17.146   6.519  1.00  0.00     0.075 A 
HETATM   14  C   UNL     1      44.356 -18.223   5.706  1.00  0.00     0.070 A 
HETATM   15  C   UNL     1      43.125 -18.207   5.048  1.00  0.00     0.039 A 
HETATM   16  C   UNL     1      42.250 -17.130   5.195  1.00  0.00     0.035 A 
BRANCH  12  17
HETATM   17  O   UNL     1      44.100 -14.949   7.446  1.00  0.00    -0.354 OA
HETATM   18  C   UNL     1      45.098 -14.045   6.988  1.00  0.00     0.210 C 
ENDBRANCH  12  17
BRANCH  14  19
HETATM   19  O   UNL     1      45.105 -19.342   5.475  1.00  0.00    -0.356 OA
HETATM   20  C   UNL     1      44.713 -20.178   4.392  1.00  0.00     0.210 C 
ENDBRANCH  14  19
ENDBRANCH   9  11
ENDBRANCH   7   9
ENDBRANCH   5   7
ENDBRANCH   2   5
BRANCH   1  21
HETATM   21  C   UNL     1      41.654 -10.288   8.384  1.00  0.00     0.098 A 
HETATM   22  C   UNL     1      42.627 -10.687   9.283  1.00  0.00     0.138 A 
HETATM   23  N   UNL     1      43.540 -11.691   9.282  1.00  0.00    -0.370 N 
HETATM   24  N   UNL     1      42.517  -9.834  10.357  1.00  0.00    -0.240 N 
HETATM   25  C   UNL     1      44.563 -11.786  10.318  1.00  0.00     0.081 C 
HETATM   26  H   UNL     1      43.425 -12.524   8.702  1.00  0.00     0.161 HD
HETATM   27  C   UNL     1      45.811 -11.026   9.874  1.00  0.00     0.032 C 
HETATM   28  C   UNL     1      44.001 -11.293  11.654  1.00  0.00     0.061 C 
HETATM   29  C   UNL     1      43.355  -9.899  11.541  1.00  0.00     0.221 C 
HETATM   30  N   UNL     1      41.590  -8.878  10.192  1.00  0.00    -0.181 NA
HETATM   31  C   UNL     1      41.035  -9.185   9.016  1.00  0.00     0.160 A 
BRANCH  29  32
HETATM   32  C   UNL     1      42.587  -9.598  12.812  1.00  0.00     0.409 C 
HETATM   33  F   UNL     1      41.332 -10.101  12.794  1.00  0.00    -0.169 F 
HETATM   34  F   UNL     1      43.219 -10.183  13.868  1.00  0.00    -0.169 F 
HETATM   35  F   UNL     1      42.519  -8.283  13.107  1.00  0.00    -0.169 F 
ENDBRANCH  29  32
ENDBRANCH   1  21
TORSDOF 8
ENDMDL
MODEL 8
REMARK VINA RESULT:      -7.6      3.379      5.273
REMARK  8 active torsions:
REMARK  status: ('A' for Active; 'I' for Inactive)
REMARK    1  A    between atoms: C_8  and  C_9 
REMARK       I    between atoms: C_9  and  N_10 
REMARK    2  A    between atoms: N_10  and  N_11 
REMARK    3  A    between atoms: N_11  and  C_12 
REMARK    4  A    between atoms: C_12  and  N_13 
REMARK    5  A    between atoms: N_13  and  C_14 
REMARK    6  A    between atoms: C_15  and  O_16 
REMARK    7  A    between atoms: C_19  and  O_20 
REMARK    8  A    between atoms: C_26  and  C_27 
ROOT
HETATM    1  C   UNL     1      41.747 -13.455   3.957  1.00  0.00     0.275 C 
HETATM    2  N   UNL     1      42.329 -12.823   2.877  1.00  0.00    -0.263 N 
HETATM    3  O   UNL     1      40.708 -13.063   4.484  1.00  0.00    -0.266 OA
HETATM    4  H   UNL     1      43.280 -13.057   2.604  1.00  0.00     0.190 HD
ENDROOT
BRANCH   2   5
HETATM    5  N   UNL     1      41.771 -11.626   2.383  1.00  0.00    -0.273 N 
HETATM    6  H   UNL     1      40.970 -11.306   2.933  1.00  0.00     0.189 HD
BRANCH   5   7
HETATM    7  C   UNL     1      41.641 -11.488   1.032  1.00  0.00     0.191 C 
HETATM    8  S   UNL     1      40.573 -10.366   0.413  1.00  0.00    -0.039 SA
BRANCH   7   9
HETATM    9  N   UNL     1      42.312 -12.317   0.186  1.00  0.00    -0.330 N 
HETATM   10  H   UNL     1      43.249 -12.565   0.493  1.00  0.00     0.168 HD
BRANCH   9  11
HETATM   11  C   UNL     1      41.862 -13.095  -0.907  1.00  0.00     0.068 A 
HETATM   12  C   UNL     1      41.086 -14.237  -0.613  1.00  0.00     0.097 A 
HETATM   13  C   UNL     1      40.588 -15.034  -1.654  1.00  0.00     0.075 A 
HETATM   14  C   UNL     1      40.845 -14.694  -2.984  1.00  0.00     0.070 A 
HETATM   15  C   UNL     1      41.597 -13.554  -3.267  1.00  0.00     0.039 A 
HETATM   16  C   UNL     1      42.094 -12.751  -2.239  1.00  0.00     0.035 A 
BRANCH  12  17
HETATM   17  O   UNL     1      40.890 -14.482   0.727  1.00  0.00    -0.354 OA
HETATM   18  C   UNL     1      39.547 -14.570   1.187  1.00  0.00     0.210 C 
ENDBRANCH  12  17
BRANCH  14  19
HETATM   19  O   UNL     1      40.420 -15.380  -4.087  1.00  0.00    -0.356 OA
HETATM   20  C   UNL     1      39.184 -16.076  -3.986  1.00  0.00     0.210 C 
ENDBRANCH  14  19
ENDBRANCH   9  11
ENDBRANCH   7   9
ENDBRANCH   5   7
ENDBRANCH   2   5
BRANCH   1  21
HETATM   21  C   UNL     1      42.488 -14.602   4.437  1.00  0.00     0.098 A 
HETATM   22  C   UNL     1      42.708 -15.821   3.822  1.00  0.00     0.138 A 
HETATM   23  N   UNL     1      42.298 -16.357   2.644  1.00  0.00    -0.370 N 
HETATM   24  N   UNL     1      43.481 -16.549   4.698  1.00  0.00    -0.240 N 
HETATM   25  C   UNL     1      42.817 -17.637   2.174  1.00  0.00     0.081 C 
HETATM   26  H   UNL     1      41.472 -16.012   2.153  1.00  0.00     0.161 HD
HETATM   27  C   UNL     1      44.056 -17.400   1.314  1.00  0.00     0.032 C 
HETATM   28  C   UNL     1      43.075 -18.565   3.363  1.00  0.00     0.061 C 
HETATM   29  C   UNL     1      43.946 -17.902   4.448  1.00  0.00     0.221 C 
HETATM   30  N   UNL     1      43.828 -15.869   5.801  1.00  0.00    -0.181 NA
HETATM   31  C   UNL     1      43.184 -14.706   5.663  1.00  0.00     0.160 A 
BRANCH  29  32
HETATM   32  C   UNL     1      43.931 -18.759   5.696  1.00  0.00     0.409 C 
HETATM   33  F   UNL     1      42.818 -18.576   6.442  1.00  0.00    -0.169 F 
HETATM   34  F   UNL     1      43.940 -20.074   5.338  1.00  0.00    -0.169 F 
HETATM   35  F   UNL     1      45.011 -18.586   6.487  1.00  0.00    -0.169 F 
ENDBRANCH  29  32
ENDBRANCH   1  21
TORSDOF 8
ENDMDL
MODEL 9
REMARK VINA RESULT:      -7.6      7.025     10.098
REMARK  8 active torsions:
REMARK  status: ('A' for Active; 'I' for Inactive)
REMARK    1  A    between atoms: C_8  and  C_9 
REMARK       I    between atoms: C_9  and  N_10 
REMARK    2  A    between atoms: N_10  and  N_11 
REMARK    3  A    between atoms: N_11  and  C_12 
REMARK    4  A    between atoms: C_12  and  N_13 
REMARK    5  A    between atoms: N_13  and  C_14 
REMARK    6  A    between atoms: C_15  and  O_16 
REMARK    7  A    between atoms: C_19  and  O_20 
REMARK    8  A    between atoms: C_26  and  C_27 
ROOT
HETATM    1  C   UNL     1      39.607 -10.558   8.553  1.00  0.00     0.275 C 
HETATM    2  N   UNL     1      39.844 -11.911   8.436  1.00  0.00    -0.263 N 
HETATM    3  O   UNL     1      38.809  -9.952   7.841  1.00  0.00    -0.266 OA
HETATM    4  H   UNL     1      40.646 -12.329   8.900  1.00  0.00     0.190 HD
ENDROOT
BRANCH   2   5
HETATM    5  N   UNL     1      39.214 -12.646   7.410  1.00  0.00    -0.273 N 
HETATM    6  H   UNL     1      38.666 -13.433   7.766  1.00  0.00     0.189 HD
BRANCH   5   7
HETATM    7  C   UNL     1      39.923 -12.897   6.271  1.00  0.00     0.191 C 
HETATM    8  S   UNL     1      39.350 -12.354   4.802  1.00  0.00    -0.039 SA
BRANCH   7   9
HETATM    9  N   UNL     1      41.049 -13.660   6.314  1.00  0.00    -0.330 N 
HETATM   10  H   UNL     1      41.712 -13.394   7.037  1.00  0.00     0.168 HD
BRANCH   9  11
HETATM   11  C   UNL     1      41.355 -14.904   5.711  1.00  0.00     0.068 A 
HETATM   12  C   UNL     1      42.333 -14.908   4.694  1.00  0.00     0.097 A 
HETATM   13  C   UNL     1      42.699 -16.112   4.077  1.00  0.00     0.075 A 
HETATM   14  C   UNL     1      42.110 -17.314   4.476  1.00  0.00     0.070 A 
HETATM   15  C   UNL     1      41.158 -17.305   5.496  1.00  0.00     0.039 A 
HETATM   16  C   UNL     1      40.788 -16.112   6.120  1.00  0.00     0.035 A 
BRANCH  12  17
HETATM   17  O   UNL     1      42.852 -13.673   4.377  1.00  0.00    -0.354 OA
HETATM   18  C   UNL     1      42.674 -13.211   3.043  1.00  0.00     0.210 C 
ENDBRANCH  12  17
BRANCH  14  19
HETATM   19  O   UNL     1      42.376 -18.551   3.962  1.00  0.00    -0.356 OA
HETATM   20  C   UNL     1      43.000 -18.606   2.685  1.00  0.00     0.210 C 
ENDBRANCH  14  19
ENDBRANCH   9  11
ENDBRANCH   7   9
ENDBRANCH   5   7
ENDBRANCH   2   5
BRANCH   1  21
HETATM   21  C   UNL     1      40.408  -9.906   9.566  1.00  0.00     0.098 A 
HETATM   22  C   UNL     1      41.577 -10.335  10.167  1.00  0.00     0.138 A 
HETATM   23  N   UNL     1      42.319 -11.467  10.058  1.00  0.00    -0.370 N 
HETATM   24  N   UNL     1      41.933  -9.340  11.049  1.00  0.00    -0.240 N 
HETATM   25  C   UNL     1      43.616 -11.589  10.716  1.00  0.00     0.081 C 
HETATM   26  H   UNL     1      41.923 -12.339   9.705  1.00  0.00     0.161 HD
HETATM   27  C   UNL     1      44.715 -11.110   9.771  1.00  0.00     0.032 C 
HETATM   28  C   UNL     1      43.597 -10.837  12.050  1.00  0.00     0.061 C 
HETATM   29  C   UNL     1      43.110  -9.384  11.899  1.00  0.00     0.221 C 
HETATM   30  N   UNL     1      41.116  -8.277  11.017  1.00  0.00    -0.181 NA
HETATM   31  C   UNL     1      40.165  -8.642  10.153  1.00  0.00     0.160 A 
BRANCH  29  32
HETATM   32  C   UNL     1      42.857  -8.794  13.271  1.00  0.00     0.409 C 
HETATM   33  F   UNL     1      42.846  -7.442  13.264  1.00  0.00    -0.169 F 
HETATM   34  F   UNL     1      41.625  -9.184  13.706  1.00  0.00    -0.169 F 
HETATM   35  F   UNL     1      43.728  -9.213  14.212  1.00  0.00    -0.169 F 
ENDBRANCH  29  32
ENDBRANCH   1  21
TORSDOF 8
ENDMDL
MODEL 10
REMARK VINA RESULT:      -7.3      7.175     10.347
REMARK  8 active torsions:
REMARK  status: ('A' for Active; 'I' for Inactive)
REMARK    1  A    between atoms: C_8  and  C_9 
REMARK       I    between atoms: C_9  and  N_10 
REMARK    2  A    between atoms: N_10  and  N_11 
REMARK    3  A    between atoms: N_11  and  C_12 
REMARK    4  A    between atoms: C_12  and  N_13 
REMARK    5  A    between atoms: N_13  and  C_14 
REMARK    6  A    between atoms: C_15  and  O_16 
REMARK    7  A    between atoms: C_19  and  O_20 
REMARK    8  A    between atoms: C_26  and  C_27 
ROOT
HETATM    1  C   UNL     1      42.158 -10.505   8.238  1.00  0.00     0.275 C 
HETATM    2  N   UNL     1      42.161 -11.757   7.658  1.00  0.00    -0.263 N 
HETATM    3  O   UNL     1      42.116  -9.464   7.586  1.00  0.00    -0.266 OA
HETATM    4  H   UNL     1      42.398 -12.574   8.215  1.00  0.00     0.190 HD
ENDROOT
BRANCH   2   5
HETATM    5  N   UNL     1      42.197 -11.877   6.254  1.00  0.00    -0.273 N 
HETATM    6  H   UNL     1      42.140 -10.974   5.777  1.00  0.00     0.189 HD
BRANCH   5   7
HETATM    7  C   UNL     1      41.481 -12.886   5.678  1.00  0.00     0.191 C 
HETATM    8  S   UNL     1      40.526 -12.569   4.348  1.00  0.00    -0.039 SA
BRANCH   7   9
HETATM    9  N   UNL     1      41.474 -14.129   6.230  1.00  0.00    -0.330 N 
HETATM   10  H   UNL     1      40.681 -14.318   6.836  1.00  0.00     0.168 HD
BRANCH   9  11
HETATM   11  C   UNL     1      42.224 -15.290   5.922  1.00  0.00     0.068 A 
HETATM   12  C   UNL     1      43.503 -15.409   6.506  1.00  0.00     0.097 A 
HETATM   13  C   UNL     1      44.284 -16.548   6.262  1.00  0.00     0.075 A 
HETATM   14  C   UNL     1      43.794 -17.574   5.451  1.00  0.00     0.070 A 
HETATM   15  C   UNL     1      42.522 -17.459   4.891  1.00  0.00     0.039 A 
HETATM   16  C   UNL     1      41.734 -16.331   5.132  1.00  0.00     0.035 A 
BRANCH  12  17
HETATM   17  O   UNL     1      43.890 -14.345   7.288  1.00  0.00    -0.354 OA
HETATM   18  C   UNL     1      45.188 -13.805   7.064  1.00  0.00     0.210 C 
ENDBRANCH  12  17
BRANCH  14  19
HETATM   19  O   UNL     1      44.448 -18.732   5.135  1.00  0.00    -0.356 OA
HETATM   20  C   UNL     1      44.145 -19.329   3.880  1.00  0.00     0.210 C 
ENDBRANCH  14  19
ENDBRANCH   9  11
ENDBRANCH   7   9
ENDBRANCH   5   7
ENDBRANCH   2   5
BRANCH   1  21
HETATM   21  C   UNL     1      42.244 -10.525   9.682  1.00  0.00     0.098 A 
HETATM   22  C   UNL     1      41.517  -9.804  10.612  1.00  0.00     0.138 A 
HETATM   23  N   UNL     1      40.557  -8.850  10.506  1.00  0.00    -0.370 N 
HETATM   24  N   UNL     1      41.981 -10.205  11.844  1.00  0.00    -0.240 N 
HETATM   25  C   UNL     1      39.844  -8.360  11.681  1.00  0.00     0.081 C 
HETATM   26  H   UNL     1      40.443  -8.291   9.659  1.00  0.00     0.161 HD
HETATM   27  C   UNL     1      38.591  -9.203  11.905  1.00  0.00     0.032 C 
HETATM   28  C   UNL     1      40.782  -8.340  12.890  1.00  0.00     0.061 C 
HETATM   29  C   UNL     1      41.487  -9.691  13.110  1.00  0.00     0.221 C 
HETATM   30  N   UNL     1      42.907 -11.174  11.780  1.00  0.00    -0.181 NA
HETATM   31  C   UNL     1      43.099 -11.332  10.468  1.00  0.00     0.160 A 
BRANCH  29  32
HETATM   32  C   UNL     1      42.590  -9.521  14.135  1.00  0.00     0.409 C 
HETATM   33  F   UNL     1      42.360  -8.492  14.981  1.00  0.00    -0.169 F 
HETATM   34  F   UNL     1      42.661 -10.642  14.907  1.00  0.00    -0.169 F 
HETATM   35  F   UNL     1      43.816  -9.368  13.594  1.00  0.00    -0.169 F 
ENDBRANCH  29  32
ENDBRANCH   1  21
TORSDOF 8
ENDMDL
