MODEL 1
REMARK VINA RESULT:      -7.6      0.000      0.000
REMARK  2 active torsions:
REMARK  status: ('A' for Active; 'I' for Inactive)
REMARK    1  A    between atoms: C_8  and  S_9 
REMARK    2  A    between atoms: S_9  and  C_10 
ROOT
HETATM    1  C   UNL     1      43.682 -21.541   1.742  1.00  0.00     0.002 A 
HETATM    2  C   UNL     1      43.285 -20.212   1.894  1.00  0.00     0.034 A 
HETATM    3  C   UNL     1      43.649 -19.474   3.013  1.00  0.00     0.087 A 
HETATM    4  C   UNL     1      44.436 -20.093   4.021  1.00  0.00     0.087 A 
HETATM    5  N   UNL     1      44.808 -19.424   5.130  1.00  0.00    -0.232 NA
HETATM    6  C   UNL     1      44.350 -18.162   5.257  1.00  0.00     0.164 A 
HETATM    7 CL   UNL     1      44.869 -17.369   6.686  1.00  0.00    -0.059 Cl
HETATM    8  C   UNL     1      43.589 -17.555   4.273  1.00  0.00     0.165 A 
HETATM    9  N   UNL     1      43.255 -18.186   3.119  1.00  0.00    -0.234 NA
HETATM   10  C   UNL     1      44.832 -21.413   3.852  1.00  0.00     0.034 A 
HETATM   11  C   UNL     1      44.461 -22.141   2.722  1.00  0.00     0.002 A 
ENDROOT
BRANCH   8  12
HETATM   12  S   UNL     1      42.967 -15.884   4.382  1.00  0.00     0.078 S 
HETATM   13  O   UNL     1      42.040 -15.843   5.561  1.00  0.00    -0.251 OA
BRANCH  12  14
HETATM   14  C   UNL     1      41.889 -15.814   2.916  1.00  0.00     0.112 C 
HETATM   15  C   UNL     1      42.456 -14.909   1.821  1.00  0.00     0.250 C 
HETATM   16  N   UNL     1      41.565 -14.983   0.605  1.00  0.00    -0.074 N 
HETATM   17  H   UNL     1      41.618 -15.927   0.193  1.00  0.00     0.277 HD
HETATM   18  H   UNL     1      41.950 -14.355  -0.115  1.00  0.00     0.277 HD
HETATM   19  C   UNL     1      40.144 -14.611   0.872  1.00  0.00     0.232 C 
HETATM   20  C   UNL     1      39.581 -15.513   1.964  1.00  0.00     0.029 C 
HETATM   21  C   UNL     1      40.434 -15.479   3.236  1.00  0.00     0.021 C 
ENDBRANCH  12  14
ENDBRANCH   8  12
TORSDOF 2
ENDMDL
MODEL 2
REMARK VINA RESULT:      -7.0      2.946      4.218
REMARK  2 active torsions:
REMARK  status: ('A' for Active; 'I' for Inactive)
REMARK    1  A    between atoms: C_8  and  S_9 
REMARK    2  A    between atoms: S_9  and  C_10 
ROOT
HETATM    1  C   UNL     1      45.017 -21.123   4.085  1.00  0.00     0.002 A 
HETATM    2  C   UNL     1      44.601 -19.841   4.445  1.00  0.00     0.034 A 
HETATM    3  C   UNL     1      43.770 -19.093   3.620  1.00  0.00     0.087 A 
HETATM    4  C   UNL     1      43.345 -19.649   2.383  1.00  0.00     0.087 A 
HETATM    5  N   UNL     1      42.548 -18.962   1.542  1.00  0.00    -0.232 NA
HETATM    6  C   UNL     1      42.220 -17.706   1.910  1.00  0.00     0.164 A 
HETATM    7 CL   UNL     1      41.197 -16.895   0.798  1.00  0.00    -0.059 Cl
HETATM    8  C   UNL     1      42.628 -17.166   3.118  1.00  0.00     0.165 A 
HETATM    9  N   UNL     1      43.378 -17.861   4.009  1.00  0.00    -0.234 NA
HETATM   10  C   UNL     1      43.760 -20.929   2.041  1.00  0.00     0.034 A 
HETATM   11  C   UNL     1      44.592 -21.669   2.880  1.00  0.00     0.002 A 
ENDROOT
BRANCH   8  12
HETATM   12  S   UNL     1      42.215 -15.515   3.661  1.00  0.00     0.078 S 
HETATM   13  O   UNL     1      42.751 -14.572   2.626  1.00  0.00    -0.251 OA
BRANCH  12  14
HETATM   14  C   UNL     1      43.316 -15.333   5.099  1.00  0.00     0.112 C 
HETATM   15  C   UNL     1      42.595 -15.607   6.421  1.00  0.00     0.250 C 
HETATM   16  N   UNL     1      43.592 -15.538   7.552  1.00  0.00    -0.074 N 
HETATM   17  H   UNL     1      44.262 -16.318   7.473  1.00  0.00     0.277 HD
HETATM   18  H   UNL     1      43.088 -15.706   8.435  1.00  0.00     0.277 HD
HETATM   19  C   UNL     1      44.319 -14.237   7.642  1.00  0.00     0.232 C 
HETATM   20  C   UNL     1      45.034 -13.965   6.325  1.00  0.00     0.029 C 
HETATM   21  C   UNL     1      44.077 -14.009   5.129  1.00  0.00     0.021 C 
ENDBRANCH  12  14
ENDBRANCH   8  12
TORSDOF 2
ENDMDL
MODEL 3
REMARK VINA RESULT:      -7.0      2.480      3.817
REMARK  2 active torsions:
REMARK  status: ('A' for Active; 'I' for Inactive)
REMARK    1  A    between atoms: C_8  and  S_9 
REMARK    2  A    between atoms: S_9  and  C_10 
ROOT
HETATM    1  C   UNL     1      43.291 -17.023   8.019  1.00  0.00     0.002 A 
HETATM    2  C   UNL     1      43.019 -16.773   6.674  1.00  0.00     0.034 A 
HETATM    3  C   UNL     1      43.341 -17.699   5.689  1.00  0.00     0.087 A 
HETATM    4  C   UNL     1      43.965 -18.919   6.066  1.00  0.00     0.087 A 
HETATM    5  N   UNL     1      44.306 -19.845   5.150  1.00  0.00    -0.232 NA
HETATM    6  C   UNL     1      44.075 -19.532   3.859  1.00  0.00     0.164 A 
HETATM    7 CL   UNL     1      44.525 -20.759   2.749  1.00  0.00    -0.059 Cl
HETATM    8  C   UNL     1      43.461 -18.347   3.490  1.00  0.00     0.165 A 
HETATM    9  N   UNL     1      43.051 -17.427   4.398  1.00  0.00    -0.234 NA
HETATM   10  C   UNL     1      44.222 -19.157   7.410  1.00  0.00     0.034 A 
HETATM   11  C   UNL     1      43.891 -18.220   8.388  1.00  0.00     0.002 A 
ENDROOT
BRANCH   8  12
HETATM   12  S   UNL     1      43.119 -17.886   1.798  1.00  0.00     0.078 S 
HETATM   13  O   UNL     1      44.319 -17.133   1.304  1.00  0.00    -0.251 OA
BRANCH  12  14
HETATM   14  C   UNL     1      41.823 -16.630   2.032  1.00  0.00     0.112 C 
HETATM   15  C   UNL     1      40.427 -17.169   1.711  1.00  0.00     0.250 C 
HETATM   16  N   UNL     1      39.401 -16.108   2.026  1.00  0.00    -0.074 N 
HETATM   17  H   UNL     1      39.371 -15.944   3.044  1.00  0.00     0.277 HD
HETATM   18  H   UNL     1      38.470 -16.480   1.788  1.00  0.00     0.277 HD
HETATM   19  C   UNL     1      39.616 -14.822   1.299  1.00  0.00     0.232 C 
HETATM   20  C   UNL     1      41.007 -14.287   1.618  1.00  0.00     0.029 C 
HETATM   21  C   UNL     1      42.103 -15.312   1.312  1.00  0.00     0.021 C 
ENDBRANCH  12  14
ENDBRANCH   8  12
TORSDOF 2
ENDMDL
MODEL 4
REMARK VINA RESULT:      -7.0      1.761      1.859
REMARK  2 active torsions:
REMARK  status: ('A' for Active; 'I' for Inactive)
REMARK    1  A    between atoms: C_8  and  S_9 
REMARK    2  A    between atoms: S_9  and  C_10 
ROOT
HETATM    1  C   UNL     1      43.941 -20.089   2.105  1.00  0.00     0.002 A 
HETATM    2  C   UNL     1      43.304 -18.921   2.526  1.00  0.00     0.034 A 
HETATM    3  C   UNL     1      43.339 -18.519   3.856  1.00  0.00     0.087 A 
HETATM    4  C   UNL     1      44.032 -19.322   4.801  1.00  0.00     0.087 A 
HETATM    5  N   UNL     1      44.088 -18.983   6.103  1.00  0.00    -0.232 NA
HETATM    6  C   UNL     1      43.409 -17.876   6.469  1.00  0.00     0.164 A 
HETATM    7 CL   UNL     1      43.530 -17.499   8.137  1.00  0.00    -0.059 Cl
HETATM    8  C   UNL     1      42.737 -17.090   5.548  1.00  0.00     0.165 A 
HETATM    9  N   UNL     1      42.721 -17.376   4.222  1.00  0.00    -0.234 NA
HETATM   10  C   UNL     1      44.669 -20.478   4.366  1.00  0.00     0.034 A 
HETATM   11  C   UNL     1      44.628 -20.867   3.028  1.00  0.00     0.002 A 
ENDROOT
BRANCH   8  12
HETATM   12  S   UNL     1      41.833 -15.609   5.974  1.00  0.00     0.078 S 
HETATM   13  O   UNL     1      40.419 -16.030   6.248  1.00  0.00    -0.251 OA
BRANCH  12  14
HETATM   14  C   UNL     1      41.780 -14.756   4.367  1.00  0.00     0.112 C 
HETATM   15  C   UNL     1      42.598 -13.462   4.369  1.00  0.00     0.250 C 
HETATM   16  N   UNL     1      42.591 -12.869   2.981  1.00  0.00    -0.074 N 
HETATM   17  H   UNL     1      43.110 -13.485   2.337  1.00  0.00     0.277 HD
HETATM   18  H   UNL     1      43.129 -11.991   3.004  1.00  0.00     0.277 HD
HETATM   19  C   UNL     1      41.224 -12.593   2.446  1.00  0.00     0.232 C 
HETATM   20  C   UNL     1      40.411 -13.882   2.446  1.00  0.00     0.029 C 
HETATM   21  C   UNL     1      40.367 -14.536   3.831  1.00  0.00     0.021 C 
ENDBRANCH  12  14
ENDBRANCH   8  12
TORSDOF 2
ENDMDL
MODEL 5
REMARK VINA RESULT:      -6.8      2.588      3.079
REMARK  2 active torsions:
REMARK  status: ('A' for Active; 'I' for Inactive)
REMARK    1  A    between atoms: C_8  and  S_9 
REMARK    2  A    between atoms: S_9  and  C_10 
ROOT
HETATM    1  C   UNL     1      44.756 -22.577   4.279  1.00  0.00     0.002 A 
HETATM    2  C   UNL     1      44.682 -21.503   5.167  1.00  0.00     0.034 A 
HETATM    3  C   UNL     1      44.393 -20.218   4.722  1.00  0.00     0.087 A 
HETATM    4  C   UNL     1      44.177 -20.001   3.335  1.00  0.00     0.087 A 
HETATM    5  N   UNL     1      43.903 -18.774   2.851  1.00  0.00    -0.232 NA
HETATM    6  C   UNL     1      43.900 -17.760   3.741  1.00  0.00     0.164 A 
HETATM    7 CL   UNL     1      43.537 -16.230   3.058  1.00  0.00    -0.059 Cl
HETATM    8  C   UNL     1      44.105 -17.971   5.094  1.00  0.00     0.165 A 
HETATM    9  N   UNL     1      44.319 -19.206   5.613  1.00  0.00    -0.234 NA
HETATM   10  C   UNL     1      44.244 -21.081   2.464  1.00  0.00     0.034 A 
HETATM   11  C   UNL     1      44.532 -22.365   2.925  1.00  0.00     0.002 A 
ENDROOT
BRANCH   8  12
HETATM   12  S   UNL     1      44.100 -16.669   6.318  1.00  0.00     0.078 S 
HETATM   13  O   UNL     1      43.589 -17.276   7.592  1.00  0.00    -0.251 OA
BRANCH  12  14
HETATM   14  C   UNL     1      42.747 -15.617   5.706  1.00  0.00     0.112 C 
HETATM   15  C   UNL     1      43.006 -14.131   5.960  1.00  0.00     0.250 C 
HETATM   16  N   UNL     1      41.897 -13.321   5.335  1.00  0.00    -0.074 N 
HETATM   17  H   UNL     1      41.940 -13.404   4.309  1.00  0.00     0.277 HD
HETATM   18  H   UNL     1      42.076 -12.325   5.531  1.00  0.00     0.277 HD
HETATM   19  C   UNL     1      40.533 -13.679   5.828  1.00  0.00     0.232 C 
HETATM   20  C   UNL     1      40.277 -15.160   5.575  1.00  0.00     0.029 C 
HETATM   21  C   UNL     1      41.364 -16.046   6.192  1.00  0.00     0.021 C 
ENDBRANCH  12  14
ENDBRANCH   8  12
TORSDOF 2
ENDMDL
MODEL 6
REMARK VINA RESULT:      -6.8      2.304      2.698
REMARK  2 active torsions:
REMARK  status: ('A' for Active; 'I' for Inactive)
REMARK    1  A    between atoms: C_8  and  S_9 
REMARK    2  A    between atoms: S_9  and  C_10 
ROOT
HETATM    1  C   UNL     1      43.963 -21.005   2.102  1.00  0.00     0.002 A 
HETATM    2  C   UNL     1      43.606 -19.685   1.824  1.00  0.00     0.034 A 
HETATM    3  C   UNL     1      43.693 -18.695   2.795  1.00  0.00     0.087 A 
HETATM    4  C   UNL     1      44.149 -19.042   4.095  1.00  0.00     0.087 A 
HETATM    5  N   UNL     1      44.242 -18.122   5.075  1.00  0.00    -0.232 NA
HETATM    6  C   UNL     1      43.831 -16.873   4.772  1.00  0.00     0.164 A 
HETATM    7 CL   UNL     1      43.986 -15.754   6.062  1.00  0.00    -0.059 Cl
HETATM    8  C   UNL     1      43.393 -16.532   3.504  1.00  0.00     0.165 A 
HETATM    9  N   UNL     1      43.350 -17.426   2.485  1.00  0.00    -0.234 NA
HETATM   10  C   UNL     1      44.509 -20.358   4.355  1.00  0.00     0.034 A 
HETATM   11  C   UNL     1      44.419 -21.341   3.370  1.00  0.00     0.002 A 
ENDROOT
BRANCH   8  12
HETATM   12  S   UNL     1      42.849 -14.894   3.045  1.00  0.00     0.078 S 
HETATM   13  O   UNL     1      44.038 -13.989   3.182  1.00  0.00    -0.251 OA
BRANCH  12  14
HETATM   14  C   UNL     1      41.762 -14.479   4.444  1.00  0.00     0.112 C 
HETATM   15  C   UNL     1      40.328 -14.971   4.232  1.00  0.00     0.250 C 
HETATM   16  N   UNL     1      39.517 -14.684   5.472  1.00  0.00    -0.074 N 
HETATM   17  H   UNL     1      39.860 -15.262   6.253  1.00  0.00     0.277 HD
HETATM   18  H   UNL     1      38.552 -15.004   5.305  1.00  0.00     0.277 HD
HETATM   19  C   UNL     1      39.495 -13.243   5.862  1.00  0.00     0.232 C 
HETATM   20  C   UNL     1      40.924 -12.754   6.071  1.00  0.00     0.029 C 
HETATM   21  C   UNL     1      41.805 -13.006   4.844  1.00  0.00     0.021 C 
ENDBRANCH  12  14
ENDBRANCH   8  12
TORSDOF 2
ENDMDL
MODEL 7
REMARK VINA RESULT:      -6.7      1.815      2.382
REMARK  2 active torsions:
REMARK  status: ('A' for Active; 'I' for Inactive)
REMARK    1  A    between atoms: C_8  and  S_9 
REMARK    2  A    between atoms: S_9  and  C_10 
ROOT
HETATM    1  C   UNL     1      44.157 -21.168   6.392  1.00  0.00     0.002 A 
HETATM    2  C   UNL     1      43.771 -19.837   6.226  1.00  0.00     0.034 A 
HETATM    3  C   UNL     1      43.817 -19.222   4.981  1.00  0.00     0.087 A 
HETATM    4  C   UNL     1      44.274 -19.967   3.860  1.00  0.00     0.087 A 
HETATM    5  N   UNL     1      44.347 -19.415   2.634  1.00  0.00    -0.232 NA
HETATM    6  C   UNL     1      44.017 -18.111   2.537  1.00  0.00     0.164 A 
HETATM    7 CL   UNL     1      44.125 -17.478   0.947  1.00  0.00    -0.059 Cl
HETATM    8  C   UNL     1      43.566 -17.386   3.627  1.00  0.00     0.165 A 
HETATM    9  N   UNL     1      43.423 -17.936   4.858  1.00  0.00    -0.234 NA
HETATM   10  C   UNL     1      44.647 -21.293   4.038  1.00  0.00     0.034 A 
HETATM   11  C   UNL     1      44.593 -21.898   5.293  1.00  0.00     0.002 A 
ENDROOT
BRANCH   8  12
HETATM   12  S   UNL     1      43.104 -15.661   3.554  1.00  0.00     0.078 S 
HETATM   13  O   UNL     1      42.588 -15.294   4.914  1.00  0.00    -0.251 OA
BRANCH  12  14
HETATM   14  C   UNL     1      41.636 -15.736   2.482  1.00  0.00     0.112 C 
HETATM   15  C   UNL     1      41.884 -15.102   1.111  1.00  0.00     0.250 C 
HETATM   16  N   UNL     1      40.661 -15.294   0.248  1.00  0.00    -0.074 N 
HETATM   17  H   UNL     1      40.539 -16.295   0.035  1.00  0.00     0.277 HD
HETATM   18  H   UNL     1      40.837 -14.846  -0.663  1.00  0.00     0.277 HD
HETATM   19  C   UNL     1      39.409 -14.732   0.836  1.00  0.00     0.232 C 
HETATM   20  C   UNL     1      39.164 -15.364   2.202  1.00  0.00     0.029 C 
HETATM   21  C   UNL     1      40.366 -15.198   3.138  1.00  0.00     0.021 C 
ENDBRANCH  12  14
ENDBRANCH   8  12
TORSDOF 2
ENDMDL
MODEL 8
REMARK VINA RESULT:      -6.6      2.019      2.372
REMARK  2 active torsions:
REMARK  status: ('A' for Active; 'I' for Inactive)
REMARK    1  A    between atoms: C_8  and  S_9 
REMARK    2  A    between atoms: S_9  and  C_10 
ROOT
HETATM    1  C   UNL     1      44.101 -20.960   2.123  1.00  0.00     0.002 A 
HETATM    2  C   UNL     1      43.149 -19.973   1.865  1.00  0.00     0.034 A 
HETATM    3  C   UNL     1      42.951 -18.915   2.744  1.00  0.00     0.087 A 
HETATM    4  C   UNL     1      43.732 -18.848   3.929  1.00  0.00     0.087 A 
HETATM    5  N   UNL     1      43.572 -17.849   4.819  1.00  0.00    -0.232 NA
HETATM    6  C   UNL     1      42.600 -16.952   4.553  1.00  0.00     0.164 A 
HETATM    7 CL   UNL     1      42.459 -15.705   5.721  1.00  0.00    -0.059 Cl
HETATM    8  C   UNL     1      41.843 -17.013   3.395  1.00  0.00     0.165 A 
HETATM    9  N   UNL     1      42.028 -17.972   2.454  1.00  0.00    -0.234 NA
HETATM   10  C   UNL     1      44.681 -19.833   4.169  1.00  0.00     0.034 A 
HETATM   11  C   UNL     1      44.872 -20.887   3.276  1.00  0.00     0.002 A 
ENDROOT
BRANCH   8  12
HETATM   12  S   UNL     1      40.553 -15.847   2.985  1.00  0.00     0.078 S 
HETATM   13  O   UNL     1      39.626 -16.544   2.033  1.00  0.00    -0.251 OA
BRANCH  12  14
HETATM   14  C   UNL     1      41.473 -14.646   1.974  1.00  0.00     0.112 C 
HETATM   15  C   UNL     1      41.522 -13.259   2.618  1.00  0.00     0.250 C 
HETATM   16  N   UNL     1      42.385 -12.351   1.776  1.00  0.00    -0.074 N 
HETATM   17  H   UNL     1      43.364 -12.671   1.812  1.00  0.00     0.277 HD
HETATM   18  H   UNL     1      42.391 -11.418   2.213  1.00  0.00     0.277 HD
HETATM   19  C   UNL     1      41.930 -12.226   0.359  1.00  0.00     0.232 C 
HETATM   20  C   UNL     1      41.882 -13.608  -0.281  1.00  0.00     0.029 C 
HETATM   21  C   UNL     1      41.012 -14.583   0.519  1.00  0.00     0.021 C 
ENDBRANCH  12  14
ENDBRANCH   8  12
TORSDOF 2
ENDMDL
MODEL 9
REMARK VINA RESULT:      -6.6      1.645      2.068
REMARK  2 active torsions:
REMARK  status: ('A' for Active; 'I' for Inactive)
REMARK    1  A    between atoms: C_8  and  S_9 
REMARK    2  A    between atoms: S_9  and  C_10 
ROOT
HETATM    1  C   UNL     1      44.753 -21.752   3.465  1.00  0.00     0.002 A 
HETATM    2  C   UNL     1      44.495 -20.386   3.350  1.00  0.00     0.034 A 
HETATM    3  C   UNL     1      44.221 -19.606   4.467  1.00  0.00     0.087 A 
HETATM    4  C   UNL     1      44.198 -20.222   5.748  1.00  0.00     0.087 A 
HETATM    5  N   UNL     1      43.928 -19.514   6.862  1.00  0.00    -0.232 NA
HETATM    6  C   UNL     1      43.629 -18.210   6.692  1.00  0.00     0.164 A 
HETATM    7 CL   UNL     1      43.306 -17.369   8.151  1.00  0.00    -0.059 Cl
HETATM    8  C   UNL     1      43.657 -17.608   5.445  1.00  0.00     0.165 A 
HETATM    9  N   UNL     1      43.988 -18.285   4.318  1.00  0.00    -0.234 NA
HETATM   10  C   UNL     1      44.465 -21.581   5.849  1.00  0.00     0.034 A 
HETATM   11  C   UNL     1      44.742 -22.350   4.719  1.00  0.00     0.002 A 
ENDROOT
BRANCH   8  12
HETATM   12  S   UNL     1      43.282 -15.883   5.162  1.00  0.00     0.078 S 
HETATM   13  O   UNL     1      42.320 -15.469   6.235  1.00  0.00    -0.251 OA
BRANCH  12  14
HETATM   14  C   UNL     1      42.294 -15.985   3.637  1.00  0.00     0.112 C 
HETATM   15  C   UNL     1      41.137 -16.979   3.760  1.00  0.00     0.250 C 
HETATM   16  N   UNL     1      40.306 -16.931   2.501  1.00  0.00    -0.074 N 
HETATM   17  H   UNL     1      39.836 -16.017   2.429  1.00  0.00     0.277 HD
HETATM   18  H   UNL     1      39.544 -17.618   2.592  1.00  0.00     0.277 HD
HETATM   19  C   UNL     1      41.078 -17.217   1.254  1.00  0.00     0.232 C 
HETATM   20  C   UNL     1      42.230 -16.227   1.134  1.00  0.00     0.029 C 
HETATM   21  C   UNL     1      43.124 -16.229   2.379  1.00  0.00     0.021 C 
ENDBRANCH  12  14
ENDBRANCH   8  12
TORSDOF 2
ENDMDL
MODEL 10
REMARK VINA RESULT:      -6.6      3.273      4.246
REMARK  2 active torsions:
REMARK  status: ('A' for Active; 'I' for Inactive)
REMARK    1  A    between atoms: C_8  and  S_9 
REMARK    2  A    between atoms: S_9  and  C_10 
ROOT
HETATM    1  C   UNL     1      44.338 -19.145   4.460  1.00  0.00     0.002 A 
HETATM    2  C   UNL     1      43.837 -17.843   4.444  1.00  0.00     0.034 A 
HETATM    3  C   UNL     1      43.230 -17.316   3.311  1.00  0.00     0.087 A 
HETATM    4  C   UNL     1      43.128 -18.123   2.145  1.00  0.00     0.087 A 
HETATM    5  N   UNL     1      42.558 -17.658   1.017  1.00  0.00    -0.232 NA
HETATM    6  C   UNL     1      42.142 -16.375   1.035  1.00  0.00     0.164 A 
HETATM    7 CL   UNL     1      41.420 -15.853  -0.430  1.00  0.00    -0.059 Cl
HETATM    8  C   UNL     1      42.235 -15.589   2.171  1.00  0.00     0.165 A 
HETATM    9  N   UNL     1      42.747 -16.056   3.338  1.00  0.00    -0.234 NA
HETATM   10  C   UNL     1      43.624 -19.421   2.178  1.00  0.00     0.034 A 
HETATM   11  C   UNL     1      44.227 -19.937   3.324  1.00  0.00     0.002 A 
ENDROOT
BRANCH   8  12
HETATM   12  S   UNL     1      41.689 -13.890   2.256  1.00  0.00     0.078 S 
HETATM   13  O   UNL     1      42.908 -13.035   2.074  1.00  0.00    -0.251 OA
BRANCH  12  14
HETATM   14  C   UNL     1      41.257 -13.748   4.019  1.00  0.00     0.112 C 
HETATM   15  C   UNL     1      39.835 -14.231   4.309  1.00  0.00     0.250 C 
HETATM   16  N   UNL     1      39.588 -14.180   5.797  1.00  0.00    -0.074 N 
HETATM   17  H   UNL     1      40.183 -14.875   6.273  1.00  0.00     0.277 HD
HETATM   18  H   UNL     1      38.621 -14.490   5.974  1.00  0.00     0.277 HD
HETATM   19  C   UNL     1      39.786 -12.827   6.399  1.00  0.00     0.232 C 
HETATM   20  C   UNL     1      41.203 -12.347   6.107  1.00  0.00     0.029 C 
HETATM   21  C   UNL     1      41.521 -12.364   4.608  1.00  0.00     0.021 C 
ENDBRANCH  12  14
ENDBRANCH   8  12
TORSDOF 2
ENDMDL
