MODEL 1
REMARK VINA RESULT:      -9.4      0.000      0.000
REMARK  8 active torsions:
REMARK  status: ('A' for Active; 'I' for Inactive)
REMARK    1  A    between atoms: O_2  and  C_3 
REMARK    2  A    between atoms: C_4  and  C_5 
REMARK    3  A    between atoms: N_6  and  N_7 
REMARK    4  A    between atoms: C_18  and  C_19 
REMARK       I    between atoms: C_19  and  N_20 
REMARK    5  A    between atoms: N_20  and  C_21 
REMARK    6  A    between atoms: C_21  and  C_22 
REMARK    7  A    between atoms: C_22  and  C_23 
REMARK    8  A    between atoms: C_30  and  N_31 
ROOT
HETATM    1  N   UNL     1      40.875 -15.953   4.424  1.00  0.00    -0.202 N 
HETATM    2  C   UNL     1      40.181 -15.033   3.663  1.00  0.00     0.183 A 
HETATM    3  C   UNL     1      40.482 -13.779   4.189  1.00  0.00     0.124 A 
HETATM    4  N   UNL     1      40.008 -12.648   3.611  1.00  0.00    -0.242 NA
HETATM    5  C   UNL     1      39.199 -12.842   2.563  1.00  0.00     0.086 A 
HETATM    6  C   UNL     1      38.898 -14.132   2.052  1.00  0.00     0.088 A 
HETATM    7  N   UNL     1      39.413 -15.263   2.571  1.00  0.00    -0.225 NA
HETATM    8  C   UNL     1      38.627 -11.724   1.969  1.00  0.00     0.034 A 
HETATM    9  C   UNL     1      37.750 -11.839   0.891  1.00  0.00     0.002 A 
HETATM   10  C   UNL     1      37.444 -13.098   0.394  1.00  0.00     0.002 A 
HETATM   11  C   UNL     1      38.023 -14.229   0.974  1.00  0.00     0.034 A 
HETATM   12  C   UNL     1      41.335 -13.957   5.315  1.00  0.00     0.104 C 
HETATM   13  C   UNL     1      41.327 -15.318   5.577  1.00  0.00     0.123 C 
ENDROOT
BRANCH  12  14
HETATM   14  C   UNL     1      42.127 -12.936   5.988  1.00  0.00     0.257 C 
HETATM   15  N   UNL     1      41.504 -11.711   6.101  1.00  0.00    -0.356 N 
HETATM   16  H   UNL     1      40.512 -11.739   5.889  1.00  0.00     0.162 HD
HETATM   17  O   UNL     1      43.207 -13.197   6.503  1.00  0.00    -0.267 OA
BRANCH  15  18
HETATM   18  C   UNL     1      41.920 -10.675   7.026  1.00  0.00     0.127 C 
BRANCH  18  19
HETATM   19  C   UNL     1      41.303 -10.687   8.431  1.00  0.00     0.053 C 
BRANCH  19  20
HETATM   20  C   UNL     1      42.256 -10.411   9.573  1.00  0.00    -0.082 C 
HETATM   21  C   UNL     1      41.746  -9.575  10.720  1.00  0.00     0.034 C 
HETATM   22  C   UNL     1      42.856  -9.101  11.667  1.00  0.00     0.005 C 
HETATM   23  C   UNL     1      43.859 -10.213  11.953  1.00  0.00     0.004 C 
HETATM   24  C   UNL     1      44.500 -10.720  10.664  1.00  0.00     0.027 C 
HETATM   25  C   UNL     1      43.503 -10.916   9.565  1.00  0.00    -0.024 C 
ENDBRANCH  19  20
ENDBRANCH  18  19
ENDBRANCH  15  18
ENDBRANCH  12  14
BRANCH  13  26
HETATM   26  N   UNL     1      41.848 -16.060   6.611  1.00  0.00    -0.286 NA
HETATM   27  H   UNL     1      42.614 -16.682   6.343  1.00  0.00     0.125 HD
HETATM   28  H   UNL     1      42.214 -15.467   7.369  1.00  0.00     0.125 HD
ENDBRANCH  13  26
BRANCH   1  29
HETATM   29  N   UNL     1      41.294 -17.228   4.136  1.00  0.00    -0.176 NA
HETATM   30  C   UNL     1      42.353 -17.199   3.382  1.00  0.00     0.153 C 
BRANCH  30  31
HETATM   31  C   UNL     1      43.261 -18.362   3.258  1.00  0.00     0.016 A 
HETATM   32  C   UNL     1      44.105 -18.697   4.332  1.00  0.00     0.080 A 
HETATM   33  C   UNL     1      44.802 -19.909   4.285  1.00  0.00     0.037 A 
HETATM   34  C   UNL     1      44.657 -20.771   3.193  1.00  0.00     0.003 A 
HETATM   35  C   UNL     1      43.830 -20.423   2.127  1.00  0.00     0.001 A 
HETATM   36  C   UNL     1      43.131 -19.218   2.156  1.00  0.00     0.016 A 
BRANCH  32  37
HETATM   37  O   UNL     1      44.166 -17.809   5.373  1.00  0.00    -0.355 OA
HETATM   38  C   UNL     1      45.110 -18.057   6.408  1.00  0.00     0.210 C 
ENDBRANCH  32  37
ENDBRANCH  30  31
ENDBRANCH   1  29
TORSDOF 8
ENDMDL
MODEL 2
REMARK VINA RESULT:      -9.3      1.751      2.454
REMARK  8 active torsions:
REMARK  status: ('A' for Active; 'I' for Inactive)
REMARK    1  A    between atoms: O_2  and  C_3 
REMARK    2  A    between atoms: C_4  and  C_5 
REMARK    3  A    between atoms: N_6  and  N_7 
REMARK    4  A    between atoms: C_18  and  C_19 
REMARK       I    between atoms: C_19  and  N_20 
REMARK    5  A    between atoms: N_20  and  C_21 
REMARK    6  A    between atoms: C_21  and  C_22 
REMARK    7  A    between atoms: C_22  and  C_23 
REMARK    8  A    between atoms: C_30  and  N_31 
ROOT
HETATM    1  N   UNL     1      42.436 -16.224   5.557  1.00  0.00    -0.202 N 
HETATM    2  C   UNL     1      41.885 -15.110   4.955  1.00  0.00     0.183 A 
HETATM    3  C   UNL     1      42.550 -14.007   5.484  1.00  0.00     0.124 A 
HETATM    4  N   UNL     1      42.288 -12.753   5.039  1.00  0.00    -0.242 NA
HETATM    5  C   UNL     1      41.317 -12.670   4.121  1.00  0.00     0.086 A 
HETATM    6  C   UNL     1      40.645 -13.809   3.605  1.00  0.00     0.088 A 
HETATM    7  N   UNL     1      40.939 -15.067   3.986  1.00  0.00    -0.225 NA
HETATM    8  C   UNL     1      40.954 -11.404   3.675  1.00  0.00     0.034 A 
HETATM    9  C   UNL     1      39.934 -11.226   2.741  1.00  0.00     0.002 A 
HETATM   10  C   UNL     1      39.266 -12.334   2.241  1.00  0.00     0.002 A 
HETATM   11  C   UNL     1      39.631 -13.612   2.673  1.00  0.00     0.034 A 
HETATM   12  C   UNL     1      43.483 -14.469   6.455  1.00  0.00     0.104 C 
HETATM   13  C   UNL     1      43.184 -15.807   6.653  1.00  0.00     0.123 C 
ENDROOT
BRANCH  12  14
HETATM   14  C   UNL     1      44.585 -13.718   7.042  1.00  0.00     0.257 C 
HETATM   15  N   UNL     1      44.271 -13.071   8.219  1.00  0.00    -0.356 N 
HETATM   16  H   UNL     1      43.389 -13.367   8.624  1.00  0.00     0.162 HD
HETATM   17  O   UNL     1      45.716 -13.762   6.575  1.00  0.00    -0.267 OA
BRANCH  15  18
HETATM   18  C   UNL     1      45.260 -12.580   9.160  1.00  0.00     0.127 C 
BRANCH  18  19
HETATM   19  C   UNL     1      45.150 -11.116   9.607  1.00  0.00     0.053 C 
BRANCH  19  20
HETATM   20  C   UNL     1      44.266 -10.856  10.808  1.00  0.00    -0.082 C 
HETATM   21  C   UNL     1      43.959 -12.023  11.712  1.00  0.00     0.034 C 
HETATM   22  C   UNL     1      42.830 -11.737  12.710  1.00  0.00     0.005 C 
HETATM   23  C   UNL     1      42.959 -10.346  13.319  1.00  0.00     0.004 C 
HETATM   24  C   UNL     1      42.940  -9.268  12.236  1.00  0.00     0.027 C 
HETATM   25  C   UNL     1      43.793  -9.621  11.059  1.00  0.00    -0.024 C 
ENDBRANCH  19  20
ENDBRANCH  18  19
ENDBRANCH  15  18
ENDBRANCH  12  14
BRANCH  13  26
HETATM   26  N   UNL     1      43.651 -16.731   7.558  1.00  0.00    -0.286 NA
HETATM   27  H   UNL     1      43.060 -16.852   8.384  1.00  0.00     0.125 HD
HETATM   28  H   UNL     1      43.754 -17.666   7.142  1.00  0.00     0.125 HD
ENDBRANCH  13  26
BRANCH   1  29
HETATM   29  N   UNL     1      42.489 -17.534   5.149  1.00  0.00    -0.176 NA
HETATM   30  C   UNL     1      43.453 -17.704   4.292  1.00  0.00     0.153 C 
BRANCH  30  31
HETATM   31  C   UNL     1      44.021 -19.041   4.004  1.00  0.00     0.016 A 
HETATM   32  C   UNL     1      44.398 -19.876   5.071  1.00  0.00     0.080 A 
HETATM   33  C   UNL     1      44.735 -21.206   4.795  1.00  0.00     0.037 A 
HETATM   34  C   UNL     1      44.695 -21.693   3.485  1.00  0.00     0.003 A 
HETATM   35  C   UNL     1      44.334 -20.853   2.433  1.00  0.00     0.001 A 
HETATM   36  C   UNL     1      43.998 -19.526   2.689  1.00  0.00     0.016 A 
BRANCH  32  37
HETATM   37  O   UNL     1      44.382 -19.325   6.325  1.00  0.00    -0.355 OA
HETATM   38  C   UNL     1      43.804 -20.085   7.380  1.00  0.00     0.210 C 
ENDBRANCH  32  37
ENDBRANCH  30  31
ENDBRANCH   1  29
TORSDOF 8
ENDMDL
MODEL 3
REMARK VINA RESULT:      -9.2      2.116      2.429
REMARK  8 active torsions:
REMARK  status: ('A' for Active; 'I' for Inactive)
REMARK    1  A    between atoms: O_2  and  C_3 
REMARK    2  A    between atoms: C_4  and  C_5 
REMARK    3  A    between atoms: N_6  and  N_7 
REMARK    4  A    between atoms: C_18  and  C_19 
REMARK       I    between atoms: C_19  and  N_20 
REMARK    5  A    between atoms: N_20  and  C_21 
REMARK    6  A    between atoms: C_21  and  C_22 
REMARK    7  A    between atoms: C_22  and  C_23 
REMARK    8  A    between atoms: C_30  and  N_31 
ROOT
HETATM    1  N   UNL     1      42.315 -16.544   3.753  1.00  0.00    -0.202 N 
HETATM    2  C   UNL     1      42.140 -15.489   2.879  1.00  0.00     0.183 A 
HETATM    3  C   UNL     1      42.705 -14.373   3.490  1.00  0.00     0.124 A 
HETATM    4  N   UNL     1      42.761 -13.179   2.850  1.00  0.00    -0.242 NA
HETATM    5  C   UNL     1      42.184 -13.156   1.642  1.00  0.00     0.086 A 
HETATM    6  C   UNL     1      41.603 -14.306   1.044  1.00  0.00     0.088 A 
HETATM    7  N   UNL     1      41.599 -15.515   1.637  1.00  0.00    -0.225 NA
HETATM    8  C   UNL     1      42.149 -11.944   0.964  1.00  0.00     0.034 A 
HETATM    9  C   UNL     1      41.542 -11.826  -0.286  1.00  0.00     0.002 A 
HETATM   10  C   UNL     1      40.963 -12.943  -0.871  1.00  0.00     0.002 A 
HETATM   11  C   UNL     1      41.004 -14.170  -0.204  1.00  0.00     0.034 A 
HETATM   12  C   UNL     1      43.185 -14.759   4.774  1.00  0.00     0.104 C 
HETATM   13  C   UNL     1      42.681 -16.031   4.993  1.00  0.00     0.123 C 
ENDROOT
BRANCH  12  14
HETATM   14  C   UNL     1      44.096 -14.013   5.633  1.00  0.00     0.257 C 
HETATM   15  N   UNL     1      43.728 -13.980   6.962  1.00  0.00    -0.356 N 
HETATM   16  H   UNL     1      42.996 -14.641   7.198  1.00  0.00     0.162 HD
HETATM   17  O   UNL     1      45.151 -13.559   5.211  1.00  0.00    -0.267 OA
BRANCH  15  18
HETATM   18  C   UNL     1      44.631 -13.630   8.042  1.00  0.00     0.127 C 
BRANCH  18  19
HETATM   19  C   UNL     1      44.994 -12.148   8.212  1.00  0.00     0.053 C 
BRANCH  19  20
HETATM   20  C   UNL     1      44.276 -11.416   9.325  1.00  0.00    -0.082 C 
HETATM   21  C   UNL     1      42.868 -10.949   9.058  1.00  0.00     0.034 C 
HETATM   22  C   UNL     1      42.342  -9.969  10.113  1.00  0.00     0.005 C 
HETATM   23  C   UNL     1      42.718 -10.410  11.523  1.00  0.00     0.004 C 
HETATM   24  C   UNL     1      44.232 -10.528  11.677  1.00  0.00     0.027 C 
HETATM   25  C   UNL     1      44.876 -11.213  10.513  1.00  0.00    -0.024 C 
ENDBRANCH  19  20
ENDBRANCH  18  19
ENDBRANCH  15  18
ENDBRANCH  12  14
BRANCH  13  26
HETATM   26  N   UNL     1      42.695 -16.849   6.099  1.00  0.00    -0.286 NA
HETATM   27  H   UNL     1      43.529 -17.434   6.184  1.00  0.00     0.125 HD
HETATM   28  H   UNL     1      42.629 -16.317   6.977  1.00  0.00     0.125 HD
ENDBRANCH  13  26
BRANCH   1  29
HETATM   29  N   UNL     1      42.352 -17.899   3.534  1.00  0.00    -0.176 NA
HETATM   30  C   UNL     1      43.477 -18.238   2.975  1.00  0.00     0.153 C 
BRANCH  30  31
HETATM   31  C   UNL     1      43.980 -19.629   3.004  1.00  0.00     0.016 A 
HETATM   32  C   UNL     1      44.467 -20.164   4.210  1.00  0.00     0.080 A 
HETATM   33  C   UNL     1      44.743 -21.534   4.275  1.00  0.00     0.037 A 
HETATM   34  C   UNL     1      44.535 -22.354   3.162  1.00  0.00     0.003 A 
HETATM   35  C   UNL     1      44.066 -21.813   1.966  1.00  0.00     0.001 A 
HETATM   36  C   UNL     1      43.789 -20.450   1.884  1.00  0.00     0.016 A 
BRANCH  32  37
HETATM   37  O   UNL     1      44.614 -19.294   5.259  1.00  0.00    -0.355 OA
HETATM   38  C   UNL     1      44.229 -19.740   6.553  1.00  0.00     0.210 C 
ENDBRANCH  32  37
ENDBRANCH  30  31
ENDBRANCH   1  29
TORSDOF 8
ENDMDL
MODEL 4
REMARK VINA RESULT:      -9.2      1.872      6.305
REMARK  8 active torsions:
REMARK  status: ('A' for Active; 'I' for Inactive)
REMARK    1  A    between atoms: O_2  and  C_3 
REMARK    2  A    between atoms: C_4  and  C_5 
REMARK    3  A    between atoms: N_6  and  N_7 
REMARK    4  A    between atoms: C_18  and  C_19 
REMARK       I    between atoms: C_19  and  N_20 
REMARK    5  A    between atoms: N_20  and  C_21 
REMARK    6  A    between atoms: C_21  and  C_22 
REMARK    7  A    between atoms: C_22  and  C_23 
REMARK    8  A    between atoms: C_30  and  N_31 
ROOT
HETATM    1  N   UNL     1      42.672 -15.927   3.072  1.00  0.00    -0.202 N 
HETATM    2  C   UNL     1      43.125 -17.227   3.175  1.00  0.00     0.183 A 
HETATM    3  C   UNL     1      43.663 -17.357   4.453  1.00  0.00     0.124 A 
HETATM    4  N   UNL     1      44.133 -18.550   4.896  1.00  0.00    -0.242 NA
HETATM    5  C   UNL     1      44.093 -19.543   3.999  1.00  0.00     0.086 A 
HETATM    6  C   UNL     1      43.549 -19.383   2.697  1.00  0.00     0.088 A 
HETATM    7  N   UNL     1      43.017 -18.224   2.264  1.00  0.00    -0.225 NA
HETATM    8  C   UNL     1      44.622 -20.773   4.370  1.00  0.00     0.034 A 
HETATM    9  C   UNL     1      44.646 -21.852   3.487  1.00  0.00     0.002 A 
HETATM   10  C   UNL     1      44.126 -21.699   2.210  1.00  0.00     0.002 A 
HETATM   11  C   UNL     1      43.579 -20.470   1.830  1.00  0.00     0.034 A 
HETATM   12  C   UNL     1      43.572 -16.097   5.109  1.00  0.00     0.104 C 
HETATM   13  C   UNL     1      43.203 -15.191   4.126  1.00  0.00     0.123 C 
ENDROOT
BRANCH  12  14
HETATM   14  C   UNL     1      43.734 -15.832   6.532  1.00  0.00     0.257 C 
HETATM   15  N   UNL     1      44.400 -14.660   6.823  1.00  0.00    -0.356 N 
HETATM   16  H   UNL     1      44.504 -14.043   6.025  1.00  0.00     0.162 HD
HETATM   17  O   UNL     1      43.217 -16.546   7.382  1.00  0.00    -0.267 OA
BRANCH  15  18
HETATM   18  C   UNL     1      44.362 -14.009   8.119  1.00  0.00     0.127 C 
BRANCH  18  19
HETATM   19  C   UNL     1      44.973 -12.605   8.227  1.00  0.00     0.053 C 
BRANCH  19  20
HETATM   20  C   UNL     1      44.361 -11.697   9.271  1.00  0.00    -0.082 C 
HETATM   21  C   UNL     1      45.141 -11.470  10.542  1.00  0.00     0.034 C 
HETATM   22  C   UNL     1      44.320 -10.795  11.647  1.00  0.00     0.005 C 
HETATM   23  C   UNL     1      43.464  -9.661  11.094  1.00  0.00     0.004 C 
HETATM   24  C   UNL     1      42.509 -10.168  10.016  1.00  0.00     0.027 C 
HETATM   25  C   UNL     1      43.173 -11.103   9.054  1.00  0.00    -0.024 C 
ENDBRANCH  19  20
ENDBRANCH  18  19
ENDBRANCH  15  18
ENDBRANCH  12  14
BRANCH  13  26
HETATM   26  N   UNL     1      43.095 -13.821   4.132  1.00  0.00    -0.286 NA
HETATM   27  H   UNL     1      43.248 -13.386   5.044  1.00  0.00     0.125 HD
HETATM   28  H   UNL     1      43.763 -13.375   3.487  1.00  0.00     0.125 HD
ENDBRANCH  13  26
BRANCH   1  29
HETATM   29  N   UNL     1      41.717 -15.368   2.259  1.00  0.00    -0.176 NA
HETATM   30  C   UNL     1      40.573 -15.309   2.875  1.00  0.00     0.153 C 
BRANCH  30  31
HETATM   31  C   UNL     1      39.491 -14.399   2.437  1.00  0.00     0.016 A 
HETATM   32  C   UNL     1      39.488 -13.064   2.880  1.00  0.00     0.080 A 
HETATM   33  C   UNL     1      38.587 -12.165   2.299  1.00  0.00     0.037 A 
HETATM   34  C   UNL     1      37.710 -12.588   1.295  1.00  0.00     0.003 A 
HETATM   35  C   UNL     1      37.710 -13.916   0.873  1.00  0.00     0.001 A 
HETATM   36  C   UNL     1      38.599 -14.825   1.443  1.00  0.00     0.016 A 
BRANCH  32  37
HETATM   37  O   UNL     1      40.401 -12.730   3.846  1.00  0.00    -0.355 OA
HETATM   38  C   UNL     1      39.909 -12.372   5.132  1.00  0.00     0.210 C 
ENDBRANCH  32  37
ENDBRANCH  30  31
ENDBRANCH   1  29
TORSDOF 8
ENDMDL
MODEL 5
REMARK VINA RESULT:      -9.1      2.268      6.160
REMARK  8 active torsions:
REMARK  status: ('A' for Active; 'I' for Inactive)
REMARK    1  A    between atoms: O_2  and  C_3 
REMARK    2  A    between atoms: C_4  and  C_5 
REMARK    3  A    between atoms: N_6  and  N_7 
REMARK    4  A    between atoms: C_18  and  C_19 
REMARK       I    between atoms: C_19  and  N_20 
REMARK    5  A    between atoms: N_20  and  C_21 
REMARK    6  A    between atoms: C_21  and  C_22 
REMARK    7  A    between atoms: C_22  and  C_23 
REMARK    8  A    between atoms: C_30  and  N_31 
ROOT
HETATM    1  N   UNL     1      42.012 -15.522   3.713  1.00  0.00    -0.202 N 
HETATM    2  C   UNL     1      42.624 -16.755   3.607  1.00  0.00     0.183 A 
HETATM    3  C   UNL     1      43.466 -16.874   4.710  1.00  0.00     0.124 A 
HETATM    4  N   UNL     1      44.163 -18.014   4.938  1.00  0.00    -0.242 NA
HETATM    5  C   UNL     1      44.023 -18.960   4.001  1.00  0.00     0.086 A 
HETATM    6  C   UNL     1      43.167 -18.812   2.879  1.00  0.00     0.088 A 
HETATM    7  N   UNL     1      42.416 -17.714   2.672  1.00  0.00    -0.225 NA
HETATM    8  C   UNL     1      44.765 -20.127   4.143  1.00  0.00     0.034 A 
HETATM    9  C   UNL     1      44.700 -21.151   3.199  1.00  0.00     0.002 A 
HETATM   10  C   UNL     1      43.874 -21.007   2.094  1.00  0.00     0.002 A 
HETATM   11  C   UNL     1      43.113 -19.844   1.948  1.00  0.00     0.034 A 
HETATM   12  C   UNL     1      43.390 -15.668   5.464  1.00  0.00     0.104 C 
HETATM   13  C   UNL     1      42.693 -14.773   4.667  1.00  0.00     0.123 C 
ENDROOT
BRANCH  12  14
HETATM   14  C   UNL     1      43.859 -15.452   6.826  1.00  0.00     0.257 C 
HETATM   15  N   UNL     1      44.509 -14.252   7.023  1.00  0.00    -0.356 N 
HETATM   16  H   UNL     1      44.394 -13.597   6.256  1.00  0.00     0.162 HD
HETATM   17  O   UNL     1      43.590 -16.233   7.731  1.00  0.00    -0.267 OA
BRANCH  15  18
HETATM   18  C   UNL     1      44.733 -13.658   8.327  1.00  0.00     0.127 C 
BRANCH  18  19
HETATM   19  C   UNL     1      45.011 -12.150   8.383  1.00  0.00     0.053 C 
BRANCH  19  20
HETATM   20  C   UNL     1      44.269 -11.381   9.455  1.00  0.00    -0.082 C 
HETATM   21  C   UNL     1      44.932 -11.247  10.802  1.00  0.00     0.034 C 
HETATM   22  C   UNL     1      43.990 -10.726  11.894  1.00  0.00     0.005 C 
HETATM   23  C   UNL     1      43.120  -9.583  11.384  1.00  0.00     0.004 C 
HETATM   24  C   UNL     1      42.282 -10.024  10.185  1.00  0.00     0.027 C 
HETATM   25  C   UNL     1      43.071 -10.824   9.197  1.00  0.00    -0.024 C 
ENDBRANCH  19  20
ENDBRANCH  18  19
ENDBRANCH  15  18
ENDBRANCH  12  14
BRANCH  13  26
HETATM   26  N   UNL     1      42.431 -13.431   4.803  1.00  0.00    -0.286 NA
HETATM   27  H   UNL     1      41.909 -13.183   5.646  1.00  0.00     0.125 HD
HETATM   28  H   UNL     1      43.292 -12.867   4.825  1.00  0.00     0.125 HD
ENDBRANCH  13  26
BRANCH   1  29
HETATM   29  N   UNL     1      40.831 -15.055   3.190  1.00  0.00    -0.176 NA
HETATM   30  C   UNL     1      41.056 -14.344   2.125  1.00  0.00     0.153 C 
BRANCH  30  31
HETATM   31  C   UNL     1      39.998 -14.070   1.126  1.00  0.00     0.016 A 
HETATM   32  C   UNL     1      40.337 -13.996  -0.237  1.00  0.00     0.080 A 
HETATM   33  C   UNL     1      39.308 -13.945  -1.184  1.00  0.00     0.037 A 
HETATM   34  C   UNL     1      37.970 -13.972  -0.780  1.00  0.00     0.003 A 
HETATM   35  C   UNL     1      37.644 -14.030   0.574  1.00  0.00     0.001 A 
HETATM   36  C   UNL     1      38.656 -14.079   1.529  1.00  0.00     0.016 A 
BRANCH  32  37
HETATM   37  O   UNL     1      41.672 -14.005  -0.545  1.00  0.00    -0.355 OA
HETATM   38  C   UNL     1      42.097 -13.274  -1.689  1.00  0.00     0.210 C 
ENDBRANCH  32  37
ENDBRANCH  30  31
ENDBRANCH   1  29
TORSDOF 8
ENDMDL
MODEL 6
REMARK VINA RESULT:      -9.0      2.751      3.390
REMARK  8 active torsions:
REMARK  status: ('A' for Active; 'I' for Inactive)
REMARK    1  A    between atoms: O_2  and  C_3 
REMARK    2  A    between atoms: C_4  and  C_5 
REMARK    3  A    between atoms: N_6  and  N_7 
REMARK    4  A    between atoms: C_18  and  C_19 
REMARK       I    between atoms: C_19  and  N_20 
REMARK    5  A    between atoms: N_20  and  C_21 
REMARK    6  A    between atoms: C_21  and  C_22 
REMARK    7  A    between atoms: C_22  and  C_23 
REMARK    8  A    between atoms: C_30  and  N_31 
ROOT
HETATM    1  N   UNL     1      41.787 -17.054   2.171  1.00  0.00    -0.202 N 
HETATM    2  C   UNL     1      41.626 -16.222   1.080  1.00  0.00     0.183 A 
HETATM    3  C   UNL     1      41.875 -14.928   1.532  1.00  0.00     0.124 A 
HETATM    4  N   UNL     1      41.868 -13.876   0.676  1.00  0.00    -0.242 NA
HETATM    5  C   UNL     1      41.548 -14.176  -0.588  1.00  0.00     0.086 A 
HETATM    6  C   UNL     1      41.287 -15.503  -1.023  1.00  0.00     0.088 A 
HETATM    7  N   UNL     1      41.356 -16.568  -0.201  1.00  0.00    -0.225 NA
HETATM    8  C   UNL     1      41.457 -13.131  -1.500  1.00  0.00     0.034 A 
HETATM    9  C   UNL     1      41.102 -13.353  -2.830  1.00  0.00     0.002 A 
HETATM   10  C   UNL     1      40.835 -14.645  -3.258  1.00  0.00     0.002 A 
HETATM   11  C   UNL     1      40.936 -15.705  -2.353  1.00  0.00     0.034 A 
HETATM   12  C   UNL     1      42.143 -14.984   2.929  1.00  0.00     0.104 C 
HETATM   13  C   UNL     1      41.813 -16.272   3.321  1.00  0.00     0.123 C 
ENDROOT
BRANCH  12  14
HETATM   14  C   UNL     1      42.734 -13.938   3.753  1.00  0.00     0.257 C 
HETATM   15  N   UNL     1      42.225 -13.863   5.033  1.00  0.00    -0.356 N 
HETATM   16  H   UNL     1      41.663 -14.666   5.294  1.00  0.00     0.162 HD
HETATM   17  O   UNL     1      43.680 -13.267   3.360  1.00  0.00    -0.267 OA
BRANCH  15  18
HETATM   18  C   UNL     1      42.885 -13.175   6.126  1.00  0.00     0.127 C 
BRANCH  18  19
HETATM   19  C   UNL     1      44.010 -13.921   6.858  1.00  0.00     0.053 C 
BRANCH  19  20
HETATM   20  C   UNL     1      44.869 -13.080   7.779  1.00  0.00    -0.082 C 
HETATM   21  C   UNL     1      46.223 -12.654   7.272  1.00  0.00     0.034 C 
HETATM   22  C   UNL     1      47.128 -12.077   8.367  1.00  0.00     0.005 C 
HETATM   23  C   UNL     1      46.358 -11.140   9.292  1.00  0.00     0.004 C 
HETATM   24  C   UNL     1      45.188 -11.863   9.955  1.00  0.00     0.027 C 
HETATM   25  C   UNL     1      44.421 -12.715   8.994  1.00  0.00    -0.024 C 
ENDBRANCH  19  20
ENDBRANCH  18  19
ENDBRANCH  15  18
ENDBRANCH  12  14
BRANCH  13  26
HETATM   26  N   UNL     1      41.735 -16.865   4.558  1.00  0.00    -0.286 NA
HETATM   27  H   UNL     1      42.072 -17.830   4.589  1.00  0.00     0.125 HD
HETATM   28  H   UNL     1      42.272 -16.353   5.271  1.00  0.00     0.125 HD
ENDBRANCH  13  26
BRANCH   1  29
HETATM   29  N   UNL     1      42.082 -18.393   2.246  1.00  0.00    -0.176 NA
HETATM   30  C   UNL     1      43.369 -18.576   2.240  1.00  0.00     0.153 C 
BRANCH  30  31
HETATM   31  C   UNL     1      43.986 -19.831   2.725  1.00  0.00     0.016 A 
HETATM   32  C   UNL     1      44.345 -19.946   4.081  1.00  0.00     0.080 A 
HETATM   33  C   UNL     1      44.731 -21.198   4.570  1.00  0.00     0.037 A 
HETATM   34  C   UNL     1      44.755 -22.313   3.726  1.00  0.00     0.003 A 
HETATM   35  C   UNL     1      44.413 -22.187   2.382  1.00  0.00     0.001 A 
HETATM   36  C   UNL     1      44.029 -20.946   1.878  1.00  0.00     0.016 A 
BRANCH  32  37
HETATM   37  O   UNL     1      44.264 -18.809   4.842  1.00  0.00    -0.355 OA
HETATM   38  C   UNL     1      45.188 -18.656   5.912  1.00  0.00     0.210 C 
ENDBRANCH  32  37
ENDBRANCH  30  31
ENDBRANCH   1  29
TORSDOF 8
ENDMDL
MODEL 7
REMARK VINA RESULT:      -8.9      2.674      6.350
REMARK  8 active torsions:
REMARK  status: ('A' for Active; 'I' for Inactive)
REMARK    1  A    between atoms: O_2  and  C_3 
REMARK    2  A    between atoms: C_4  and  C_5 
REMARK    3  A    between atoms: N_6  and  N_7 
REMARK    4  A    between atoms: C_18  and  C_19 
REMARK       I    between atoms: C_19  and  N_20 
REMARK    5  A    between atoms: N_20  and  C_21 
REMARK    6  A    between atoms: C_21  and  C_22 
REMARK    7  A    between atoms: C_22  and  C_23 
REMARK    8  A    between atoms: C_30  and  N_31 
ROOT
HETATM    1  N   UNL     1      41.821 -15.661   2.208  1.00  0.00    -0.202 N 
HETATM    2  C   UNL     1      42.476 -16.835   2.524  1.00  0.00     0.183 A 
HETATM    3  C   UNL     1      43.014 -16.656   3.796  1.00  0.00     0.124 A 
HETATM    4  N   UNL     1      43.663 -17.665   4.428  1.00  0.00    -0.242 NA
HETATM    5  C   UNL     1      43.792 -18.791   3.716  1.00  0.00     0.086 A 
HETATM    6  C   UNL     1      43.244 -18.946   2.415  1.00  0.00     0.088 A 
HETATM    7  N   UNL     1      42.538 -17.978   1.799  1.00  0.00    -0.225 NA
HETATM    8  C   UNL     1      44.508 -19.838   4.283  1.00  0.00     0.034 A 
HETATM    9  C   UNL     1      44.713 -21.035   3.598  1.00  0.00     0.002 A 
HETATM   10  C   UNL     1      44.189 -21.189   2.322  1.00  0.00     0.002 A 
HETATM   11  C   UNL     1      43.457 -20.147   1.747  1.00  0.00     0.034 A 
HETATM   12  C   UNL     1      42.716 -15.333   4.227  1.00  0.00     0.104 C 
HETATM   13  C   UNL     1      42.217 -14.680   3.111  1.00  0.00     0.123 C 
ENDROOT
BRANCH  12  14
HETATM   14  C   UNL     1      42.818 -14.805   5.582  1.00  0.00     0.257 C 
HETATM   15  N   UNL     1      43.838 -15.353   6.332  1.00  0.00    -0.356 N 
HETATM   16  H   UNL     1      44.501 -15.891   5.785  1.00  0.00     0.162 HD
HETATM   17  O   UNL     1      42.120 -13.874   5.964  1.00  0.00    -0.267 OA
BRANCH  15  18
HETATM   18  C   UNL     1      44.363 -14.751   7.542  1.00  0.00     0.127 C 
BRANCH  18  19
HETATM   19  C   UNL     1      45.057 -13.388   7.414  1.00  0.00     0.053 C 
BRANCH  19  20
HETATM   20  C   UNL     1      44.801 -12.407   8.538  1.00  0.00    -0.082 C 
HETATM   21  C   UNL     1      43.449 -11.742   8.589  1.00  0.00     0.034 C 
HETATM   22  C   UNL     1      43.388 -10.560   9.563  1.00  0.00     0.005 C 
HETATM   23  C   UNL     1      44.104 -10.877  10.872  1.00  0.00     0.004 C 
HETATM   24  C   UNL     1      45.568 -11.234  10.625  1.00  0.00     0.027 C 
HETATM   25  C   UNL     1      45.745 -12.162   9.465  1.00  0.00    -0.024 C 
ENDBRANCH  19  20
ENDBRANCH  18  19
ENDBRANCH  15  18
ENDBRANCH  12  14
BRANCH  13  26
HETATM   26  N   UNL     1      41.891 -13.364   2.883  1.00  0.00    -0.286 NA
HETATM   27  H   UNL     1      42.512 -12.879   2.232  1.00  0.00     0.125 HD
HETATM   28  H   UNL     1      40.940 -13.259   2.503  1.00  0.00     0.125 HD
ENDBRANCH  13  26
BRANCH   1  29
HETATM   29  N   UNL     1      40.798 -15.410   1.327  1.00  0.00    -0.176 NA
HETATM   30  C   UNL     1      41.264 -14.912   0.220  1.00  0.00     0.153 C 
BRANCH  30  31
HETATM   31  C   UNL     1      40.486 -14.935  -1.040  1.00  0.00     0.016 A 
HETATM   32  C   UNL     1      39.364 -14.097  -1.175  1.00  0.00     0.080 A 
HETATM   33  C   UNL     1      38.765 -13.975  -2.433  1.00  0.00     0.037 A 
HETATM   34  C   UNL     1      39.276 -14.670  -3.534  1.00  0.00     0.003 A 
HETATM   35  C   UNL     1      40.379 -15.509  -3.387  1.00  0.00     0.001 A 
HETATM   36  C   UNL     1      40.986 -15.644  -2.140  1.00  0.00     0.016 A 
BRANCH  32  37
HETATM   37  O   UNL     1      38.949 -13.432  -0.052  1.00  0.00    -0.355 OA
HETATM   38  C   UNL     1      37.685 -13.782   0.501  1.00  0.00     0.210 C 
ENDBRANCH  32  37
ENDBRANCH  30  31
ENDBRANCH   1  29
TORSDOF 8
ENDMDL
MODEL 8
REMARK VINA RESULT:      -8.9      2.692      7.116
REMARK  8 active torsions:
REMARK  status: ('A' for Active; 'I' for Inactive)
REMARK    1  A    between atoms: O_2  and  C_3 
REMARK    2  A    between atoms: C_4  and  C_5 
REMARK    3  A    between atoms: N_6  and  N_7 
REMARK    4  A    between atoms: C_18  and  C_19 
REMARK       I    between atoms: C_19  and  N_20 
REMARK    5  A    between atoms: N_20  and  C_21 
REMARK    6  A    between atoms: C_21  and  C_22 
REMARK    7  A    between atoms: C_22  and  C_23 
REMARK    8  A    between atoms: C_30  and  N_31 
ROOT
HETATM    1  N   UNL     1      42.140 -17.063   2.794  1.00  0.00    -0.202 N 
HETATM    2  C   UNL     1      42.473 -16.132   3.758  1.00  0.00     0.183 A 
HETATM    3  C   UNL     1      41.618 -15.049   3.573  1.00  0.00     0.124 A 
HETATM    4  N   UNL     1      41.643 -13.987   4.416  1.00  0.00    -0.242 NA
HETATM    5  C   UNL     1      42.577 -14.045   5.372  1.00  0.00     0.086 A 
HETATM    6  C   UNL     1      43.446 -15.156   5.535  1.00  0.00     0.088 A 
HETATM    7  N   UNL     1      43.390 -16.249   4.749  1.00  0.00    -0.225 NA
HETATM    8  C   UNL     1      42.698 -12.956   6.227  1.00  0.00     0.034 A 
HETATM    9  C   UNL     1      43.663 -12.922   7.233  1.00  0.00     0.002 A 
HETATM   10  C   UNL     1      44.522 -14.000   7.389  1.00  0.00     0.002 A 
HETATM   11  C   UNL     1      44.401 -15.106   6.544  1.00  0.00     0.034 A 
HETATM   12  C   UNL     1      40.791 -15.318   2.446  1.00  0.00     0.104 C 
HETATM   13  C   UNL     1      41.333 -16.443   1.845  1.00  0.00     0.123 C 
ENDROOT
BRANCH  12  14
HETATM   14  C   UNL     1      39.572 -14.617   2.062  1.00  0.00     0.257 C 
HETATM   15  N   UNL     1      39.718 -13.252   1.925  1.00  0.00    -0.356 N 
HETATM   16  H   UNL     1      40.685 -12.946   1.906  1.00  0.00     0.162 HD
HETATM   17  O   UNL     1      38.545 -15.221   1.781  1.00  0.00    -0.267 OA
BRANCH  15  18
HETATM   18  C   UNL     1      38.777 -12.407   1.214  1.00  0.00     0.127 C 
BRANCH  18  19
HETATM   19  C   UNL     1      39.241 -11.786  -0.111  1.00  0.00     0.053 C 
BRANCH  19  20
HETATM   20  C   UNL     1      40.090 -12.674  -0.995  1.00  0.00    -0.082 C 
HETATM   21  C   UNL     1      39.439 -13.902  -1.580  1.00  0.00     0.034 C 
HETATM   22  C   UNL     1      40.441 -14.884  -2.200  1.00  0.00     0.005 C 
HETATM   23  C   UNL     1      41.507 -14.157  -3.011  1.00  0.00     0.004 C 
HETATM   24  C   UNL     1      42.273 -13.160  -2.144  1.00  0.00     0.027 C 
HETATM   25  C   UNL     1      41.371 -12.358  -1.259  1.00  0.00    -0.024 C 
ENDBRANCH  19  20
ENDBRANCH  18  19
ENDBRANCH  15  18
ENDBRANCH  12  14
BRANCH  13  26
HETATM   26  N   UNL     1      41.049 -17.082   0.661  1.00  0.00    -0.286 NA
HETATM   27  H   UNL     1      40.618 -16.487  -0.050  1.00  0.00     0.125 HD
HETATM   28  H   UNL     1      41.890 -17.484   0.225  1.00  0.00     0.125 HD
ENDBRANCH  13  26
BRANCH   1  29
HETATM   29  N   UNL     1      42.328 -18.422   2.751  1.00  0.00    -0.176 NA
HETATM   30  C   UNL     1      43.592 -18.703   2.627  1.00  0.00     0.153 C 
BRANCH  30  31
HETATM   31  C   UNL     1      44.138 -20.035   2.971  1.00  0.00     0.016 A 
HETATM   32  C   UNL     1      44.574 -20.284   4.285  1.00  0.00     0.080 A 
HETATM   33  C   UNL     1      44.891 -21.597   4.650  1.00  0.00     0.037 A 
HETATM   34  C   UNL     1      44.772 -22.640   3.725  1.00  0.00     0.003 A 
HETATM   35  C   UNL     1      44.354 -22.381   2.422  1.00  0.00     0.001 A 
HETATM   36  C   UNL     1      44.036 -21.079   2.041  1.00  0.00     0.016 A 
BRANCH  32  37
HETATM   37  O   UNL     1      44.633 -19.210   5.133  1.00  0.00    -0.355 OA
HETATM   38  C   UNL     1      44.091 -19.360   6.439  1.00  0.00     0.210 C 
ENDBRANCH  32  37
ENDBRANCH  30  31
ENDBRANCH   1  29
TORSDOF 8
ENDMDL
MODEL 9
REMARK VINA RESULT:      -8.7      2.498      3.123
REMARK  8 active torsions:
REMARK  status: ('A' for Active; 'I' for Inactive)
REMARK    1  A    between atoms: O_2  and  C_3 
REMARK    2  A    between atoms: C_4  and  C_5 
REMARK    3  A    between atoms: N_6  and  N_7 
REMARK    4  A    between atoms: C_18  and  C_19 
REMARK       I    between atoms: C_19  and  N_20 
REMARK    5  A    between atoms: N_20  and  C_21 
REMARK    6  A    between atoms: C_21  and  C_22 
REMARK    7  A    between atoms: C_22  and  C_23 
REMARK    8  A    between atoms: C_30  and  N_31 
ROOT
HETATM    1  N   UNL     1      41.341 -16.753   2.099  1.00  0.00    -0.202 N 
HETATM    2  C   UNL     1      41.321 -15.912   1.004  1.00  0.00     0.183 A 
HETATM    3  C   UNL     1      41.430 -14.615   1.500  1.00  0.00     0.124 A 
HETATM    4  N   UNL     1      41.513 -13.552   0.663  1.00  0.00    -0.242 NA
HETATM    5  C   UNL     1      41.418 -13.847  -0.640  1.00  0.00     0.086 A 
HETATM    6  C   UNL     1      41.296 -15.177  -1.121  1.00  0.00     0.088 A 
HETATM    7  N   UNL     1      41.281 -16.250  -0.308  1.00  0.00    -0.225 NA
HETATM    8  C   UNL     1      41.428 -12.793  -1.545  1.00  0.00     0.034 A 
HETATM    9  C   UNL     1      41.306 -13.009  -2.917  1.00  0.00     0.002 A 
HETATM   10  C   UNL     1      41.176 -14.306  -3.393  1.00  0.00     0.002 A 
HETATM   11  C   UNL     1      41.178 -15.375  -2.493  1.00  0.00     0.034 A 
HETATM   12  C   UNL     1      41.468 -14.680   2.921  1.00  0.00     0.104 C 
HETATM   13  C   UNL     1      41.141 -15.988   3.244  1.00  0.00     0.123 C 
ENDROOT
BRANCH  12  14
HETATM   14  C   UNL     1      41.865 -13.621   3.840  1.00  0.00     0.257 C 
HETATM   15  N   UNL     1      41.207 -12.424   3.649  1.00  0.00    -0.356 N 
HETATM   16  H   UNL     1      40.399 -12.496   3.041  1.00  0.00     0.162 HD
HETATM   17  O   UNL     1      42.637 -13.830   4.767  1.00  0.00    -0.267 OA
BRANCH  15  18
HETATM   18  C   UNL     1      41.157 -11.363   4.638  1.00  0.00     0.127 C 
BRANCH  18  19
HETATM   19  C   UNL     1      40.011 -11.398   5.659  1.00  0.00     0.053 C 
BRANCH  19  20
HETATM   20  C   UNL     1      40.393 -11.090   7.091  1.00  0.00    -0.082 C 
HETATM   21  C   UNL     1      41.783 -10.562   7.343  1.00  0.00     0.034 C 
HETATM   22  C   UNL     1      42.176 -10.569   8.825  1.00  0.00     0.005 C 
HETATM   23  C   UNL     1      41.031 -10.085   9.709  1.00  0.00     0.004 C 
HETATM   24  C   UNL     1      39.791 -10.957   9.528  1.00  0.00     0.027 C 
HETATM   25  C   UNL     1      39.510 -11.264   8.091  1.00  0.00    -0.024 C 
ENDBRANCH  19  20
ENDBRANCH  18  19
ENDBRANCH  15  18
ENDBRANCH  12  14
BRANCH  13  26
HETATM   26  N   UNL     1      40.890 -16.604   4.447  1.00  0.00    -0.286 NA
HETATM   27  H   UNL     1      40.430 -16.010   5.140  1.00  0.00     0.125 HD
HETATM   28  H   UNL     1      40.291 -17.435   4.341  1.00  0.00     0.125 HD
ENDBRANCH  13  26
BRANCH   1  29
HETATM   29  N   UNL     1      41.683 -18.078   2.211  1.00  0.00    -0.176 NA
HETATM   30  C   UNL     1      42.962 -18.233   2.030  1.00  0.00     0.153 C 
BRANCH  30  31
HETATM   31  C   UNL     1      43.679 -19.442   2.495  1.00  0.00     0.016 A 
HETATM   32  C   UNL     1      44.263 -19.449   3.775  1.00  0.00     0.080 A 
HETATM   33  C   UNL     1      44.754 -20.656   4.283  1.00  0.00     0.037 A 
HETATM   34  C   UNL     1      44.661 -21.833   3.532  1.00  0.00     0.003 A 
HETATM   35  C   UNL     1      44.095 -21.813   2.260  1.00  0.00     0.001 A 
HETATM   36  C   UNL     1      43.603 -20.618   1.738  1.00  0.00     0.016 A 
BRANCH  32  37
HETATM   37  O   UNL     1      44.286 -18.258   4.452  1.00  0.00    -0.355 OA
HETATM   38  C   UNL     1      44.703 -18.272   5.812  1.00  0.00     0.210 C 
ENDBRANCH  32  37
ENDBRANCH  30  31
ENDBRANCH   1  29
TORSDOF 8
ENDMDL
MODEL 10
REMARK VINA RESULT:      -8.6      2.448      8.623
REMARK  8 active torsions:
REMARK  status: ('A' for Active; 'I' for Inactive)
REMARK    1  A    between atoms: O_2  and  C_3 
REMARK    2  A    between atoms: C_4  and  C_5 
REMARK    3  A    between atoms: N_6  and  N_7 
REMARK    4  A    between atoms: C_18  and  C_19 
REMARK       I    between atoms: C_19  and  N_20 
REMARK    5  A    between atoms: N_20  and  C_21 
REMARK    6  A    between atoms: C_21  and  C_22 
REMARK    7  A    between atoms: C_22  and  C_23 
REMARK    8  A    between atoms: C_30  and  N_31 
ROOT
HETATM    1  N   UNL     1      42.783 -13.225   5.119  1.00  0.00    -0.202 N 
HETATM    2  C   UNL     1      42.501 -13.918   3.959  1.00  0.00     0.183 A 
HETATM    3  C   UNL     1      42.666 -15.268   4.256  1.00  0.00     0.124 A 
HETATM    4  N   UNL     1      42.392 -16.225   3.335  1.00  0.00    -0.242 NA
HETATM    5  C   UNL     1      42.022 -15.766   2.134  1.00  0.00     0.086 A 
HETATM    6  C   UNL     1      41.871 -14.382   1.851  1.00  0.00     0.088 A 
HETATM    7  N   UNL     1      42.074 -13.422   2.773  1.00  0.00    -0.225 NA
HETATM    8  C   UNL     1      41.792 -16.696   1.127  1.00  0.00     0.034 A 
HETATM    9  C   UNL     1      41.431 -16.301  -0.161  1.00  0.00     0.002 A 
HETATM   10  C   UNL     1      41.293 -14.951  -0.446  1.00  0.00     0.002 A 
HETATM   11  C   UNL     1      41.509 -14.007   0.562  1.00  0.00     0.034 A 
HETATM   12  C   UNL     1      43.101 -15.381   5.607  1.00  0.00     0.104 C 
HETATM   13  C   UNL     1      43.414 -14.091   6.007  1.00  0.00     0.123 C 
ENDROOT
BRANCH  12  14
HETATM   14  C   UNL     1      43.118 -16.584   6.428  1.00  0.00     0.257 C 
HETATM   15  N   UNL     1      43.113 -17.763   5.713  1.00  0.00    -0.356 N 
HETATM   16  H   UNL     1      43.305 -17.640   4.725  1.00  0.00     0.162 HD
HETATM   17  O   UNL     1      43.239 -16.530   7.646  1.00  0.00    -0.267 OA
BRANCH  15  18
HETATM   18  C   UNL     1      43.490 -19.048   6.272  1.00  0.00     0.127 C 
BRANCH  18  19
HETATM   19  C   UNL     1      44.661 -19.792   5.615  1.00  0.00     0.053 C 
BRANCH  19  20
HETATM   20  C   UNL     1      44.405 -20.331   4.224  1.00  0.00    -0.082 C 
HETATM   21  C   UNL     1      44.625 -21.805   3.997  1.00  0.00     0.034 C 
HETATM   22  C   UNL     1      44.636 -22.196   2.514  1.00  0.00     0.005 C 
HETATM   23  C   UNL     1      43.531 -21.487   1.740  1.00  0.00     0.004 C 
HETATM   24  C   UNL     1      43.671 -19.970   1.847  1.00  0.00     0.027 C 
HETATM   25  C   UNL     1      43.977 -19.518   3.240  1.00  0.00    -0.024 C 
ENDBRANCH  19  20
ENDBRANCH  18  19
ENDBRANCH  15  18
ENDBRANCH  12  14
BRANCH  13  26
HETATM   26  N   UNL     1      44.004 -13.598   7.146  1.00  0.00    -0.286 NA
HETATM   27  H   UNL     1      44.935 -13.973   7.339  1.00  0.00     0.125 HD
HETATM   28  H   UNL     1      44.108 -12.574   7.119  1.00  0.00     0.125 HD
ENDBRANCH  13  26
BRANCH   1  29
HETATM   29  N   UNL     1      42.395 -11.976   5.539  1.00  0.00    -0.176 NA
HETATM   30  C   UNL     1      41.289 -12.048   6.219  1.00  0.00     0.153 C 
BRANCH  30  31
HETATM   31  C   UNL     1      40.860 -10.970   7.138  1.00  0.00     0.016 A 
HETATM   32  C   UNL     1      39.585 -10.396   6.983  1.00  0.00     0.080 A 
HETATM   33  C   UNL     1      39.112  -9.531   7.976  1.00  0.00     0.037 A 
HETATM   34  C   UNL     1      39.893  -9.247   9.101  1.00  0.00     0.003 A 
HETATM   35  C   UNL     1      41.161  -9.808   9.238  1.00  0.00     0.001 A 
HETATM   36  C   UNL     1      41.648 -10.669   8.257  1.00  0.00     0.016 A 
BRANCH  32  37
HETATM   37  O   UNL     1      38.877 -10.752   5.866  1.00  0.00    -0.355 OA
HETATM   38  C   UNL     1      38.739  -9.789   4.828  1.00  0.00     0.210 C 
ENDBRANCH  32  37
ENDBRANCH  30  31
ENDBRANCH   1  29
TORSDOF 8
ENDMDL
