MODEL 1
REMARK VINA RESULT:      -9.0      0.000      0.000
REMARK  8 active torsions:
REMARK  status: ('A' for Active; 'I' for Inactive)
REMARK    1  A    between atoms: C_10  and  C_11 
REMARK    2  A    between atoms: C_11  and  C_12 
REMARK       I    between atoms: C_12  and  N_13 
REMARK    3  A    between atoms: N_13  and  N_14 
REMARK       I    between atoms: N_14  and  C_15 
REMARK    4  A    between atoms: C_15  and  C_16 
REMARK    5  A    between atoms: C_16  and  C_17 
REMARK    6  A    between atoms: C_17  and  C_18 
REMARK       I    between atoms: C_18  and  N_19 
REMARK    7  A    between atoms: N_19  and  C_20 
REMARK    8  A    between atoms: C_20  and  C_21 
ROOT
HETATM    1  C   UNL     1      41.788 -14.619   4.787  1.00  0.00     0.240 C 
HETATM    2  N   UNL     1      42.109 -14.774   6.124  1.00  0.00    -0.267 N 
HETATM    3  O   UNL     1      42.122 -13.619   4.151  1.00  0.00    -0.272 OA
HETATM    4  H   UNL     1      41.996 -15.659   6.619  1.00  0.00     0.190 HD
ENDROOT
BRANCH   2   5
HETATM    5  N   UNL     1      43.023 -13.864   6.677  1.00  0.00    -0.268 N 
HETATM    6  C   UNL     1      44.295 -14.319   6.959  1.00  0.00     0.236 C 
HETATM    7  O   UNL     1      44.608 -15.507   6.906  1.00  0.00    -0.272 OA
HETATM    8  H   UNL     1      42.831 -12.880   6.481  1.00  0.00     0.190 HD
BRANCH   6   9
HETATM    9  C   UNL     1      45.268 -13.208   7.294  1.00  0.00     0.114 C 
BRANCH   9  10
HETATM   10  C   UNL     1      45.342 -12.947   8.791  1.00  0.00     0.112 C 
BRANCH  10  11
HETATM   11  C   UNL     1      44.790 -11.583   9.145  1.00  0.00     0.218 C 
HETATM   12  N   UNL     1      43.444 -11.569   9.405  1.00  0.00    -0.355 N 
HETATM   13  H   UNL     1      43.000 -12.456   9.650  1.00  0.00     0.162 HD
HETATM   14  O   UNL     1      45.505 -10.587   9.199  1.00  0.00    -0.274 OA
BRANCH  12  15
HETATM   15  C   UNL     1      42.788 -10.360   9.840  1.00  0.00     0.187 C 
BRANCH  15  16
HETATM   16  C   UNL     1      42.686 -10.382  11.318  1.00  0.00     0.070 A 
HETATM   17  O   UNL     1      41.589 -10.994  11.852  1.00  0.00    -0.325 OA
HETATM   18  C   UNL     1      41.696 -10.892  13.201  1.00  0.00     0.142 A 
HETATM   19  C   UNL     1      42.846 -10.221  13.545  1.00  0.00     0.027 A 
HETATM   20  C   UNL     1      43.488  -9.889  12.328  1.00  0.00     0.036 A 
ENDBRANCH  15  16
ENDBRANCH  12  15
ENDBRANCH  10  11
ENDBRANCH   9  10
ENDBRANCH   6   9
ENDBRANCH   2   5
BRANCH   1  21
HETATM   21  C   UNL     1      41.040 -15.785   4.185  1.00  0.00     0.146 C 
BRANCH  21  22
HETATM   22  C   UNL     1      41.866 -16.911   3.636  1.00  0.00    -0.015 A 
HETATM   23  C   UNL     1      42.623 -17.937   4.310  1.00  0.00     0.000 A 
HETATM   24  C   UNL     1      42.853 -18.280   5.660  1.00  0.00     0.021 A 
HETATM   25  C   UNL     1      43.231 -18.727   3.328  1.00  0.00     0.049 A 
HETATM   26  C   UNL     1      43.677 -19.368   5.992  1.00  0.00    -0.061 A 
HETATM   27  C   UNL     1      43.890 -19.753   7.427  1.00  0.00     0.048 C 
HETATM   28  C   UNL     1      44.255 -20.129   4.974  1.00  0.00     0.015 A 
HETATM   29  C   UNL     1      44.057 -19.830   3.615  1.00  0.00    -0.034 A 
HETATM   30  C   UNL     1      44.704 -20.700   2.576  1.00  0.00     0.050 C 
HETATM   31  N   UNL     1      42.850 -18.213   2.112  1.00  0.00    -0.358 N 
HETATM   32  H   UNL     1      43.136 -18.595   1.222  1.00  0.00     0.166 HD
HETATM   33  C   UNL     1      42.040 -17.123   2.272  1.00  0.00     0.013 A 
HETATM   34  C   UNL     1      41.497 -16.386   1.100  1.00  0.00     0.068 C 
ENDBRANCH  21  22
ENDBRANCH   1  21
TORSDOF 8
ENDMDL
MODEL 2
REMARK VINA RESULT:      -8.9      1.555      2.820
REMARK  8 active torsions:
REMARK  status: ('A' for Active; 'I' for Inactive)
REMARK    1  A    between atoms: C_10  and  C_11 
REMARK    2  A    between atoms: C_11  and  C_12 
REMARK       I    between atoms: C_12  and  N_13 
REMARK    3  A    between atoms: N_13  and  N_14 
REMARK       I    between atoms: N_14  and  C_15 
REMARK    4  A    between atoms: C_15  and  C_16 
REMARK    5  A    between atoms: C_16  and  C_17 
REMARK    6  A    between atoms: C_17  and  C_18 
REMARK       I    between atoms: C_18  and  N_19 
REMARK    7  A    between atoms: N_19  and  C_20 
REMARK    8  A    between atoms: C_20  and  C_21 
ROOT
HETATM    1  C   UNL     1      43.328 -16.635   7.512  1.00  0.00     0.240 C 
HETATM    2  N   UNL     1      44.052 -15.920   6.574  1.00  0.00    -0.267 N 
HETATM    3  O   UNL     1      43.618 -16.615   8.709  1.00  0.00    -0.272 OA
HETATM    4  H   UNL     1      43.730 -15.784   5.616  1.00  0.00     0.190 HD
ENDROOT
BRANCH   2   5
HETATM    5  N   UNL     1      44.988 -14.991   7.054  1.00  0.00    -0.268 N 
HETATM    6  C   UNL     1      44.594 -13.672   7.153  1.00  0.00     0.236 C 
HETATM    7  O   UNL     1      43.535 -13.253   6.689  1.00  0.00    -0.272 OA
HETATM    8  H   UNL     1      45.728 -15.380   7.641  1.00  0.00     0.190 HD
BRANCH   6   9
HETATM    9  C   UNL     1      45.572 -12.811   7.924  1.00  0.00     0.114 C 
BRANCH   9  10
HETATM   10  C   UNL     1      45.203 -12.705   9.397  1.00  0.00     0.112 C 
BRANCH  10  11
HETATM   11  C   UNL     1      44.481 -11.409   9.697  1.00  0.00     0.218 C 
HETATM   12  N   UNL     1      43.177 -11.567  10.091  1.00  0.00    -0.355 N 
HETATM   13  H   UNL     1      42.898 -12.482  10.449  1.00  0.00     0.162 HD
HETATM   14  O   UNL     1      45.036 -10.319   9.599  1.00  0.00    -0.274 OA
BRANCH  12  15
HETATM   15  C   UNL     1      42.384 -10.431  10.495  1.00  0.00     0.187 C 
BRANCH  15  16
HETATM   16  C   UNL     1      42.489 -10.279  11.964  1.00  0.00     0.070 A 
HETATM   17  O   UNL     1      43.419  -9.395  12.428  1.00  0.00    -0.325 OA
HETATM   18  C   UNL     1      43.349  -9.419  13.784  1.00  0.00     0.142 A 
HETATM   19  C   UNL     1      42.387 -10.309  14.201  1.00  0.00     0.027 A 
HETATM   20  C   UNL     1      41.829 -10.867  13.025  1.00  0.00     0.036 A 
ENDBRANCH  15  16
ENDBRANCH  12  15
ENDBRANCH  10  11
ENDBRANCH   9  10
ENDBRANCH   6   9
ENDBRANCH   2   5
BRANCH   1  21
HETATM   21  C   UNL     1      42.150 -17.392   6.947  1.00  0.00     0.146 C 
BRANCH  21  22
HETATM   22  C   UNL     1      41.847 -17.190   5.491  1.00  0.00    -0.015 A 
HETATM   23  C   UNL     1      42.339 -17.880   4.325  1.00  0.00     0.000 A 
HETATM   24  C   UNL     1      43.222 -18.960   4.104  1.00  0.00     0.021 A 
HETATM   25  C   UNL     1      41.757 -17.281   3.203  1.00  0.00     0.049 A 
HETATM   26  C   UNL     1      43.507 -19.397   2.800  1.00  0.00    -0.061 A 
HETATM   27  C   UNL     1      44.417 -20.568   2.572  1.00  0.00     0.048 C 
HETATM   28  C   UNL     1      42.895 -18.769   1.715  1.00  0.00     0.015 A 
HETATM   29  C   UNL     1      42.008 -17.691   1.879  1.00  0.00    -0.034 A 
HETATM   30  C   UNL     1      41.380 -17.072   0.664  1.00  0.00     0.050 C 
HETATM   31  N   UNL     1      40.936 -16.280   3.667  1.00  0.00    -0.358 N 
HETATM   32  H   UNL     1      40.379 -15.685   3.072  1.00  0.00     0.166 HD
HETATM   33  C   UNL     1      40.981 -16.204   5.031  1.00  0.00     0.013 A 
HETATM   34  C   UNL     1      40.180 -15.194   5.774  1.00  0.00     0.068 C 
ENDBRANCH  21  22
ENDBRANCH   1  21
TORSDOF 8
ENDMDL
MODEL 3
REMARK VINA RESULT:      -8.8      1.911      3.522
REMARK  8 active torsions:
REMARK  status: ('A' for Active; 'I' for Inactive)
REMARK    1  A    between atoms: C_10  and  C_11 
REMARK    2  A    between atoms: C_11  and  C_12 
REMARK       I    between atoms: C_12  and  N_13 
REMARK    3  A    between atoms: N_13  and  N_14 
REMARK       I    between atoms: N_14  and  C_15 
REMARK    4  A    between atoms: C_15  and  C_16 
REMARK    5  A    between atoms: C_16  and  C_17 
REMARK    6  A    between atoms: C_17  and  C_18 
REMARK       I    between atoms: C_18  and  N_19 
REMARK    7  A    between atoms: N_19  and  C_20 
REMARK    8  A    between atoms: C_20  and  C_21 
ROOT
HETATM    1  C   UNL     1      42.037 -15.273   6.282  1.00  0.00     0.240 C 
HETATM    2  N   UNL     1      40.918 -14.460   6.340  1.00  0.00    -0.267 N 
HETATM    3  O   UNL     1      43.159 -14.817   6.058  1.00  0.00    -0.272 OA
HETATM    4  H   UNL     1      40.018 -14.787   6.692  1.00  0.00     0.190 HD
ENDROOT
BRANCH   2   5
HETATM    5  N   UNL     1      41.129 -13.073   6.363  1.00  0.00    -0.268 N 
HETATM    6  C   UNL     1      40.027 -12.256   6.515  1.00  0.00     0.236 C 
HETATM    7  O   UNL     1      38.872 -12.673   6.462  1.00  0.00    -0.272 OA
HETATM    8  H   UNL     1      42.065 -12.779   6.650  1.00  0.00     0.190 HD
BRANCH   6   9
HETATM    9  C   UNL     1      40.387 -10.812   6.795  1.00  0.00     0.114 C 
BRANCH   9  10
HETATM   10  C   UNL     1      40.325 -10.485   8.280  1.00  0.00     0.112 C 
BRANCH  10  11
HETATM   11  C   UNL     1      41.694 -10.556   8.921  1.00  0.00     0.218 C 
HETATM   12  N   UNL     1      41.714 -11.179  10.143  1.00  0.00    -0.355 N 
HETATM   13  H   UNL     1      40.934 -11.798  10.372  1.00  0.00     0.162 HD
HETATM   14  O   UNL     1      42.692 -10.097   8.374  1.00  0.00    -0.274 OA
BRANCH  12  15
HETATM   15  C   UNL     1      42.958 -11.400  10.839  1.00  0.00     0.187 C 
BRANCH  15  16
HETATM   16  C   UNL     1      42.898 -10.709  12.148  1.00  0.00     0.070 A 
HETATM   17  O   UNL     1      41.934 -11.125  13.021  1.00  0.00    -0.325 OA
HETATM   18  C   UNL     1      42.054 -10.362  14.137  1.00  0.00     0.142 A 
HETATM   19  C   UNL     1      43.081  -9.458  13.996  1.00  0.00     0.027 A 
HETATM   20  C   UNL     1      43.628  -9.681  12.709  1.00  0.00     0.036 A 
ENDBRANCH  15  16
ENDBRANCH  12  15
ENDBRANCH  10  11
ENDBRANCH   9  10
ENDBRANCH   6   9
ENDBRANCH   2   5
BRANCH   1  21
HETATM   21  C   UNL     1      41.764 -16.733   6.552  1.00  0.00     0.146 C 
BRANCH  21  22
HETATM   22  C   UNL     1      42.538 -17.731   5.740  1.00  0.00    -0.015 A 
HETATM   23  C   UNL     1      42.554 -17.976   4.320  1.00  0.00     0.000 A 
HETATM   24  C   UNL     1      41.911 -17.399   3.202  1.00  0.00     0.021 A 
HETATM   25  C   UNL     1      43.433 -19.038   4.084  1.00  0.00     0.049 A 
HETATM   26  C   UNL     1      42.144 -17.894   1.909  1.00  0.00    -0.061 A 
HETATM   27  C   UNL     1      41.488 -17.255   0.719  1.00  0.00     0.048 C 
HETATM   28  C   UNL     1      43.036 -18.952   1.726  1.00  0.00     0.015 A 
HETATM   29  C   UNL     1      43.702 -19.560   2.804  1.00  0.00    -0.034 A 
HETATM   30  C   UNL     1      44.655 -20.688   2.530  1.00  0.00     0.050 C 
HETATM   31  N   UNL     1      43.940 -19.413   5.306  1.00  0.00    -0.358 N 
HETATM   32  H   UNL     1      44.611 -20.156   5.435  1.00  0.00     0.166 HD
HETATM   33  C   UNL     1      43.412 -18.650   6.310  1.00  0.00     0.013 A 
HETATM   34  C   UNL     1      43.802 -18.866   7.729  1.00  0.00     0.068 C 
ENDBRANCH  21  22
ENDBRANCH   1  21
TORSDOF 8
ENDMDL
MODEL 4
REMARK VINA RESULT:      -8.8      3.501      5.968
REMARK  8 active torsions:
REMARK  status: ('A' for Active; 'I' for Inactive)
REMARK    1  A    between atoms: C_10  and  C_11 
REMARK    2  A    between atoms: C_11  and  C_12 
REMARK       I    between atoms: C_12  and  N_13 
REMARK    3  A    between atoms: N_13  and  N_14 
REMARK       I    between atoms: N_14  and  C_15 
REMARK    4  A    between atoms: C_15  and  C_16 
REMARK    5  A    between atoms: C_16  and  C_17 
REMARK    6  A    between atoms: C_17  and  C_18 
REMARK       I    between atoms: C_18  and  N_19 
REMARK    7  A    between atoms: N_19  and  C_20 
REMARK    8  A    between atoms: C_20  and  C_21 
ROOT
HETATM    1  C   UNL     1      42.274 -17.427   1.129  1.00  0.00     0.240 C 
HETATM    2  N   UNL     1      40.994 -17.199   0.655  1.00  0.00    -0.267 N 
HETATM    3  O   UNL     1      43.155 -16.569   1.056  1.00  0.00    -0.272 OA
HETATM    4  H   UNL     1      40.213 -17.822   0.860  1.00  0.00     0.190 HD
ENDROOT
BRANCH   2   5
HETATM    5  N   UNL     1      40.664 -15.883   0.296  1.00  0.00    -0.268 N 
HETATM    6  C   UNL     1      39.892 -15.150   1.174  1.00  0.00     0.236 C 
HETATM    7  O   UNL     1      39.347 -15.644   2.160  1.00  0.00    -0.272 OA
HETATM    8  H   UNL     1      41.304 -15.438  -0.364  1.00  0.00     0.190 HD
BRANCH   6   9
HETATM    9  C   UNL     1      39.820 -13.679   0.824  1.00  0.00     0.114 C 
BRANCH   9  10
HETATM   10  C   UNL     1      40.329 -12.797   1.955  1.00  0.00     0.112 C 
BRANCH  10  11
HETATM   11  C   UNL     1      41.819 -12.962   2.161  1.00  0.00     0.218 C 
HETATM   12  N   UNL     1      42.158 -13.715   3.256  1.00  0.00    -0.355 N 
HETATM   13  H   UNL     1      41.447 -14.341   3.639  1.00  0.00     0.162 HD
HETATM   14  O   UNL     1      42.639 -12.466   1.395  1.00  0.00    -0.274 OA
BRANCH  12  15
HETATM   15  C   UNL     1      43.538 -14.034   3.535  1.00  0.00     0.187 C 
BRANCH  15  16
HETATM   16  C   UNL     1      43.771 -13.891   4.990  1.00  0.00     0.070 A 
HETATM   17  O   UNL     1      42.890 -13.112   5.683  1.00  0.00    -0.325 OA
HETATM   18  C   UNL     1      43.292 -13.115   6.979  1.00  0.00     0.142 A 
HETATM   19  C   UNL     1      44.422 -13.883   7.133  1.00  0.00     0.027 A 
HETATM   20  C   UNL     1      44.734 -14.386   5.846  1.00  0.00     0.036 A 
ENDBRANCH  15  16
ENDBRANCH  12  15
ENDBRANCH  10  11
ENDBRANCH   9  10
ENDBRANCH   6   9
ENDBRANCH   2   5
BRANCH   1  21
HETATM   21  C   UNL     1      42.474 -18.782   1.765  1.00  0.00     0.146 C 
BRANCH  21  22
HETATM   22  C   UNL     1      42.971 -18.801   3.181  1.00  0.00    -0.015 A 
HETATM   23  C   UNL     1      42.555 -18.041   4.333  1.00  0.00     0.000 A 
HETATM   24  C   UNL     1      41.567 -17.061   4.577  1.00  0.00     0.021 A 
HETATM   25  C   UNL     1      43.363 -18.427   5.408  1.00  0.00     0.049 A 
HETATM   26  C   UNL     1      41.422 -16.493   5.853  1.00  0.00    -0.061 A 
HETATM   27  C   UNL     1      40.347 -15.479   6.118  1.00  0.00     0.048 C 
HETATM   28  C   UNL     1      42.250 -16.918   6.894  1.00  0.00     0.015 A 
HETATM   29  C   UNL     1      43.248 -17.889   6.705  1.00  0.00    -0.034 A 
HETATM   30  C   UNL     1      44.094 -18.303   7.874  1.00  0.00     0.050 C 
HETATM   31  N   UNL     1      44.224 -19.388   4.934  1.00  0.00    -0.358 N 
HETATM   32  H   UNL     1      44.918 -19.854   5.500  1.00  0.00     0.166 HD
HETATM   33  C   UNL     1      44.011 -19.622   3.603  1.00  0.00     0.013 A 
HETATM   34  C   UNL     1      44.822 -20.620   2.856  1.00  0.00     0.068 C 
ENDBRANCH  21  22
ENDBRANCH   1  21
TORSDOF 8
ENDMDL
MODEL 5
REMARK VINA RESULT:      -8.8      1.985      4.147
REMARK  8 active torsions:
REMARK  status: ('A' for Active; 'I' for Inactive)
REMARK    1  A    between atoms: C_10  and  C_11 
REMARK    2  A    between atoms: C_11  and  C_12 
REMARK       I    between atoms: C_12  and  N_13 
REMARK    3  A    between atoms: N_13  and  N_14 
REMARK       I    between atoms: N_14  and  C_15 
REMARK    4  A    between atoms: C_15  and  C_16 
REMARK    5  A    between atoms: C_16  and  C_17 
REMARK    6  A    between atoms: C_17  and  C_18 
REMARK       I    between atoms: C_18  and  N_19 
REMARK    7  A    between atoms: N_19  and  C_20 
REMARK    8  A    between atoms: C_20  and  C_21 
ROOT
HETATM    1  C   UNL     1      42.829 -15.914   6.467  1.00  0.00     0.240 C 
HETATM    2  N   UNL     1      41.662 -15.183   6.330  1.00  0.00    -0.267 N 
HETATM    3  O   UNL     1      43.938 -15.401   6.312  1.00  0.00    -0.272 OA
HETATM    4  H   UNL     1      40.752 -15.540   6.621  1.00  0.00     0.190 HD
ENDROOT
BRANCH   2   5
HETATM    5  N   UNL     1      41.782 -13.788   6.233  1.00  0.00    -0.268 N 
HETATM    6  C   UNL     1      40.729 -13.088   5.682  1.00  0.00     0.236 C 
HETATM    7  O   UNL     1      39.778 -13.635   5.126  1.00  0.00    -0.272 OA
HETATM    8  H   UNL     1      42.429 -13.359   6.897  1.00  0.00     0.190 HD
BRANCH   6   9
HETATM    9  C   UNL     1      40.843 -11.589   5.868  1.00  0.00     0.114 C 
BRANCH   9  10
HETATM   10  C   UNL     1      40.516 -11.164   7.292  1.00  0.00     0.112 C 
BRANCH  10  11
HETATM   11  C   UNL     1      41.712 -10.537   7.974  1.00  0.00     0.218 C 
HETATM   12  N   UNL     1      42.201 -11.259   9.033  1.00  0.00    -0.355 N 
HETATM   13  H   UNL     1      41.959 -12.250   9.083  1.00  0.00     0.162 HD
HETATM   14  O   UNL     1      42.197  -9.478   7.590  1.00  0.00    -0.274 OA
BRANCH  12  15
HETATM   15  C   UNL     1      43.392 -10.834   9.729  1.00  0.00     0.187 C 
BRANCH  15  16
HETATM   16  C   UNL     1      44.564 -11.490   9.105  1.00  0.00     0.070 A 
HETATM   17  O   UNL     1      45.731 -10.782   9.092  1.00  0.00    -0.325 OA
HETATM   18  C   UNL     1      46.659 -11.558   8.475  1.00  0.00     0.142 A 
HETATM   19  C   UNL     1      46.105 -12.756   8.088  1.00  0.00     0.027 A 
HETATM   20  C   UNL     1      44.750 -12.714   8.494  1.00  0.00     0.036 A 
ENDBRANCH  15  16
ENDBRANCH  12  15
ENDBRANCH  10  11
ENDBRANCH   9  10
ENDBRANCH   6   9
ENDBRANCH   2   5
BRANCH   1  21
HETATM   21  C   UNL     1      42.621 -17.358   6.855  1.00  0.00     0.146 C 
BRANCH  21  22
HETATM   22  C   UNL     1      43.182 -18.398   5.930  1.00  0.00    -0.015 A 
HETATM   23  C   UNL     1      43.268 -18.427   4.491  1.00  0.00     0.000 A 
HETATM   24  C   UNL     1      42.907 -17.540   3.453  1.00  0.00     0.021 A 
HETATM   25  C   UNL     1      43.859 -19.642   4.128  1.00  0.00     0.049 A 
HETATM   26  C   UNL     1      43.125 -17.885   2.109  1.00  0.00    -0.061 A 
HETATM   27  C   UNL     1      42.773 -16.925   1.010  1.00  0.00     0.048 C 
HETATM   28  C   UNL     1      43.724 -19.107   1.800  1.00  0.00     0.015 A 
HETATM   29  C   UNL     1      44.103 -20.024   2.795  1.00  0.00    -0.034 A 
HETATM   30  C   UNL     1      44.751 -21.316   2.386  1.00  0.00     0.050 C 
HETATM   31  N   UNL     1      44.132 -20.316   5.295  1.00  0.00    -0.358 N 
HETATM   32  H   UNL     1      44.572 -21.224   5.333  1.00  0.00     0.166 HD
HETATM   33  C   UNL     1      43.729 -19.594   6.383  1.00  0.00     0.013 A 
HETATM   34  C   UNL     1      43.913 -20.113   7.765  1.00  0.00     0.068 C 
ENDBRANCH  21  22
ENDBRANCH   1  21
TORSDOF 8
ENDMDL
MODEL 6
REMARK VINA RESULT:      -8.8      5.846      9.560
REMARK  8 active torsions:
REMARK  status: ('A' for Active; 'I' for Inactive)
REMARK    1  A    between atoms: C_10  and  C_11 
REMARK    2  A    between atoms: C_11  and  C_12 
REMARK       I    between atoms: C_12  and  N_13 
REMARK    3  A    between atoms: N_13  and  N_14 
REMARK       I    between atoms: N_14  and  C_15 
REMARK    4  A    between atoms: C_15  and  C_16 
REMARK    5  A    between atoms: C_16  and  C_17 
REMARK    6  A    between atoms: C_17  and  C_18 
REMARK       I    between atoms: C_18  and  N_19 
REMARK    7  A    between atoms: N_19  and  C_20 
REMARK    8  A    between atoms: C_20  and  C_21 
ROOT
HETATM    1  C   UNL     1      41.811 -16.372   0.396  1.00  0.00     0.240 C 
HETATM    2  N   UNL     1      41.680 -15.740  -0.828  1.00  0.00    -0.267 N 
HETATM    3  O   UNL     1      40.884 -17.005   0.902  1.00  0.00    -0.272 OA
HETATM    4  H   UNL     1      42.477 -15.362  -1.341  1.00  0.00     0.190 HD
ENDROOT
BRANCH   2   5
HETATM    5  N   UNL     1      40.534 -16.031  -1.585  1.00  0.00    -0.268 N 
HETATM    6  C   UNL     1      40.612 -15.883  -2.955  1.00  0.00     0.236 C 
HETATM    7  O   UNL     1      41.569 -15.354  -3.518  1.00  0.00    -0.272 OA
HETATM    8  H   UNL     1      39.875 -16.676  -1.147  1.00  0.00     0.190 HD
BRANCH   6   9
HETATM    9  C   UNL     1      39.427 -16.472  -3.689  1.00  0.00     0.114 C 
BRANCH   9  10
HETATM   10  C   UNL     1      38.450 -15.399  -4.150  1.00  0.00     0.112 C 
BRANCH  10  11
HETATM   11  C   UNL     1      38.486 -14.188  -3.244  1.00  0.00     0.218 C 
HETATM   12  N   UNL     1      39.286 -13.169  -3.695  1.00  0.00    -0.355 N 
HETATM   13  H   UNL     1      39.523 -13.157  -4.688  1.00  0.00     0.162 HD
HETATM   14  O   UNL     1      37.839 -14.137  -2.203  1.00  0.00    -0.274 OA
BRANCH  12  15
HETATM   15  C   UNL     1      39.356 -11.915  -2.984  1.00  0.00     0.187 C 
BRANCH  15  16
HETATM   16  C   UNL     1      40.716 -11.769  -2.415  1.00  0.00     0.070 A 
HETATM   17  O   UNL     1      41.114 -12.717  -1.518  1.00  0.00    -0.325 OA
HETATM   18  C   UNL     1      42.372 -12.388  -1.126  1.00  0.00     0.142 A 
HETATM   19  C   UNL     1      42.789 -11.239  -1.756  1.00  0.00     0.027 A 
HETATM   20  C   UNL     1      41.719 -10.836  -2.590  1.00  0.00     0.036 A 
ENDBRANCH  15  16
ENDBRANCH  12  15
ENDBRANCH  10  11
ENDBRANCH   9  10
ENDBRANCH   6   9
ENDBRANCH   2   5
BRANCH   1  21
HETATM   21  C   UNL     1      43.180 -16.247   1.021  1.00  0.00     0.146 C 
BRANCH  21  22
HETATM   22  C   UNL     1      43.379 -16.899   2.358  1.00  0.00    -0.015 A 
HETATM   23  C   UNL     1      43.694 -18.264   2.701  1.00  0.00     0.000 A 
HETATM   24  C   UNL     1      43.949 -19.443   1.965  1.00  0.00     0.021 A 
HETATM   25  C   UNL     1      43.744 -18.348   4.096  1.00  0.00     0.049 A 
HETATM   26  C   UNL     1      44.225 -20.652   2.624  1.00  0.00    -0.061 A 
HETATM   27  C   UNL     1      44.530 -21.894   1.839  1.00  0.00     0.048 C 
HETATM   28  C   UNL     1      44.269 -20.681   4.019  1.00  0.00     0.015 A 
HETATM   29  C   UNL     1      44.024 -19.537   4.797  1.00  0.00    -0.034 A 
HETATM   30  C   UNL     1      44.098 -19.644   6.293  1.00  0.00     0.050 C 
HETATM   31  N   UNL     1      43.483 -17.088   4.580  1.00  0.00    -0.358 N 
HETATM   32  H   UNL     1      43.464 -16.853   5.562  1.00  0.00     0.166 HD
HETATM   33  C   UNL     1      43.255 -16.209   3.559  1.00  0.00     0.013 A 
HETATM   34  C   UNL     1      42.945 -14.779   3.827  1.00  0.00     0.068 C 
ENDBRANCH  21  22
ENDBRANCH   1  21
TORSDOF 8
ENDMDL
MODEL 7
REMARK VINA RESULT:      -8.8      2.103      3.734
REMARK  8 active torsions:
REMARK  status: ('A' for Active; 'I' for Inactive)
REMARK    1  A    between atoms: C_10  and  C_11 
REMARK    2  A    between atoms: C_11  and  C_12 
REMARK       I    between atoms: C_12  and  N_13 
REMARK    3  A    between atoms: N_13  and  N_14 
REMARK       I    between atoms: N_14  and  C_15 
REMARK    4  A    between atoms: C_15  and  C_16 
REMARK    5  A    between atoms: C_16  and  C_17 
REMARK    6  A    between atoms: C_17  and  C_18 
REMARK       I    between atoms: C_18  and  N_19 
REMARK    7  A    between atoms: N_19  and  C_20 
REMARK    8  A    between atoms: C_20  and  C_21 
ROOT
HETATM    1  C   UNL     1      44.076 -14.364   6.798  1.00  0.00     0.240 C 
HETATM    2  N   UNL     1      43.554 -13.370   7.607  1.00  0.00    -0.267 N 
HETATM    3  O   UNL     1      45.290 -14.496   6.634  1.00  0.00    -0.272 OA
HETATM    4  H   UNL     1      42.575 -13.350   7.892  1.00  0.00     0.190 HD
ENDROOT
BRANCH   2   5
HETATM    5  N   UNL     1      44.453 -12.658   8.416  1.00  0.00    -0.268 N 
HETATM    6  C   UNL     1      44.061 -11.418   8.878  1.00  0.00     0.236 C 
HETATM    7  O   UNL     1      43.048 -10.844   8.480  1.00  0.00    -0.272 OA
HETATM    8  H   UNL     1      45.137 -13.230   8.914  1.00  0.00     0.190 HD
BRANCH   6   9
HETATM    9  C   UNL     1      44.977 -10.860   9.946  1.00  0.00     0.114 C 
BRANCH   9  10
HETATM   10  C   UNL     1      44.769 -11.543  11.290  1.00  0.00     0.112 C 
BRANCH  10  11
HETATM   11  C   UNL     1      43.566 -10.984  12.017  1.00  0.00     0.218 C 
HETATM   12  N   UNL     1      42.447 -11.775  11.948  1.00  0.00    -0.355 N 
HETATM   13  H   UNL     1      42.579 -12.761  11.716  1.00  0.00     0.162 HD
HETATM   14  O   UNL     1      43.609  -9.916  12.620  1.00  0.00    -0.274 OA
BRANCH  12  15
HETATM   15  C   UNL     1      41.245 -11.419  12.663  1.00  0.00     0.187 C 
BRANCH  15  16
HETATM   16  C   UNL     1      40.328 -10.726  11.730  1.00  0.00     0.070 A 
HETATM   17  O   UNL     1      39.570  -9.715  12.248  1.00  0.00    -0.325 OA
HETATM   18  C   UNL     1      38.808  -9.231  11.234  1.00  0.00     0.142 A 
HETATM   19  C   UNL     1      39.063  -9.917  10.069  1.00  0.00     0.027 A 
HETATM   20  C   UNL     1      40.045 -10.884  10.389  1.00  0.00     0.036 A 
ENDBRANCH  15  16
ENDBRANCH  12  15
ENDBRANCH  10  11
ENDBRANCH   9  10
ENDBRANCH   6   9
ENDBRANCH   2   5
BRANCH   1  21
HETATM   21  C   UNL     1      43.043 -15.275   6.181  1.00  0.00     0.146 C 
BRANCH  21  22
HETATM   22  C   UNL     1      43.448 -16.702   5.947  1.00  0.00    -0.015 A 
HETATM   23  C   UNL     1      43.660 -17.429   4.721  1.00  0.00     0.000 A 
HETATM   24  C   UNL     1      43.600 -17.106   3.347  1.00  0.00     0.021 A 
HETATM   25  C   UNL     1      44.003 -18.742   5.063  1.00  0.00     0.049 A 
HETATM   26  C   UNL     1      43.863 -18.080   2.371  1.00  0.00    -0.061 A 
HETATM   27  C   UNL     1      43.834 -17.724   0.913  1.00  0.00     0.048 C 
HETATM   28  C   UNL     1      44.207 -19.374   2.764  1.00  0.00     0.015 A 
HETATM   29  C   UNL     1      44.282 -19.748   4.117  1.00  0.00    -0.034 A 
HETATM   30  C   UNL     1      44.668 -21.156   4.465  1.00  0.00     0.050 C 
HETATM   31  N   UNL     1      44.012 -18.806   6.436  1.00  0.00    -0.358 N 
HETATM   32  H   UNL     1      44.237 -19.638   6.961  1.00  0.00     0.166 HD
HETATM   33  C   UNL     1      43.676 -17.600   6.985  1.00  0.00     0.013 A 
HETATM   34  C   UNL     1      43.610 -17.414   8.459  1.00  0.00     0.068 C 
ENDBRANCH  21  22
ENDBRANCH   1  21
TORSDOF 8
ENDMDL
MODEL 8
REMARK VINA RESULT:      -8.7      2.515     10.290
REMARK  8 active torsions:
REMARK  status: ('A' for Active; 'I' for Inactive)
REMARK    1  A    between atoms: C_10  and  C_11 
REMARK    2  A    between atoms: C_11  and  C_12 
REMARK       I    between atoms: C_12  and  N_13 
REMARK    3  A    between atoms: N_13  and  N_14 
REMARK       I    between atoms: N_14  and  C_15 
REMARK    4  A    between atoms: C_15  and  C_16 
REMARK    5  A    between atoms: C_16  and  C_17 
REMARK    6  A    between atoms: C_17  and  C_18 
REMARK       I    between atoms: C_18  and  N_19 
REMARK    7  A    between atoms: N_19  and  C_20 
REMARK    8  A    between atoms: C_20  and  C_21 
ROOT
HETATM    1  C   UNL     1      39.559 -11.737   7.858  1.00  0.00     0.240 C 
HETATM    2  N   UNL     1      40.214 -12.329   6.791  1.00  0.00    -0.267 N 
HETATM    3  O   UNL     1      38.707 -12.340   8.511  1.00  0.00    -0.272 OA
HETATM    4  H   UNL     1      41.036 -11.914   6.352  1.00  0.00     0.190 HD
ENDROOT
BRANCH   2   5
HETATM    5  N   UNL     1      40.044 -13.711   6.617  1.00  0.00    -0.268 N 
HETATM    6  C   UNL     1      40.858 -14.349   5.703  1.00  0.00     0.236 C 
HETATM    7  O   UNL     1      41.595 -13.746   4.926  1.00  0.00    -0.272 OA
HETATM    8  H   UNL     1      39.630 -14.203   7.410  1.00  0.00     0.190 HD
BRANCH   6   9
HETATM    9  C   UNL     1      40.780 -15.859   5.785  1.00  0.00     0.114 C 
BRANCH   9  10
HETATM   10  C   UNL     1      41.263 -16.527   4.506  1.00  0.00     0.112 C 
BRANCH  10  11
HETATM   11  C   UNL     1      42.659 -17.089   4.665  1.00  0.00     0.218 C 
HETATM   12  N   UNL     1      42.819 -18.354   4.159  1.00  0.00    -0.355 N 
HETATM   13  H   UNL     1      42.139 -18.678   3.469  1.00  0.00     0.162 HD
HETATM   14  O   UNL     1      43.560 -16.448   5.196  1.00  0.00    -0.274 OA
BRANCH  12  15
HETATM   15  C   UNL     1      44.114 -18.991   4.159  1.00  0.00     0.187 C 
BRANCH  15  16
HETATM   16  C   UNL     1      44.069 -20.154   3.244  1.00  0.00     0.070 A 
HETATM   17  O   UNL     1      44.699 -21.291   3.660  1.00  0.00    -0.325 OA
HETATM   18  C   UNL     1      44.540 -22.216   2.679  1.00  0.00     0.142 A 
HETATM   19  C   UNL     1      43.818 -21.689   1.633  1.00  0.00     0.027 A 
HETATM   20  C   UNL     1      43.513 -20.356   1.996  1.00  0.00     0.036 A 
ENDBRANCH  15  16
ENDBRANCH  12  15
ENDBRANCH  10  11
ENDBRANCH   9  10
ENDBRANCH   6   9
ENDBRANCH   2   5
BRANCH   1  21
HETATM   21  C   UNL     1      40.008 -10.328   8.163  1.00  0.00     0.146 C 
BRANCH  21  22
HETATM   22  C   UNL     1      40.602 -10.083   9.519  1.00  0.00    -0.015 A 
HETATM   23  C   UNL     1      41.948 -10.267  10.003  1.00  0.00     0.000 A 
HETATM   24  C   UNL     1      43.163 -10.699   9.427  1.00  0.00     0.021 A 
HETATM   25  C   UNL     1      41.963  -9.910  11.355  1.00  0.00     0.049 A 
HETATM   26  C   UNL     1      44.333 -10.777  10.199  1.00  0.00    -0.061 A 
HETATM   27  C   UNL     1      45.631 -11.201   9.575  1.00  0.00     0.048 C 
HETATM   28  C   UNL     1      44.297 -10.404  11.544  1.00  0.00     0.015 A 
HETATM   29  C   UNL     1      43.114  -9.966  12.165  1.00  0.00    -0.034 A 
HETATM   30  C   UNL     1      43.154  -9.572  13.613  1.00  0.00     0.050 C 
HETATM   31  N   UNL     1      40.686  -9.514  11.677  1.00  0.00    -0.358 N 
HETATM   32  H   UNL     1      40.409  -9.193  12.592  1.00  0.00     0.166 HD
HETATM   33  C   UNL     1      39.856  -9.616  10.596  1.00  0.00     0.013 A 
HETATM   34  C   UNL     1      38.417  -9.249  10.691  1.00  0.00     0.068 C 
ENDBRANCH  21  22
ENDBRANCH   1  21
TORSDOF 8
ENDMDL
MODEL 9
REMARK VINA RESULT:      -8.6      4.572      8.118
REMARK  8 active torsions:
REMARK  status: ('A' for Active; 'I' for Inactive)
REMARK    1  A    between atoms: C_10  and  C_11 
REMARK    2  A    between atoms: C_11  and  C_12 
REMARK       I    between atoms: C_12  and  N_13 
REMARK    3  A    between atoms: N_13  and  N_14 
REMARK       I    between atoms: N_14  and  C_15 
REMARK    4  A    between atoms: C_15  and  C_16 
REMARK    5  A    between atoms: C_16  and  C_17 
REMARK    6  A    between atoms: C_17  and  C_18 
REMARK       I    between atoms: C_18  and  N_19 
REMARK    7  A    between atoms: N_19  and  C_20 
REMARK    8  A    between atoms: C_20  and  C_21 
ROOT
HETATM    1  C   UNL     1      42.164 -16.520   6.648  1.00  0.00     0.240 C 
HETATM    2  N   UNL     1      42.234 -15.140   6.572  1.00  0.00    -0.267 N 
HETATM    3  O   UNL     1      41.099 -17.124   6.522  1.00  0.00    -0.272 OA
HETATM    4  H   UNL     1      43.118 -14.636   6.500  1.00  0.00     0.190 HD
ENDROOT
BRANCH   2   5
HETATM    5  N   UNL     1      41.092 -14.460   6.121  1.00  0.00    -0.268 N 
HETATM    6  C   UNL     1      41.100 -13.974   4.829  1.00  0.00     0.236 C 
HETATM    7  O   UNL     1      42.108 -13.960   4.125  1.00  0.00    -0.272 OA
HETATM    8  H   UNL     1      40.224 -14.698   6.605  1.00  0.00     0.190 HD
BRANCH   6   9
HETATM    9  C   UNL     1      39.740 -13.503   4.358  1.00  0.00     0.114 C 
BRANCH   9  10
HETATM   10  C   UNL     1      39.760 -13.068   2.900  1.00  0.00     0.112 C 
BRANCH  10  11
HETATM   11  C   UNL     1      39.689 -14.256   1.965  1.00  0.00     0.218 C 
HETATM   12  N   UNL     1      40.780 -14.396   1.146  1.00  0.00    -0.355 N 
HETATM   13  H   UNL     1      41.644 -13.928   1.424  1.00  0.00     0.162 HD
HETATM   14  O   UNL     1      38.732 -15.023   1.963  1.00  0.00    -0.274 OA
BRANCH  12  15
HETATM   15  C   UNL     1      40.898 -15.529   0.260  1.00  0.00     0.187 C 
BRANCH  15  16
HETATM   16  C   UNL     1      41.145 -15.032  -1.113  1.00  0.00     0.070 A 
HETATM   17  O   UNL     1      41.635 -13.764  -1.231  1.00  0.00    -0.325 OA
HETATM   18  C   UNL     1      41.778 -13.516  -2.558  1.00  0.00     0.142 A 
HETATM   19  C   UNL     1      41.384 -14.606  -3.298  1.00  0.00     0.027 A 
HETATM   20  C   UNL     1      40.973 -15.588  -2.365  1.00  0.00     0.036 A 
ENDBRANCH  15  16
ENDBRANCH  12  15
ENDBRANCH  10  11
ENDBRANCH   9  10
ENDBRANCH   6   9
ENDBRANCH   2   5
BRANCH   1  21
HETATM   21  C   UNL     1      43.495 -17.202   6.855  1.00  0.00     0.146 C 
BRANCH  21  22
HETATM   22  C   UNL     1      43.757 -18.440   6.047  1.00  0.00    -0.015 A 
HETATM   23  C   UNL     1      43.852 -18.628   4.620  1.00  0.00     0.000 A 
HETATM   24  C   UNL     1      43.766 -17.778   3.495  1.00  0.00     0.021 A 
HETATM   25  C   UNL     1      44.087 -19.987   4.388  1.00  0.00     0.049 A 
HETATM   26  C   UNL     1      43.898 -18.295   2.197  1.00  0.00    -0.061 A 
HETATM   27  C   UNL     1      43.842 -17.383   1.005  1.00  0.00     0.048 C 
HETATM   28  C   UNL     1      44.138 -19.658   2.019  1.00  0.00     0.015 A 
HETATM   29  C   UNL     1      44.233 -20.546   3.104  1.00  0.00    -0.034 A 
HETATM   30  C   UNL     1      44.502 -21.999   2.836  1.00  0.00     0.050 C 
HETATM   31  N   UNL     1      44.145 -20.597   5.619  1.00  0.00    -0.358 N 
HETATM   32  H   UNL     1      44.315 -21.583   5.754  1.00  0.00     0.166 HD
HETATM   33  C   UNL     1      43.944 -19.691   6.624  1.00  0.00     0.013 A 
HETATM   34  C   UNL     1      43.957 -20.108   8.051  1.00  0.00     0.068 C 
ENDBRANCH  21  22
ENDBRANCH   1  21
TORSDOF 8
ENDMDL
MODEL 10
REMARK VINA RESULT:      -8.6      5.659      8.217
REMARK  8 active torsions:
REMARK  status: ('A' for Active; 'I' for Inactive)
REMARK    1  A    between atoms: C_10  and  C_11 
REMARK    2  A    between atoms: C_11  and  C_12 
REMARK       I    between atoms: C_12  and  N_13 
REMARK    3  A    between atoms: N_13  and  N_14 
REMARK       I    between atoms: N_14  and  C_15 
REMARK    4  A    between atoms: C_15  and  C_16 
REMARK    5  A    between atoms: C_16  and  C_17 
REMARK    6  A    between atoms: C_17  and  C_18 
REMARK       I    between atoms: C_18  and  N_19 
REMARK    7  A    between atoms: N_19  and  C_20 
REMARK    8  A    between atoms: C_20  and  C_21 
ROOT
HETATM    1  C   UNL     1      42.325 -17.045   0.802  1.00  0.00     0.240 C 
HETATM    2  N   UNL     1      42.258 -15.991  -0.092  1.00  0.00    -0.267 N 
HETATM    3  O   UNL     1      41.346 -17.748   1.052  1.00  0.00    -0.272 OA
HETATM    4  H   UNL     1      43.087 -15.511  -0.441  1.00  0.00     0.190 HD
ENDROOT
BRANCH   2   5
HETATM    5  N   UNL     1      41.100 -15.886  -0.879  1.00  0.00    -0.268 N 
HETATM    6  C   UNL     1      41.051 -14.881  -1.823  1.00  0.00     0.236 C 
HETATM    7  O   UNL     1      41.889 -13.983  -1.889  1.00  0.00    -0.272 OA
HETATM    8  H   UNL     1      40.561 -16.748  -0.978  1.00  0.00     0.190 HD
BRANCH   6   9
HETATM    9  C   UNL     1      39.892 -15.020  -2.787  1.00  0.00     0.114 C 
BRANCH   9  10
HETATM   10  C   UNL     1      39.172 -13.698  -3.009  1.00  0.00     0.112 C 
BRANCH  10  11
HETATM   11  C   UNL     1      38.582 -13.163  -1.722  1.00  0.00     0.218 C 
HETATM   12  N   UNL     1      37.930 -14.104  -0.967  1.00  0.00    -0.355 N 
HETATM   13  H   UNL     1      38.150 -15.086  -1.140  1.00  0.00     0.162 HD
HETATM   14  O   UNL     1      38.699 -11.987  -1.394  1.00  0.00    -0.274 OA
BRANCH  12  15
HETATM   15  C   UNL     1      37.390 -13.767   0.328  1.00  0.00     0.187 C 
BRANCH  15  16
HETATM   16  C   UNL     1      38.399 -14.093   1.362  1.00  0.00     0.070 A 
HETATM   17  O   UNL     1      38.957 -13.044   2.032  1.00  0.00    -0.325 OA
HETATM   18  C   UNL     1      39.848 -13.565   2.915  1.00  0.00     0.142 A 
HETATM   19  C   UNL     1      39.873 -14.937   2.821  1.00  0.00     0.027 A 
HETATM   20  C   UNL     1      38.937 -15.281   1.816  1.00  0.00     0.036 A 
ENDBRANCH  15  16
ENDBRANCH  12  15
ENDBRANCH  10  11
ENDBRANCH   9  10
ENDBRANCH   6   9
ENDBRANCH   2   5
BRANCH   1  21
HETATM   21  C   UNL     1      43.693 -17.271   1.399  1.00  0.00     0.146 C 
BRANCH  21  22
HETATM   22  C   UNL     1      43.753 -17.558   2.871  1.00  0.00    -0.015 A 
HETATM   23  C   UNL     1      43.993 -18.792   3.579  1.00  0.00     0.000 A 
HETATM   24  C   UNL     1      44.270 -20.123   3.196  1.00  0.00     0.021 A 
HETATM   25  C   UNL     1      43.918 -18.515   4.948  1.00  0.00     0.049 A 
HETATM   26  C   UNL     1      44.448 -21.124   4.164  1.00  0.00    -0.061 A 
HETATM   27  C   UNL     1      44.779 -22.530   3.754  1.00  0.00     0.048 C 
HETATM   28  C   UNL     1      44.369 -20.794   5.518  1.00  0.00     0.015 A 
HETATM   29  C   UNL     1      44.097 -19.486   5.952  1.00  0.00    -0.034 A 
HETATM   30  C   UNL     1      44.037 -19.204   7.426  1.00  0.00     0.050 C 
HETATM   31  N   UNL     1      43.658 -17.170   5.068  1.00  0.00    -0.358 N 
HETATM   32  H   UNL     1      43.562 -16.690   5.951  1.00  0.00     0.166 HD
HETATM   33  C   UNL     1      43.549 -16.581   3.839  1.00  0.00     0.013 A 
HETATM   34  C   UNL     1      43.265 -15.127   3.703  1.00  0.00     0.068 C 
ENDBRANCH  21  22
ENDBRANCH   1  21
TORSDOF 8
ENDMDL
