MODEL 1
REMARK VINA RESULT:      -7.8      0.000      0.000
REMARK  8 active torsions:
REMARK  status: ('A' for Active; 'I' for Inactive)
REMARK    1  A    between atoms: O_2  and  C_3 
REMARK    2  A    between atoms: C_4  and  O_5 
REMARK    3  A    between atoms: O_5  and  C_6 
REMARK    4  A    between atoms: C_6  and  C_7 
REMARK       I    between atoms: C_7  and  N_8 
REMARK    5  A    between atoms: N_8  and  C_9 
REMARK    6  A    between atoms: C_9  and  N_10 
REMARK    7  A    between atoms: N_10  and  N_11 
REMARK       I    between atoms: N_11  and  C_12 
REMARK       I    between atoms: C_12  and  N_13 
REMARK    8  A    between atoms: N_13  and  C_14 
ROOT
HETATM    1  C   UNL     1      43.482 -14.266   6.602  1.00  0.00     0.189 C 
HETATM    2  S   UNL     1      42.497 -13.408   5.568  1.00  0.00    -0.039 SA
ENDROOT
BRANCH   1   3
HETATM    3  N   UNL     1      43.872 -15.589   6.488  1.00  0.00    -0.301 N 
HETATM    4  C   UNL     1      43.629 -16.658   7.358  1.00  0.00     0.248 C 
HETATM    5  O   UNL     1      43.585 -16.570   8.580  1.00  0.00    -0.271 OA
HETATM    6  H   UNL     1      44.231 -15.828   5.580  1.00  0.00     0.171 HD
BRANCH   4   7
HETATM    7  C   UNL     1      43.495 -17.986   6.601  1.00  0.00     0.278 C 
BRANCH   7   8
HETATM    8  O   UNL     1      44.572 -18.185   5.702  1.00  0.00    -0.339 OA
BRANCH   8   9
HETATM    9  C   UNL     1      44.310 -18.734   4.477  1.00  0.00     0.102 A 
HETATM   10  C   UNL     1      43.664 -17.938   3.512  1.00  0.00     0.101 A 
HETATM   11  C   UNL     1      43.347 -18.490   2.261  1.00  0.00     0.039 A 
HETATM   12  C   UNL     1      43.673 -19.809   1.950  1.00  0.00     0.003 A 
HETATM   13  C   UNL     1      44.312 -20.596   2.898  1.00  0.00     0.003 A 
HETATM   14  C   UNL     1      44.620 -20.066   4.155  1.00  0.00     0.039 A 
BRANCH  10  15
HETATM   15  O   UNL     1      43.258 -16.632   3.618  1.00  0.00    -0.353 OA
HETATM   16  C   UNL     1      41.948 -16.290   3.187  1.00  0.00     0.210 C 
ENDBRANCH  10  15
ENDBRANCH   8   9
ENDBRANCH   7   8
ENDBRANCH   4   7
ENDBRANCH   1   3
BRANCH   1  17
HETATM   17  N   UNL     1      44.027 -13.595   7.677  1.00  0.00    -0.289 N 
HETATM   18  H   UNL     1      43.393 -13.334   8.435  1.00  0.00     0.183 HD
BRANCH  17  19
HETATM   19  N   UNL     1      45.410 -13.567   7.955  1.00  0.00    -0.153 NA
HETATM   20  C   UNL     1      46.019 -12.379   8.249  1.00  0.00     0.317 C 
HETATM   21  N   UNL     1      45.381 -11.389   8.916  1.00  0.00    -0.312 N 
HETATM   22  O   UNL     1      47.149 -12.180   7.797  1.00  0.00    -0.252 OA
HETATM   23  H   UNL     1      45.859 -10.503   8.791  1.00  0.00     0.170 HD
HETATM   24  H   UNL     1      45.992 -14.026   7.260  1.00  0.00     0.157 HD
BRANCH  21  25
HETATM   25  C   UNL     1      44.340 -11.375   9.860  1.00  0.00     0.035 A 
HETATM   26  C   UNL     1      44.434 -11.926  11.137  1.00  0.00     0.029 A 
HETATM   27  C   UNL     1      43.348 -11.858  12.015  1.00  0.00     0.002 A 
HETATM   28  C   UNL     1      42.169 -11.221  11.629  1.00  0.00     0.000 A 
HETATM   29  C   UNL     1      42.078 -10.640  10.369  1.00  0.00     0.002 A 
HETATM   30  C   UNL     1      43.163 -10.709   9.492  1.00  0.00     0.029 A 
ENDBRANCH  21  25
ENDBRANCH  17  19
ENDBRANCH   1  17
TORSDOF 8
ENDMDL
MODEL 2
REMARK VINA RESULT:      -7.8      0.803      2.155
REMARK  8 active torsions:
REMARK  status: ('A' for Active; 'I' for Inactive)
REMARK    1  A    between atoms: O_2  and  C_3 
REMARK    2  A    between atoms: C_4  and  O_5 
REMARK    3  A    between atoms: O_5  and  C_6 
REMARK    4  A    between atoms: C_6  and  C_7 
REMARK       I    between atoms: C_7  and  N_8 
REMARK    5  A    between atoms: N_8  and  C_9 
REMARK    6  A    between atoms: C_9  and  N_10 
REMARK    7  A    between atoms: N_10  and  N_11 
REMARK       I    between atoms: N_11  and  C_12 
REMARK       I    between atoms: C_12  and  N_13 
REMARK    8  A    between atoms: N_13  and  C_14 
ROOT
HETATM    1  C   UNL     1      43.229 -13.981   6.377  1.00  0.00     0.189 C 
HETATM    2  S   UNL     1      42.357 -12.951   5.399  1.00  0.00    -0.039 SA
ENDROOT
BRANCH   1   3
HETATM    3  N   UNL     1      43.483 -15.326   6.167  1.00  0.00    -0.301 N 
HETATM    4  C   UNL     1      43.428 -16.386   7.079  1.00  0.00     0.248 C 
HETATM    5  O   UNL     1      43.740 -16.309   8.262  1.00  0.00    -0.271 OA
HETATM    6  H   UNL     1      43.551 -15.578   5.196  1.00  0.00     0.171 HD
BRANCH   4   7
HETATM    7  C   UNL     1      42.997 -17.695   6.403  1.00  0.00     0.278 C 
BRANCH   7   8
HETATM    8  O   UNL     1      44.088 -18.337   5.766  1.00  0.00    -0.339 OA
BRANCH   8   9
HETATM    9  C   UNL     1      43.913 -18.825   4.501  1.00  0.00     0.102 A 
HETATM   10  C   UNL     1      44.500 -20.062   4.175  1.00  0.00     0.101 A 
HETATM   11  C   UNL     1      44.371 -20.565   2.871  1.00  0.00     0.039 A 
HETATM   12  C   UNL     1      43.660 -19.870   1.895  1.00  0.00     0.003 A 
HETATM   13  C   UNL     1      43.077 -18.650   2.214  1.00  0.00     0.003 A 
HETATM   14  C   UNL     1      43.211 -18.127   3.504  1.00  0.00     0.039 A 
BRANCH  10  15
HETATM   15  O   UNL     1      45.236 -20.894   4.979  1.00  0.00    -0.353 OA
HETATM   16  C   UNL     1      44.909 -22.276   5.009  1.00  0.00     0.210 C 
ENDBRANCH  10  15
ENDBRANCH   8   9
ENDBRANCH   7   8
ENDBRANCH   4   7
ENDBRANCH   1   3
BRANCH   1  17
HETATM   17  N   UNL     1      43.820 -13.452   7.505  1.00  0.00    -0.289 N 
HETATM   18  H   UNL     1      43.202 -13.172   8.268  1.00  0.00     0.183 HD
BRANCH  17  19
HETATM   19  N   UNL     1      45.190 -13.603   7.807  1.00  0.00    -0.153 NA
HETATM   20  C   UNL     1      45.931 -12.511   8.163  1.00  0.00     0.317 C 
HETATM   21  N   UNL     1      45.402 -11.479   8.860  1.00  0.00    -0.312 N 
HETATM   22  O   UNL     1      47.087 -12.432   7.739  1.00  0.00    -0.252 OA
HETATM   23  H   UNL     1      45.987 -10.653   8.781  1.00  0.00     0.170 HD
HETATM   24  H   UNL     1      45.728 -14.102   7.104  1.00  0.00     0.157 HD
BRANCH  21  25
HETATM   25  C   UNL     1      44.350 -11.376   9.785  1.00  0.00     0.035 A 
HETATM   26  C   UNL     1      43.139 -10.735   9.527  1.00  0.00     0.029 A 
HETATM   27  C   UNL     1      42.143 -10.690  10.506  1.00  0.00     0.002 A 
HETATM   28  C   UNL     1      42.343 -11.301  11.743  1.00  0.00     0.000 A 
HETATM   29  C   UNL     1      43.535 -11.971  11.998  1.00  0.00     0.002 A 
HETATM   30  C   UNL     1      44.530 -12.016  11.019  1.00  0.00     0.029 A 
ENDBRANCH  21  25
ENDBRANCH  17  19
ENDBRANCH   1  17
TORSDOF 8
ENDMDL
MODEL 3
REMARK VINA RESULT:      -7.6      3.664      4.867
REMARK  8 active torsions:
REMARK  status: ('A' for Active; 'I' for Inactive)
REMARK    1  A    between atoms: O_2  and  C_3 
REMARK    2  A    between atoms: C_4  and  O_5 
REMARK    3  A    between atoms: O_5  and  C_6 
REMARK    4  A    between atoms: C_6  and  C_7 
REMARK       I    between atoms: C_7  and  N_8 
REMARK    5  A    between atoms: N_8  and  C_9 
REMARK    6  A    between atoms: C_9  and  N_10 
REMARK    7  A    between atoms: N_10  and  N_11 
REMARK       I    between atoms: N_11  and  C_12 
REMARK       I    between atoms: C_12  and  N_13 
REMARK    8  A    between atoms: N_13  and  C_14 
ROOT
HETATM    1  C   UNL     1      44.048 -15.397   6.281  1.00  0.00     0.189 C 
HETATM    2  S   UNL     1      44.608 -14.061   7.105  1.00  0.00    -0.039 SA
ENDROOT
BRANCH   1   3
HETATM    3  N   UNL     1      44.370 -16.724   6.512  1.00  0.00    -0.301 N 
HETATM    4  C   UNL     1      43.754 -17.644   7.368  1.00  0.00     0.248 C 
HETATM    5  O   UNL     1      43.265 -17.368   8.458  1.00  0.00    -0.271 OA
HETATM    6  H   UNL     1      45.025 -17.102   5.850  1.00  0.00     0.171 HD
BRANCH   4   7
HETATM    7  C   UNL     1      43.830 -19.073   6.815  1.00  0.00     0.278 C 
BRANCH   7   8
HETATM    8  O   UNL     1      44.850 -19.203   5.840  1.00  0.00    -0.339 OA
BRANCH   8   9
HETATM    9  C   UNL     1      44.708 -20.149   4.863  1.00  0.00     0.102 A 
HETATM   10  C   UNL     1      44.360 -19.724   3.567  1.00  0.00     0.101 A 
HETATM   11  C   UNL     1      44.167 -20.678   2.556  1.00  0.00     0.039 A 
HETATM   12  C   UNL     1      44.328 -22.039   2.807  1.00  0.00     0.003 A 
HETATM   13  C   UNL     1      44.675 -22.462   4.084  1.00  0.00     0.003 A 
HETATM   14  C   UNL     1      44.854 -21.525   5.105  1.00  0.00     0.039 A 
BRANCH  10  15
HETATM   15  O   UNL     1      44.151 -18.445   3.116  1.00  0.00    -0.353 OA
HETATM   16  C   UNL     1      43.879 -18.246   1.736  1.00  0.00     0.210 C 
ENDBRANCH  10  15
ENDBRANCH   8   9
ENDBRANCH   7   8
ENDBRANCH   4   7
ENDBRANCH   1   3
BRANCH   1  17
HETATM   17  N   UNL     1      43.117 -15.195   5.283  1.00  0.00    -0.289 N 
HETATM   18  H   UNL     1      42.961 -14.233   4.978  1.00  0.00     0.183 HD
BRANCH  17  19
HETATM   19  N   UNL     1      42.650 -16.224   4.437  1.00  0.00    -0.153 NA
HETATM   20  C   UNL     1      41.385 -16.714   4.600  1.00  0.00     0.317 C 
HETATM   21  N   UNL     1      40.358 -15.933   5.010  1.00  0.00    -0.312 N 
HETATM   22  O   UNL     1      41.212 -17.927   4.465  1.00  0.00    -0.252 OA
HETATM   23  H   UNL     1      39.589 -16.499   5.352  1.00  0.00     0.170 HD
HETATM   24  H   UNL     1      43.266 -17.029   4.368  1.00  0.00     0.157 HD
BRANCH  21  25
HETATM   25  C   UNL     1      40.079 -14.562   4.889  1.00  0.00     0.035 A 
HETATM   26  C   UNL     1      39.939 -13.896   3.671  1.00  0.00     0.029 A 
HETATM   27  C   UNL     1      39.652 -12.528   3.645  1.00  0.00     0.002 A 
HETATM   28  C   UNL     1      39.484 -11.821   4.836  1.00  0.00     0.000 A 
HETATM   29  C   UNL     1      39.590 -12.484   6.054  1.00  0.00     0.002 A 
HETATM   30  C   UNL     1      39.877 -13.850   6.079  1.00  0.00     0.029 A 
ENDBRANCH  21  25
ENDBRANCH  17  19
ENDBRANCH   1  17
TORSDOF 8
ENDMDL
MODEL 4
REMARK VINA RESULT:      -7.6      3.794      5.955
REMARK  8 active torsions:
REMARK  status: ('A' for Active; 'I' for Inactive)
REMARK    1  A    between atoms: O_2  and  C_3 
REMARK    2  A    between atoms: C_4  and  O_5 
REMARK    3  A    between atoms: O_5  and  C_6 
REMARK    4  A    between atoms: C_6  and  C_7 
REMARK       I    between atoms: C_7  and  N_8 
REMARK    5  A    between atoms: N_8  and  C_9 
REMARK    6  A    between atoms: C_9  and  N_10 
REMARK    7  A    between atoms: N_10  and  N_11 
REMARK       I    between atoms: N_11  and  C_12 
REMARK       I    between atoms: C_12  and  N_13 
REMARK    8  A    between atoms: N_13  and  C_14 
ROOT
HETATM    1  C   UNL     1      43.945 -15.310   6.360  1.00  0.00     0.189 C 
HETATM    2  S   UNL     1      44.712 -13.927   6.885  1.00  0.00    -0.039 SA
ENDROOT
BRANCH   1   3
HETATM    3  N   UNL     1      44.298 -16.622   6.629  1.00  0.00    -0.301 N 
HETATM    4  C   UNL     1      43.480 -17.696   6.999  1.00  0.00     0.248 C 
HETATM    5  O   UNL     1      42.489 -17.607   7.715  1.00  0.00    -0.271 OA
HETATM    6  H   UNL     1      45.239 -16.851   6.358  1.00  0.00     0.171 HD
BRANCH   4   7
HETATM    7  C   UNL     1      44.017 -19.029   6.460  1.00  0.00     0.278 C 
BRANCH   7   8
HETATM    8  O   UNL     1      44.771 -18.848   5.275  1.00  0.00    -0.339 OA
BRANCH   8   9
HETATM    9  C   UNL     1      44.344 -19.456   4.126  1.00  0.00     0.102 A 
HETATM   10  C   UNL     1      44.754 -20.779   3.879  1.00  0.00     0.101 A 
HETATM   11  C   UNL     1      44.364 -21.412   2.688  1.00  0.00     0.039 A 
HETATM   12  C   UNL     1      43.565 -20.759   1.752  1.00  0.00     0.003 A 
HETATM   13  C   UNL     1      43.156 -19.454   1.994  1.00  0.00     0.003 A 
HETATM   14  C   UNL     1      43.550 -18.805   3.168  1.00  0.00     0.039 A 
BRANCH  10  15
HETATM   15  O   UNL     1      45.536 -21.590   4.661  1.00  0.00    -0.353 OA
HETATM   16  C   UNL     1      44.903 -22.564   5.479  1.00  0.00     0.210 C 
ENDBRANCH  10  15
ENDBRANCH   8   9
ENDBRANCH   7   8
ENDBRANCH   4   7
ENDBRANCH   1   3
BRANCH   1  17
HETATM   17  N   UNL     1      42.796 -15.165   5.611  1.00  0.00    -0.289 N 
HETATM   18  H   UNL     1      42.830 -15.474   4.638  1.00  0.00     0.183 HD
BRANCH  17  19
HETATM   19  N   UNL     1      41.520 -14.960   6.178  1.00  0.00    -0.153 NA
HETATM   20  C   UNL     1      40.640 -14.105   5.577  1.00  0.00     0.317 C 
HETATM   21  N   UNL     1      40.592 -13.948   4.234  1.00  0.00    -0.312 N 
HETATM   22  O   UNL     1      39.945 -13.387   6.300  1.00  0.00    -0.252 OA
HETATM   23  H   UNL     1      40.109 -13.091   3.987  1.00  0.00     0.170 HD
HETATM   24  H   UNL     1      41.528 -14.722   7.165  1.00  0.00     0.157 HD
BRANCH  21  25
HETATM   25  C   UNL     1      40.899 -14.789   3.151  1.00  0.00     0.035 A 
HETATM   26  C   UNL     1      40.303 -16.031   2.930  1.00  0.00     0.029 A 
HETATM   27  C   UNL     1      40.664 -16.798   1.819  1.00  0.00     0.002 A 
HETATM   28  C   UNL     1      41.610 -16.321   0.911  1.00  0.00     0.000 A 
HETATM   29  C   UNL     1      42.185 -15.071   1.106  1.00  0.00     0.002 A 
HETATM   30  C   UNL     1      41.824 -14.304   2.217  1.00  0.00     0.029 A 
ENDBRANCH  21  25
ENDBRANCH  17  19
ENDBRANCH   1  17
TORSDOF 8
ENDMDL
MODEL 5
REMARK VINA RESULT:      -7.5      2.137      8.331
REMARK  8 active torsions:
REMARK  status: ('A' for Active; 'I' for Inactive)
REMARK    1  A    between atoms: O_2  and  C_3 
REMARK    2  A    between atoms: C_4  and  O_5 
REMARK    3  A    between atoms: O_5  and  C_6 
REMARK    4  A    between atoms: C_6  and  C_7 
REMARK       I    between atoms: C_7  and  N_8 
REMARK    5  A    between atoms: N_8  and  C_9 
REMARK    6  A    between atoms: C_9  and  N_10 
REMARK    7  A    between atoms: N_10  and  N_11 
REMARK       I    between atoms: N_11  and  C_12 
REMARK       I    between atoms: C_12  and  N_13 
REMARK    8  A    between atoms: N_13  and  C_14 
ROOT
HETATM    1  C   UNL     1      42.840 -13.745   5.812  1.00  0.00     0.189 C 
HETATM    2  S   UNL     1      43.462 -14.083   4.303  1.00  0.00    -0.039 SA
ENDROOT
BRANCH   1   3
HETATM    3  N   UNL     1      42.546 -12.499   6.341  1.00  0.00    -0.301 N 
HETATM    4  C   UNL     1      41.305 -11.865   6.465  1.00  0.00     0.248 C 
HETATM    5  O   UNL     1      40.387 -11.957   5.657  1.00  0.00    -0.271 OA
HETATM    6  H   UNL     1      43.310 -12.084   6.845  1.00  0.00     0.171 HD
BRANCH   4   7
HETATM    7  C   UNL     1      41.248 -10.967   7.708  1.00  0.00     0.278 C 
BRANCH   7   8
HETATM    8  O   UNL     1      42.532 -10.486   8.064  1.00  0.00    -0.339 OA
BRANCH   8   9
HETATM    9  C   UNL     1      42.954 -10.632   9.357  1.00  0.00     0.102 A 
HETATM   10  C   UNL     1      43.843 -11.682   9.654  1.00  0.00     0.101 A 
HETATM   11  C   UNL     1      44.258 -11.880  10.981  1.00  0.00     0.039 A 
HETATM   12  C   UNL     1      43.818 -11.047  12.007  1.00  0.00     0.003 A 
HETATM   13  C   UNL     1      42.943 -10.008  11.717  1.00  0.00     0.003 A 
HETATM   14  C   UNL     1      42.507  -9.808  10.403  1.00  0.00     0.039 A 
BRANCH  10  15
HETATM   15  O   UNL     1      44.386 -12.607   8.800  1.00  0.00    -0.353 OA
HETATM   16  C   UNL     1      45.763 -12.498   8.465  1.00  0.00     0.210 C 
ENDBRANCH  10  15
ENDBRANCH   8   9
ENDBRANCH   7   8
ENDBRANCH   4   7
ENDBRANCH   1   3
BRANCH   1  17
HETATM   17  N   UNL     1      42.524 -14.808   6.631  1.00  0.00    -0.289 N 
HETATM   18  H   UNL     1      41.653 -15.305   6.437  1.00  0.00     0.183 HD
BRANCH  17  19
HETATM   19  N   UNL     1      43.464 -15.456   7.459  1.00  0.00    -0.153 NA
HETATM   20  C   UNL     1      43.292 -16.773   7.781  1.00  0.00     0.317 C 
HETATM   21  N   UNL     1      42.726 -17.655   6.924  1.00  0.00    -0.312 N 
HETATM   22  O   UNL     1      43.570 -17.131   8.928  1.00  0.00    -0.252 OA
HETATM   23  H   UNL     1      42.415 -18.487   7.414  1.00  0.00     0.170 HD
HETATM   24  H   UNL     1      43.672 -14.971   8.327  1.00  0.00     0.157 HD
BRANCH  21  25
HETATM   25  C   UNL     1      42.656 -17.731   5.522  1.00  0.00     0.035 A 
HETATM   26  C   UNL     1      41.496 -17.499   4.783  1.00  0.00     0.029 A 
HETATM   27  C   UNL     1      41.521 -17.588   3.388  1.00  0.00     0.002 A 
HETATM   28  C   UNL     1      42.709 -17.890   2.722  1.00  0.00     0.000 A 
HETATM   29  C   UNL     1      43.877 -18.090   3.450  1.00  0.00     0.002 A 
HETATM   30  C   UNL     1      43.852 -18.001   4.844  1.00  0.00     0.029 A 
ENDBRANCH  21  25
ENDBRANCH  17  19
ENDBRANCH   1  17
TORSDOF 8
ENDMDL
MODEL 6
REMARK VINA RESULT:      -7.5      3.804      5.767
REMARK  8 active torsions:
REMARK  status: ('A' for Active; 'I' for Inactive)
REMARK    1  A    between atoms: O_2  and  C_3 
REMARK    2  A    between atoms: C_4  and  O_5 
REMARK    3  A    between atoms: O_5  and  C_6 
REMARK    4  A    between atoms: C_6  and  C_7 
REMARK       I    between atoms: C_7  and  N_8 
REMARK    5  A    between atoms: N_8  and  C_9 
REMARK    6  A    between atoms: C_9  and  N_10 
REMARK    7  A    between atoms: N_10  and  N_11 
REMARK       I    between atoms: N_11  and  C_12 
REMARK       I    between atoms: C_12  and  N_13 
REMARK    8  A    between atoms: N_13  and  C_14 
ROOT
HETATM    1  C   UNL     1      43.608 -14.759   5.831  1.00  0.00     0.189 C 
HETATM    2  S   UNL     1      44.738 -14.323   6.976  1.00  0.00    -0.039 SA
ENDROOT
BRANCH   1   3
HETATM    3  N   UNL     1      43.051 -16.011   5.633  1.00  0.00    -0.301 N 
HETATM    4  C   UNL     1      41.723 -16.350   5.353  1.00  0.00     0.248 C 
HETATM    5  O   UNL     1      40.742 -15.767   5.802  1.00  0.00    -0.271 OA
HETATM    6  H   UNL     1      43.731 -16.742   5.514  1.00  0.00     0.171 HD
BRANCH   4   7
HETATM    7  C   UNL     1      41.630 -17.600   4.468  1.00  0.00     0.278 C 
BRANCH   7   8
HETATM    8  O   UNL     1      42.681 -17.647   3.519  1.00  0.00    -0.339 OA
BRANCH   8   9
HETATM    9  C   UNL     1      43.271 -18.851   3.252  1.00  0.00     0.102 A 
HETATM   10  C   UNL     1      44.230 -19.341   4.159  1.00  0.00     0.101 A 
HETATM   11  C   UNL     1      44.881 -20.554   3.888  1.00  0.00     0.039 A 
HETATM   12  C   UNL     1      44.586 -21.292   2.744  1.00  0.00     0.003 A 
HETATM   13  C   UNL     1      43.638 -20.814   1.848  1.00  0.00     0.003 A 
HETATM   14  C   UNL     1      42.993 -19.599   2.096  1.00  0.00     0.039 A 
BRANCH  10  15
HETATM   15  O   UNL     1      44.664 -18.773   5.330  1.00  0.00    -0.353 OA
HETATM   16  C   UNL     1      44.184 -19.297   6.560  1.00  0.00     0.210 C 
ENDBRANCH  10  15
ENDBRANCH   8   9
ENDBRANCH   7   8
ENDBRANCH   4   7
ENDBRANCH   1   3
BRANCH   1  17
HETATM   17  N   UNL     1      43.115 -13.771   5.004  1.00  0.00    -0.289 N 
HETATM   18  H   UNL     1      43.236 -13.901   3.999  1.00  0.00     0.183 HD
BRANCH  17  19
HETATM   19  N   UNL     1      42.172 -12.808   5.422  1.00  0.00    -0.153 NA
HETATM   20  C   UNL     1      41.631 -11.947   4.509  1.00  0.00     0.317 C 
HETATM   21  N   UNL     1      41.403 -12.311   3.225  1.00  0.00    -0.312 N 
HETATM   22  O   UNL     1      41.448 -10.778   4.853  1.00  0.00    -0.252 OA
HETATM   23  H   UNL     1      41.283 -11.494   2.635  1.00  0.00     0.170 HD
HETATM   24  H   UNL     1      42.463 -12.244   6.215  1.00  0.00     0.157 HD
BRANCH  21  25
HETATM   25  C   UNL     1      41.122 -13.539   2.604  1.00  0.00     0.035 A 
HETATM   26  C   UNL     1      39.932 -14.247   2.770  1.00  0.00     0.029 A 
HETATM   27  C   UNL     1      39.735 -15.460   2.104  1.00  0.00     0.002 A 
HETATM   28  C   UNL     1      40.719 -15.964   1.253  1.00  0.00     0.000 A 
HETATM   29  C   UNL     1      41.895 -15.249   1.057  1.00  0.00     0.002 A 
HETATM   30  C   UNL     1      42.091 -14.037   1.723  1.00  0.00     0.029 A 
ENDBRANCH  21  25
ENDBRANCH  17  19
ENDBRANCH   1  17
TORSDOF 8
ENDMDL
MODEL 7
REMARK VINA RESULT:      -7.5      6.017      9.157
REMARK  8 active torsions:
REMARK  status: ('A' for Active; 'I' for Inactive)
REMARK    1  A    between atoms: O_2  and  C_3 
REMARK    2  A    between atoms: C_4  and  O_5 
REMARK    3  A    between atoms: O_5  and  C_6 
REMARK    4  A    between atoms: C_6  and  C_7 
REMARK       I    between atoms: C_7  and  N_8 
REMARK    5  A    between atoms: N_8  and  C_9 
REMARK    6  A    between atoms: C_9  and  N_10 
REMARK    7  A    between atoms: N_10  and  N_11 
REMARK       I    between atoms: N_11  and  C_12 
REMARK       I    between atoms: C_12  and  N_13 
REMARK    8  A    between atoms: N_13  and  C_14 
ROOT
HETATM    1  C   UNL     1      39.627 -15.045   2.286  1.00  0.00     0.189 C 
HETATM    2  S   UNL     1      39.785 -13.552   3.010  1.00  0.00    -0.039 SA
ENDROOT
BRANCH   1   3
HETATM    3  N   UNL     1      40.163 -16.248   2.713  1.00  0.00    -0.301 N 
HETATM    4  C   UNL     1      41.272 -16.944   2.219  1.00  0.00     0.248 C 
HETATM    5  O   UNL     1      41.601 -16.990   1.039  1.00  0.00    -0.271 OA
HETATM    6  H   UNL     1      39.797 -16.562   3.595  1.00  0.00     0.171 HD
BRANCH   4   7
HETATM    7  C   UNL     1      41.997 -17.717   3.329  1.00  0.00     0.278 C 
BRANCH   7   8
HETATM    8  O   UNL     1      43.315 -18.068   2.945  1.00  0.00    -0.339 OA
BRANCH   8   9
HETATM    9  C   UNL     1      43.655 -19.392   2.902  1.00  0.00     0.102 A 
HETATM   10  C   UNL     1      44.412 -19.922   3.963  1.00  0.00     0.101 A 
HETATM   11  C   UNL     1      44.810 -21.268   3.923  1.00  0.00     0.039 A 
HETATM   12  C   UNL     1      44.456 -22.094   2.858  1.00  0.00     0.003 A 
HETATM   13  C   UNL     1      43.706 -21.575   1.810  1.00  0.00     0.003 A 
HETATM   14  C   UNL     1      43.317 -20.232   1.828  1.00  0.00     0.039 A 
BRANCH  10  15
HETATM   15  O   UNL     1      44.863 -19.284   5.091  1.00  0.00    -0.353 OA
HETATM   16  C   UNL     1      44.024 -19.255   6.237  1.00  0.00     0.210 C 
ENDBRANCH  10  15
ENDBRANCH   8   9
ENDBRANCH   7   8
ENDBRANCH   4   7
ENDBRANCH   1   3
BRANCH   1  17
HETATM   17  N   UNL     1      38.838 -15.133   1.158  1.00  0.00    -0.289 N 
HETATM   18  H   UNL     1      39.032 -15.900   0.511  1.00  0.00     0.183 HD
BRANCH  17  19
HETATM   19  N   UNL     1      37.595 -14.478   1.027  1.00  0.00    -0.153 NA
HETATM   20  C   UNL     1      37.499 -13.355   0.254  1.00  0.00     0.317 C 
HETATM   21  N   UNL     1      38.248 -13.182  -0.861  1.00  0.00    -0.312 N 
HETATM   22  O   UNL     1      36.780 -12.436   0.654  1.00  0.00    -0.252 OA
HETATM   23  H   UNL     1      38.267 -12.205  -1.134  1.00  0.00     0.170 HD
HETATM   24  H   UNL     1      37.132 -14.266   1.905  1.00  0.00     0.157 HD
BRANCH  21  25
HETATM   25  C   UNL     1      38.824 -14.070  -1.784  1.00  0.00     0.035 A 
HETATM   26  C   UNL     1      40.155 -14.485  -1.746  1.00  0.00     0.029 A 
HETATM   27  C   UNL     1      40.642 -15.380  -2.703  1.00  0.00     0.002 A 
HETATM   28  C   UNL     1      39.797 -15.881  -3.693  1.00  0.00     0.000 A 
HETATM   29  C   UNL     1      38.461 -15.497  -3.719  1.00  0.00     0.002 A 
HETATM   30  C   UNL     1      37.975 -14.603  -2.763  1.00  0.00     0.029 A 
ENDBRANCH  21  25
ENDBRANCH  17  19
ENDBRANCH   1  17
TORSDOF 8
ENDMDL
MODEL 8
REMARK VINA RESULT:      -7.3      2.465      3.335
REMARK  8 active torsions:
REMARK  status: ('A' for Active; 'I' for Inactive)
REMARK    1  A    between atoms: O_2  and  C_3 
REMARK    2  A    between atoms: C_4  and  O_5 
REMARK    3  A    between atoms: O_5  and  C_6 
REMARK    4  A    between atoms: C_6  and  C_7 
REMARK       I    between atoms: C_7  and  N_8 
REMARK    5  A    between atoms: N_8  and  C_9 
REMARK    6  A    between atoms: C_9  and  N_10 
REMARK    7  A    between atoms: N_10  and  N_11 
REMARK       I    between atoms: N_11  and  C_12 
REMARK       I    between atoms: C_12  and  N_13 
REMARK    8  A    between atoms: N_13  and  C_14 
ROOT
HETATM    1  C   UNL     1      44.622 -12.692   8.346  1.00  0.00     0.189 C 
HETATM    2  S   UNL     1      46.204 -12.182   8.465  1.00  0.00    -0.039 SA
ENDROOT
BRANCH   1   3
HETATM    3  N   UNL     1      44.157 -13.867   7.782  1.00  0.00    -0.301 N 
HETATM    4  C   UNL     1      43.580 -14.072   6.524  1.00  0.00     0.248 C 
HETATM    5  O   UNL     1      42.844 -13.275   5.952  1.00  0.00    -0.271 OA
HETATM    6  H   UNL     1      44.428 -14.693   8.286  1.00  0.00     0.171 HD
BRANCH   4   7
HETATM    7  C   UNL     1      43.915 -15.462   5.965  1.00  0.00     0.278 C 
BRANCH   7   8
HETATM    8  O   UNL     1      42.872 -15.963   5.148  1.00  0.00    -0.339 OA
BRANCH   8   9
HETATM    9  C   UNL     1      43.197 -16.748   4.076  1.00  0.00     0.102 A 
HETATM   10  C   UNL     1      43.213 -18.144   4.252  1.00  0.00     0.101 A 
HETATM   11  C   UNL     1      43.584 -18.971   3.180  1.00  0.00     0.039 A 
HETATM   12  C   UNL     1      43.921 -18.437   1.939  1.00  0.00     0.003 A 
HETATM   13  C   UNL     1      43.903 -17.059   1.760  1.00  0.00     0.003 A 
HETATM   14  C   UNL     1      43.552 -16.222   2.823  1.00  0.00     0.039 A 
BRANCH  10  15
HETATM   15  O   UNL     1      42.922 -18.865   5.383  1.00  0.00    -0.353 OA
HETATM   16  C   UNL     1      43.987 -19.237   6.246  1.00  0.00     0.210 C 
ENDBRANCH  10  15
ENDBRANCH   8   9
ENDBRANCH   7   8
ENDBRANCH   4   7
ENDBRANCH   1   3
BRANCH   1  17
HETATM   17  N   UNL     1      43.645 -11.898   8.910  1.00  0.00    -0.289 N 
HETATM   18  H   UNL     1      43.725 -11.696   9.908  1.00  0.00     0.183 HD
BRANCH  17  19
HETATM   19  N   UNL     1      42.777 -11.080   8.155  1.00  0.00    -0.153 NA
HETATM   20  C   UNL     1      41.485 -10.903   8.564  1.00  0.00     0.317 C 
HETATM   21  N   UNL     1      41.141 -10.879   9.873  1.00  0.00    -0.312 N 
HETATM   22  O   UNL     1      40.604 -10.869   7.701  1.00  0.00    -0.252 OA
HETATM   23  H   UNL     1      40.145 -11.032   9.987  1.00  0.00     0.170 HD
HETATM   24  H   UNL     1      42.740 -11.302   7.165  1.00  0.00     0.157 HD
BRANCH  21  25
HETATM   25  C   UNL     1      41.825 -10.512  11.044  1.00  0.00     0.035 A 
HETATM   26  C   UNL     1      42.143 -11.396  12.075  1.00  0.00     0.029 A 
HETATM   27  C   UNL     1      42.835 -10.944  13.202  1.00  0.00     0.002 A 
HETATM   28  C   UNL     1      43.229  -9.609  13.299  1.00  0.00     0.000 A 
HETATM   29  C   UNL     1      42.944  -8.728  12.261  1.00  0.00     0.002 A 
HETATM   30  C   UNL     1      42.253  -9.180  11.135  1.00  0.00     0.029 A 
ENDBRANCH  21  25
ENDBRANCH  17  19
ENDBRANCH   1  17
TORSDOF 8
ENDMDL
MODEL 9
REMARK VINA RESULT:      -7.3      2.256      8.877
REMARK  8 active torsions:
REMARK  status: ('A' for Active; 'I' for Inactive)
REMARK    1  A    between atoms: O_2  and  C_3 
REMARK    2  A    between atoms: C_4  and  O_5 
REMARK    3  A    between atoms: O_5  and  C_6 
REMARK    4  A    between atoms: C_6  and  C_7 
REMARK       I    between atoms: C_7  and  N_8 
REMARK    5  A    between atoms: N_8  and  C_9 
REMARK    6  A    between atoms: C_9  and  N_10 
REMARK    7  A    between atoms: N_10  and  N_11 
REMARK       I    between atoms: N_11  and  C_12 
REMARK       I    between atoms: C_12  and  N_13 
REMARK    8  A    between atoms: N_13  and  C_14 
ROOT
HETATM    1  C   UNL     1      42.819 -13.764   5.583  1.00  0.00     0.189 C 
HETATM    2  S   UNL     1      42.177 -12.888   4.320  1.00  0.00    -0.039 SA
ENDROOT
BRANCH   1   3
HETATM    3  N   UNL     1      43.183 -13.294   6.834  1.00  0.00    -0.301 N 
HETATM    4  C   UNL     1      44.267 -13.670   7.635  1.00  0.00     0.248 C 
HETATM    5  O   UNL     1      44.720 -14.807   7.713  1.00  0.00    -0.271 OA
HETATM    6  H   UNL     1      42.692 -12.462   7.112  1.00  0.00     0.171 HD
BRANCH   4   7
HETATM    7  C   UNL     1      44.784 -12.496   8.477  1.00  0.00     0.278 C 
BRANCH   7   8
HETATM    8  O   UNL     1      43.888 -11.399   8.450  1.00  0.00    -0.339 OA
BRANCH   8   9
HETATM    9  C   UNL     1      43.531 -10.813   9.633  1.00  0.00     0.102 A 
HETATM   10  C   UNL     1      42.319 -10.100   9.687  1.00  0.00     0.101 A 
HETATM   11  C   UNL     1      41.950  -9.454  10.877  1.00  0.00     0.039 A 
HETATM   12  C   UNL     1      42.753  -9.520  12.014  1.00  0.00     0.003 A 
HETATM   13  C   UNL     1      43.948 -10.226  11.966  1.00  0.00     0.003 A 
HETATM   14  C   UNL     1      44.338 -10.860  10.782  1.00  0.00     0.039 A 
BRANCH  10  15
HETATM   15  O   UNL     1      41.396  -9.911   8.690  1.00  0.00    -0.353 OA
HETATM   16  C   UNL     1      40.293 -10.803   8.606  1.00  0.00     0.210 C 
ENDBRANCH  10  15
ENDBRANCH   8   9
ENDBRANCH   7   8
ENDBRANCH   4   7
ENDBRANCH   1   3
BRANCH   1  17
HETATM   17  N   UNL     1      42.971 -15.125   5.412  1.00  0.00    -0.289 N 
HETATM   18  H   UNL     1      43.790 -15.441   4.890  1.00  0.00     0.183 HD
BRANCH  17  19
HETATM   19  N   UNL     1      42.292 -16.085   6.191  1.00  0.00    -0.153 NA
HETATM   20  C   UNL     1      41.167 -16.686   5.698  1.00  0.00     0.317 C 
HETATM   21  N   UNL     1      41.009 -16.945   4.379  1.00  0.00    -0.312 N 
HETATM   22  O   UNL     1      40.235 -16.897   6.477  1.00  0.00    -0.252 OA
HETATM   23  H   UNL     1      40.033 -17.112   4.158  1.00  0.00     0.170 HD
HETATM   24  H   UNL     1      42.070 -15.787   7.136  1.00  0.00     0.157 HD
BRANCH  21  25
HETATM   25  C   UNL     1      41.908 -17.204   3.331  1.00  0.00     0.035 A 
HETATM   26  C   UNL     1      42.074 -16.378   2.219  1.00  0.00     0.029 A 
HETATM   27  C   UNL     1      43.001 -16.712   1.227  1.00  0.00     0.002 A 
HETATM   28  C   UNL     1      43.781 -17.861   1.348  1.00  0.00     0.000 A 
HETATM   29  C   UNL     1      43.644 -18.673   2.469  1.00  0.00     0.002 A 
HETATM   30  C   UNL     1      42.718 -18.340   3.460  1.00  0.00     0.029 A 
ENDBRANCH  21  25
ENDBRANCH  17  19
ENDBRANCH   1  17
TORSDOF 8
ENDMDL
MODEL 10
REMARK VINA RESULT:      -7.2      3.694      5.441
REMARK  8 active torsions:
REMARK  status: ('A' for Active; 'I' for Inactive)
REMARK    1  A    between atoms: O_2  and  C_3 
REMARK    2  A    between atoms: C_4  and  O_5 
REMARK    3  A    between atoms: O_5  and  C_6 
REMARK    4  A    between atoms: C_6  and  C_7 
REMARK       I    between atoms: C_7  and  N_8 
REMARK    5  A    between atoms: N_8  and  C_9 
REMARK    6  A    between atoms: C_9  and  N_10 
REMARK    7  A    between atoms: N_10  and  N_11 
REMARK       I    between atoms: N_11  and  C_12 
REMARK       I    between atoms: C_12  and  N_13 
REMARK    8  A    between atoms: N_13  and  C_14 
ROOT
HETATM    1  C   UNL     1      43.680 -15.231   6.314  1.00  0.00     0.189 C 
HETATM    2  S   UNL     1      44.499 -13.862   6.796  1.00  0.00    -0.039 SA
ENDROOT
BRANCH   1   3
HETATM    3  N   UNL     1      44.018 -16.548   6.572  1.00  0.00    -0.301 N 
HETATM    4  C   UNL     1      43.187 -17.618   6.923  1.00  0.00     0.248 C 
HETATM    5  O   UNL     1      42.191 -17.528   7.633  1.00  0.00    -0.271 OA
HETATM    6  H   UNL     1      44.958 -16.784   6.306  1.00  0.00     0.171 HD
BRANCH   4   7
HETATM    7  C   UNL     1      43.715 -18.951   6.375  1.00  0.00     0.278 C 
BRANCH   7   8
HETATM    8  O   UNL     1      44.525 -18.759   5.228  1.00  0.00    -0.339 OA
BRANCH   8   9
HETATM    9  C   UNL     1      44.289 -19.530   4.122  1.00  0.00     0.102 A 
HETATM   10  C   UNL     1      43.441 -19.020   3.122  1.00  0.00     0.101 A 
HETATM   11  C   UNL     1      43.149 -19.807   1.997  1.00  0.00     0.039 A 
HETATM   12  C   UNL     1      43.697 -21.079   1.844  1.00  0.00     0.003 A 
HETATM   13  C   UNL     1      44.537 -21.584   2.828  1.00  0.00     0.003 A 
HETATM   14  C   UNL     1      44.824 -20.819   3.962  1.00  0.00     0.039 A 
BRANCH  10  15
HETATM   15  O   UNL     1      42.803 -17.806   3.082  1.00  0.00    -0.353 OA
HETATM   16  C   UNL     1      41.557 -17.670   3.751  1.00  0.00     0.210 C 
ENDBRANCH  10  15
ENDBRANCH   8   9
ENDBRANCH   7   8
ENDBRANCH   4   7
ENDBRANCH   1   3
BRANCH   1  17
HETATM   17  N   UNL     1      42.499 -15.064   5.620  1.00  0.00    -0.289 N 
HETATM   18  H   UNL     1      42.440 -15.484   4.691  1.00  0.00     0.183 HD
BRANCH  17  19
HETATM   19  N   UNL     1      41.288 -14.677   6.231  1.00  0.00    -0.153 NA
HETATM   20  C   UNL     1      40.625 -13.569   5.783  1.00  0.00     0.317 C 
HETATM   21  N   UNL     1      40.639 -13.200   4.481  1.00  0.00    -0.312 N 
HETATM   22  O   UNL     1      40.089 -12.838   6.618  1.00  0.00    -0.252 OA
HETATM   23  H   UNL     1      40.358 -12.230   4.378  1.00  0.00     0.170 HD
HETATM   24  H   UNL     1      41.328 -14.602   7.243  1.00  0.00     0.157 HD
BRANCH  21  25
HETATM   25  C   UNL     1      40.777 -13.910   3.276  1.00  0.00     0.035 A 
HETATM   26  C   UNL     1      41.966 -14.002   2.553  1.00  0.00     0.029 A 
HETATM   27  C   UNL     1      42.013 -14.739   1.366  1.00  0.00     0.002 A 
HETATM   28  C   UNL     1      40.878 -15.406   0.906  1.00  0.00     0.000 A 
HETATM   29  C   UNL     1      39.697 -15.346   1.638  1.00  0.00     0.002 A 
HETATM   30  C   UNL     1      39.650 -14.609   2.823  1.00  0.00     0.029 A 
ENDBRANCH  21  25
ENDBRANCH  17  19
ENDBRANCH   1  17
TORSDOF 8
ENDMDL
