MODEL 1
REMARK VINA RESULT:      -8.2      0.000      0.000
REMARK  5 active torsions:
REMARK  status: ('A' for Active; 'I' for Inactive)
REMARK    1  A    between atoms: C_2  and  C_3 
REMARK    2  A    between atoms: C_6  and  C_7 
REMARK    3  A    between atoms: C_7  and  C_8 
REMARK       I    between atoms: C_8  and  N_9 
REMARK    4  A    between atoms: N_9  and  C_10 
REMARK    5  A    between atoms: C_17  and  C_18 
REMARK       I    between atoms: C_18  and  N_19 
ROOT
HETATM    1  C   UNL     1      41.369 -16.151   5.601  1.00  0.00     0.035 A 
HETATM    2  C   UNL     1      41.516 -16.512   4.253  1.00  0.00     0.046 A 
HETATM    3  C   UNL     1      40.821 -15.790   3.259  1.00  0.00     0.030 A 
HETATM    4  C   UNL     1      40.027 -14.716   3.642  1.00  0.00     0.063 A 
HETATM    5  N   UNL     1      39.489 -14.232   2.482  1.00  0.00    -0.277 N 
HETATM    6  H   UNL     1      38.855 -13.447   2.380  1.00  0.00     0.189 HD
HETATM    7  N   UNL     1      39.846 -14.907   1.377  1.00  0.00    -0.168 NA
HETATM    8  C   UNL     1      40.669 -15.875   1.842  1.00  0.00     0.156 A 
HETATM    9  C   UNL     1      39.877 -14.314   4.971  1.00  0.00     0.034 A 
HETATM   10  C   UNL     1      40.558 -15.063   5.941  1.00  0.00     0.032 A 
ENDROOT
BRANCH   1  11
HETATM   11  N   UNL     1      41.931 -16.896   6.660  1.00  0.00    -0.327 N 
HETATM   12  C   UNL     1      43.197 -16.744   7.200  1.00  0.00     0.226 C 
HETATM   13  O   UNL     1      43.901 -15.742   7.111  1.00  0.00    -0.273 OA
HETATM   14  H   UNL     1      41.348 -17.617   7.068  1.00  0.00     0.169 HD
BRANCH  12  15
HETATM   15  C   UNL     1      43.691 -17.997   7.904  1.00  0.00     0.141 C 
BRANCH  15  16
HETATM   16  C   UNL     1      44.081 -19.140   7.005  1.00  0.00    -0.049 A 
HETATM   17  C   UNL     1      43.703 -20.450   7.331  1.00  0.00     0.008 A 
HETATM   18  C   UNL     1      43.942 -21.504   6.445  1.00  0.00     0.007 A 
HETATM   19  C   UNL     1      44.550 -21.270   5.206  1.00  0.00    -0.059 A 
HETATM   20  C   UNL     1      44.952 -19.967   4.890  1.00  0.00     0.007 A 
HETATM   21  C   UNL     1      44.719 -18.913   5.779  1.00  0.00     0.008 A 
BRANCH  19  22
HETATM   22  C   UNL     1      44.754 -22.396   4.223  1.00  0.00     0.034 C 
HETATM   23  C   UNL     1      44.405 -21.998   2.794  1.00  0.00     0.010 C 
ENDBRANCH  19  22
ENDBRANCH  15  16
ENDBRANCH  12  15
ENDBRANCH   1  11
BRANCH   8  24
HETATM   24  C   UNL     1      41.270 -16.865   0.935  1.00  0.00     0.270 C 
HETATM   25  N   UNL     1      42.169 -16.336   0.048  1.00  0.00    -0.365 N 
HETATM   26  H   UNL     1      42.339 -15.337   0.067  1.00  0.00     0.159 HD
HETATM   27  H   UNL     1      42.615 -16.936  -0.625  1.00  0.00     0.159 HD
HETATM   28  O   UNL     1      41.006 -18.062   0.931  1.00  0.00    -0.266 OA
ENDBRANCH   8  24
TORSDOF 5
ENDMDL
MODEL 2
REMARK VINA RESULT:      -8.2      3.310      4.476
REMARK  5 active torsions:
REMARK  status: ('A' for Active; 'I' for Inactive)
REMARK    1  A    between atoms: C_2  and  C_3 
REMARK    2  A    between atoms: C_6  and  C_7 
REMARK    3  A    between atoms: C_7  and  C_8 
REMARK       I    between atoms: C_8  and  N_9 
REMARK    4  A    between atoms: N_9  and  C_10 
REMARK    5  A    between atoms: C_17  and  C_18 
REMARK       I    between atoms: C_18  and  N_19 
ROOT
HETATM    1  C   UNL     1      40.424 -14.451   1.468  1.00  0.00     0.035 A 
HETATM    2  C   UNL     1      40.869 -14.435   0.137  1.00  0.00     0.046 A 
HETATM    3  C   UNL     1      39.940 -14.233  -0.906  1.00  0.00     0.030 A 
HETATM    4  C   UNL     1      38.605 -14.025  -0.584  1.00  0.00     0.063 A 
HETATM    5  N   UNL     1      37.963 -13.870  -1.781  1.00  0.00    -0.277 N 
HETATM    6  H   UNL     1      36.974 -13.702  -1.931  1.00  0.00     0.189 HD
HETATM    7  N   UNL     1      38.758 -13.979  -2.858  1.00  0.00    -0.168 NA
HETATM    8  C   UNL     1      39.985 -14.205  -2.333  1.00  0.00     0.156 A 
HETATM    9  C   UNL     1      38.131 -14.009   0.730  1.00  0.00     0.034 A 
HETATM   10  C   UNL     1      39.069 -14.237   1.746  1.00  0.00     0.032 A 
ENDROOT
BRANCH   1  11
HETATM   11  N   UNL     1      41.266 -14.767   2.555  1.00  0.00    -0.327 N 
HETATM   12  C   UNL     1      42.501 -14.208   2.837  1.00  0.00     0.226 C 
HETATM   13  O   UNL     1      42.913 -13.127   2.424  1.00  0.00    -0.273 OA
HETATM   14  H   UNL     1      40.934 -15.477   3.196  1.00  0.00     0.169 HD
BRANCH  12  15
HETATM   15  C   UNL     1      43.371 -15.106   3.701  1.00  0.00     0.141 C 
BRANCH  15  16
HETATM   16  C   UNL     1      43.518 -16.527   3.224  1.00  0.00    -0.049 A 
HETATM   17  C   UNL     1      43.228 -17.592   4.089  1.00  0.00     0.008 A 
HETATM   18  C   UNL     1      43.233 -18.910   3.625  1.00  0.00     0.007 A 
HETATM   19  C   UNL     1      43.511 -19.193   2.282  1.00  0.00    -0.059 A 
HETATM   20  C   UNL     1      43.828 -18.133   1.424  1.00  0.00     0.007 A 
HETATM   21  C   UNL     1      43.829 -16.815   1.889  1.00  0.00     0.008 A 
BRANCH  19  22
HETATM   22  C   UNL     1      43.458 -20.610   1.767  1.00  0.00     0.034 C 
HETATM   23  C   UNL     1      44.459 -21.525   2.463  1.00  0.00     0.010 C 
ENDBRANCH  19  22
ENDBRANCH  15  16
ENDBRANCH  12  15
ENDBRANCH   1  11
BRANCH   8  24
HETATM   24  C   UNL     1      41.157 -14.409  -3.196  1.00  0.00     0.270 C 
HETATM   25  N   UNL     1      41.754 -13.249  -3.611  1.00  0.00    -0.365 N 
HETATM   26  H   UNL     1      41.353 -12.365  -3.320  1.00  0.00     0.159 HD
HETATM   27  H   UNL     1      42.552 -13.291  -4.223  1.00  0.00     0.159 HD
HETATM   28  O   UNL     1      41.586 -15.502  -3.548  1.00  0.00    -0.266 OA
ENDBRANCH   8  24
TORSDOF 5
ENDMDL
MODEL 3
REMARK VINA RESULT:      -7.9      3.487      4.980
REMARK  5 active torsions:
REMARK  status: ('A' for Active; 'I' for Inactive)
REMARK    1  A    between atoms: C_2  and  C_3 
REMARK    2  A    between atoms: C_6  and  C_7 
REMARK    3  A    between atoms: C_7  and  C_8 
REMARK       I    between atoms: C_8  and  N_9 
REMARK    4  A    between atoms: N_9  and  C_10 
REMARK    5  A    between atoms: C_17  and  C_18 
REMARK       I    between atoms: C_18  and  N_19 
ROOT
HETATM    1  C   UNL     1      41.723 -14.639  -0.115  1.00  0.00     0.035 A 
HETATM    2  C   UNL     1      40.914 -15.067  -1.179  1.00  0.00     0.046 A 
HETATM    3  C   UNL     1      40.080 -14.138  -1.838  1.00  0.00     0.030 A 
HETATM    4  C   UNL     1      40.104 -12.810  -1.432  1.00  0.00     0.063 A 
HETATM    5  N   UNL     1      39.204 -12.169  -2.237  1.00  0.00    -0.277 N 
HETATM    6  H   UNL     1      38.959 -11.185  -2.223  1.00  0.00     0.189 HD
HETATM    7  N   UNL     1      38.579 -12.965  -3.120  1.00  0.00    -0.168 NA
HETATM    8  C   UNL     1      39.110 -14.188  -2.884  1.00  0.00     0.156 A 
HETATM    9  C   UNL     1      40.915 -12.344  -0.395  1.00  0.00     0.034 A 
HETATM   10  C   UNL     1      41.715 -13.290   0.261  1.00  0.00     0.032 A 
ENDROOT
BRANCH   1  11
HETATM   11  N   UNL     1      42.490 -15.526   0.671  1.00  0.00    -0.327 N 
HETATM   12  C   UNL     1      42.190 -15.971   1.948  1.00  0.00     0.226 C 
HETATM   13  O   UNL     1      41.078 -15.969   2.468  1.00  0.00    -0.273 OA
HETATM   14  H   UNL     1      43.347 -15.872   0.260  1.00  0.00     0.169 HD
BRANCH  12  15
HETATM   15  C   UNL     1      43.418 -16.439   2.711  1.00  0.00     0.141 C 
BRANCH  15  16
HETATM   16  C   UNL     1      43.580 -17.931   2.837  1.00  0.00    -0.049 A 
HETATM   17  C   UNL     1      43.334 -18.759   1.734  1.00  0.00     0.008 A 
HETATM   18  C   UNL     1      43.603 -20.129   1.795  1.00  0.00     0.007 A 
HETATM   19  C   UNL     1      44.140 -20.699   2.956  1.00  0.00    -0.059 A 
HETATM   20  C   UNL     1      44.360 -19.878   4.068  1.00  0.00     0.007 A 
HETATM   21  C   UNL     1      44.085 -18.508   4.009  1.00  0.00     0.008 A 
BRANCH  19  22
HETATM   22  C   UNL     1      44.487 -22.167   3.003  1.00  0.00     0.034 C 
HETATM   23  C   UNL     1      44.700 -22.673   4.425  1.00  0.00     0.010 C 
ENDBRANCH  19  22
ENDBRANCH  15  16
ENDBRANCH  12  15
ENDBRANCH   1  11
BRANCH   8  24
HETATM   24  C   UNL     1      38.668 -15.369  -3.640  1.00  0.00     0.270 C 
HETATM   25  N   UNL     1      37.387 -15.763  -3.361  1.00  0.00    -0.365 N 
HETATM   26  H   UNL     1      36.859 -15.245  -2.669  1.00  0.00     0.159 HD
HETATM   27  H   UNL     1      37.006 -16.576  -3.818  1.00  0.00     0.159 HD
HETATM   28  O   UNL     1      39.358 -15.982  -4.446  1.00  0.00    -0.266 OA
ENDBRANCH   8  24
TORSDOF 5
ENDMDL
MODEL 4
REMARK VINA RESULT:      -7.8      4.024      5.894
REMARK  5 active torsions:
REMARK  status: ('A' for Active; 'I' for Inactive)
REMARK    1  A    between atoms: C_2  and  C_3 
REMARK    2  A    between atoms: C_6  and  C_7 
REMARK    3  A    between atoms: C_7  and  C_8 
REMARK       I    between atoms: C_8  and  N_9 
REMARK    4  A    between atoms: N_9  and  C_10 
REMARK    5  A    between atoms: C_17  and  C_18 
REMARK       I    between atoms: C_18  and  N_19 
ROOT
HETATM    1  C   UNL     1      41.155 -15.085  -0.881  1.00  0.00     0.035 A 
HETATM    2  C   UNL     1      41.555 -13.748  -0.739  1.00  0.00     0.046 A 
HETATM    3  C   UNL     1      41.841 -12.980  -1.888  1.00  0.00     0.030 A 
HETATM    4  C   UNL     1      41.688 -13.564  -3.140  1.00  0.00     0.063 A 
HETATM    5  N   UNL     1      42.039 -12.593  -4.036  1.00  0.00    -0.277 N 
HETATM    6  H   UNL     1      42.049 -12.666  -5.048  1.00  0.00     0.189 HD
HETATM    7  N   UNL     1      42.425 -11.433  -3.481  1.00  0.00    -0.168 NA
HETATM    8  C   UNL     1      42.309 -11.657  -2.151  1.00  0.00     0.156 A 
HETATM    9  C   UNL     1      41.268 -14.883  -3.319  1.00  0.00     0.034 A 
HETATM   10  C   UNL     1      41.015 -15.633  -2.162  1.00  0.00     0.032 A 
ENDROOT
BRANCH   1  11
HETATM   11  N   UNL     1      40.971 -15.953   0.217  1.00  0.00    -0.327 N 
HETATM   12  C   UNL     1      41.962 -16.531   0.991  1.00  0.00     0.226 C 
HETATM   13  O   UNL     1      43.118 -16.131   1.096  1.00  0.00    -0.273 OA
HETATM   14  H   UNL     1      40.015 -16.176   0.464  1.00  0.00     0.169 HD
BRANCH  12  15
HETATM   15  C   UNL     1      41.496 -17.794   1.697  1.00  0.00     0.141 C 
BRANCH  15  16
HETATM   16  C   UNL     1      42.557 -18.548   2.454  1.00  0.00    -0.049 A 
HETATM   17  C   UNL     1      42.739 -18.319   3.825  1.00  0.00     0.008 A 
HETATM   18  C   UNL     1      43.627 -19.101   4.568  1.00  0.00     0.007 A 
HETATM   19  C   UNL     1      44.342 -20.141   3.962  1.00  0.00    -0.059 A 
HETATM   20  C   UNL     1      44.182 -20.353   2.587  1.00  0.00     0.007 A 
HETATM   21  C   UNL     1      43.298 -19.567   1.842  1.00  0.00     0.008 A 
BRANCH  19  22
HETATM   22  C   UNL     1      45.255 -21.024   4.775  1.00  0.00     0.034 C 
HETATM   23  C   UNL     1      44.793 -22.476   4.803  1.00  0.00     0.010 C 
ENDBRANCH  19  22
ENDBRANCH  15  16
ENDBRANCH  12  15
ENDBRANCH   1  11
BRANCH   8  24
HETATM   24  C   UNL     1      42.666 -10.622  -1.170  1.00  0.00     0.270 C 
HETATM   25  N   UNL     1      41.675  -9.706  -0.940  1.00  0.00    -0.365 N 
HETATM   26  H   UNL     1      40.805  -9.792  -1.452  1.00  0.00     0.159 HD
HETATM   27  H   UNL     1      41.838  -8.948  -0.297  1.00  0.00     0.159 HD
HETATM   28  O   UNL     1      43.747 -10.542  -0.599  1.00  0.00    -0.266 OA
ENDBRANCH   8  24
TORSDOF 5
ENDMDL
MODEL 5
REMARK VINA RESULT:      -7.8      4.408      6.877
REMARK  5 active torsions:
REMARK  status: ('A' for Active; 'I' for Inactive)
REMARK    1  A    between atoms: C_2  and  C_3 
REMARK    2  A    between atoms: C_6  and  C_7 
REMARK    3  A    between atoms: C_7  and  C_8 
REMARK       I    between atoms: C_8  and  N_9 
REMARK    4  A    between atoms: N_9  and  C_10 
REMARK    5  A    between atoms: C_17  and  C_18 
REMARK       I    between atoms: C_18  and  N_19 
ROOT
HETATM    1  C   UNL     1      44.739 -14.078   7.282  1.00  0.00     0.035 A 
HETATM    2  C   UNL     1      44.124 -13.486   8.396  1.00  0.00     0.046 A 
HETATM    3  C   UNL     1      44.769 -12.425   9.066  1.00  0.00     0.030 A 
HETATM    4  C   UNL     1      45.990 -11.971   8.584  1.00  0.00     0.063 A 
HETATM    5  N   UNL     1      46.360 -10.962   9.429  1.00  0.00    -0.277 N 
HETATM    6  H   UNL     1      47.202 -10.399   9.382  1.00  0.00     0.189 HD
HETATM    7  N   UNL     1      45.497 -10.729  10.432  1.00  0.00    -0.168 NA
HETATM    8  C   UNL     1      44.507 -11.628  10.222  1.00  0.00     0.156 A 
HETATM    9  C   UNL     1      46.619 -12.518   7.464  1.00  0.00     0.034 A 
HETATM   10  C   UNL     1      45.971 -13.589   6.832  1.00  0.00     0.032 A 
ENDROOT
BRANCH   1  11
HETATM   11  N   UNL     1      44.220 -15.220   6.634  1.00  0.00    -0.327 N 
HETATM   12  C   UNL     1      43.502 -15.246   5.451  1.00  0.00     0.226 C 
HETATM   13  O   UNL     1      43.496 -14.367   4.593  1.00  0.00    -0.273 OA
HETATM   14  H   UNL     1      44.390 -16.112   7.081  1.00  0.00     0.169 HD
BRANCH  12  15
HETATM   15  C   UNL     1      42.640 -16.490   5.313  1.00  0.00     0.141 C 
BRANCH  15  16
HETATM   16  C   UNL     1      43.270 -17.644   4.578  1.00  0.00    -0.049 A 
HETATM   17  C   UNL     1      44.213 -18.456   5.223  1.00  0.00     0.008 A 
HETATM   18  C   UNL     1      44.709 -19.605   4.602  1.00  0.00     0.007 A 
HETATM   19  C   UNL     1      44.263 -19.977   3.329  1.00  0.00    -0.059 A 
HETATM   20  C   UNL     1      43.342 -19.152   2.672  1.00  0.00     0.007 A 
HETATM   21  C   UNL     1      42.849 -17.999   3.291  1.00  0.00     0.008 A 
BRANCH  19  22
HETATM   22  C   UNL     1      44.752 -21.249   2.682  1.00  0.00     0.034 C 
HETATM   23  C   UNL     1      43.827 -21.737   1.573  1.00  0.00     0.010 C 
ENDBRANCH  19  22
ENDBRANCH  15  16
ENDBRANCH  12  15
ENDBRANCH   1  11
BRANCH   8  24
HETATM   24  C   UNL     1      43.356 -11.720  11.132  1.00  0.00     0.270 C 
HETATM   25  N   UNL     1      42.162 -11.374  10.559  1.00  0.00    -0.365 N 
HETATM   26  H   UNL     1      42.157 -11.074   9.591  1.00  0.00     0.159 HD
HETATM   27  H   UNL     1      41.322 -11.388  11.114  1.00  0.00     0.159 HD
HETATM   28  O   UNL     1      43.419 -12.059  12.308  1.00  0.00    -0.266 OA
ENDBRANCH   8  24
TORSDOF 5
ENDMDL
MODEL 6
REMARK VINA RESULT:      -7.7      2.503      4.956
REMARK  5 active torsions:
REMARK  status: ('A' for Active; 'I' for Inactive)
REMARK    1  A    between atoms: C_2  and  C_3 
REMARK    2  A    between atoms: C_6  and  C_7 
REMARK    3  A    between atoms: C_7  and  C_8 
REMARK       I    between atoms: C_8  and  N_9 
REMARK    4  A    between atoms: N_9  and  C_10 
REMARK    5  A    between atoms: C_17  and  C_18 
REMARK       I    between atoms: C_18  and  N_19 
ROOT
HETATM    1  C   UNL     1      40.567 -14.159   1.857  1.00  0.00     0.035 A 
HETATM    2  C   UNL     1      40.572 -13.818   3.218  1.00  0.00     0.046 A 
HETATM    3  C   UNL     1      39.695 -12.818   3.690  1.00  0.00     0.030 A 
HETATM    4  C   UNL     1      38.822 -12.214   2.793  1.00  0.00     0.063 A 
HETATM    5  N   UNL     1      38.120 -11.302   3.529  1.00  0.00    -0.277 N 
HETATM    6  H   UNL     1      37.394 -10.675   3.201  1.00  0.00     0.189 HD
HETATM    7  N   UNL     1      38.470 -11.243   4.825  1.00  0.00    -0.168 NA
HETATM    8  C   UNL     1      39.444 -12.174   4.939  1.00  0.00     0.156 A 
HETATM    9  C   UNL     1      38.772 -12.546   1.437  1.00  0.00     0.034 A 
HETATM   10  C   UNL     1      39.671 -13.523   0.989  1.00  0.00     0.032 A 
ENDROOT
BRANCH   1  11
HETATM   11  N   UNL     1      41.494 -15.057   1.287  1.00  0.00    -0.327 N 
HETATM   12  C   UNL     1      41.501 -16.435   1.418  1.00  0.00     0.226 C 
HETATM   13  O   UNL     1      40.542 -17.133   1.736  1.00  0.00    -0.273 OA
HETATM   14  H   UNL     1      42.231 -14.652   0.724  1.00  0.00     0.169 HD
BRANCH  12  15
HETATM   15  C   UNL     1      42.873 -17.043   1.175  1.00  0.00     0.141 C 
BRANCH  15  16
HETATM   16  C   UNL     1      43.306 -18.093   2.164  1.00  0.00    -0.049 A 
HETATM   17  C   UNL     1      43.541 -19.407   1.735  1.00  0.00     0.008 A 
HETATM   18  C   UNL     1      44.068 -20.361   2.610  1.00  0.00     0.007 A 
HETATM   19  C   UNL     1      44.386 -20.019   3.929  1.00  0.00    -0.059 A 
HETATM   20  C   UNL     1      44.126 -18.715   4.367  1.00  0.00     0.007 A 
HETATM   21  C   UNL     1      43.594 -17.762   3.494  1.00  0.00     0.008 A 
BRANCH  19  22
HETATM   22  C   UNL     1      45.011 -21.032   4.858  1.00  0.00     0.034 C 
HETATM   23  C   UNL     1      44.702 -22.468   4.451  1.00  0.00     0.010 C 
ENDBRANCH  19  22
ENDBRANCH  15  16
ENDBRANCH  12  15
ENDBRANCH   1  11
BRANCH   8  24
HETATM   24  C   UNL     1      40.124 -12.412   6.221  1.00  0.00     0.270 C 
HETATM   25  N   UNL     1      39.495 -13.323   7.026  1.00  0.00    -0.365 N 
HETATM   26  H   UNL     1      38.631 -13.742   6.703  1.00  0.00     0.159 HD
HETATM   27  H   UNL     1      39.879 -13.535   7.933  1.00  0.00     0.159 HD
HETATM   28  O   UNL     1      41.155 -11.855   6.581  1.00  0.00    -0.266 OA
ENDBRANCH   8  24
TORSDOF 5
ENDMDL
MODEL 7
REMARK VINA RESULT:      -7.6      3.769      6.017
REMARK  5 active torsions:
REMARK  status: ('A' for Active; 'I' for Inactive)
REMARK    1  A    between atoms: C_2  and  C_3 
REMARK    2  A    between atoms: C_6  and  C_7 
REMARK    3  A    between atoms: C_7  and  C_8 
REMARK       I    between atoms: C_8  and  N_9 
REMARK    4  A    between atoms: N_9  and  C_10 
REMARK    5  A    between atoms: C_17  and  C_18 
REMARK       I    between atoms: C_18  and  N_19 
ROOT
HETATM    1  C   UNL     1      42.936 -14.089   5.653  1.00  0.00     0.035 A 
HETATM    2  C   UNL     1      42.494 -12.945   6.334  1.00  0.00     0.046 A 
HETATM    3  C   UNL     1      43.274 -12.411   7.382  1.00  0.00     0.030 A 
HETATM    4  C   UNL     1      44.483 -13.021   7.695  1.00  0.00     0.063 A 
HETATM    5  N   UNL     1      44.995 -12.296   8.734  1.00  0.00    -0.277 N 
HETATM    6  H   UNL     1      45.870 -12.455   9.222  1.00  0.00     0.189 HD
HETATM    7  N   UNL     1      44.219 -11.278   9.141  1.00  0.00    -0.168 NA
HETATM    8  C   UNL     1      43.149 -11.337   8.314  1.00  0.00     0.156 A 
HETATM    9  C   UNL     1      44.966 -14.145   7.023  1.00  0.00     0.034 A 
HETATM   10  C   UNL     1      44.161 -14.672   6.003  1.00  0.00     0.032 A 
ENDROOT
BRANCH   1  11
HETATM   11  N   UNL     1      42.159 -14.754   4.681  1.00  0.00    -0.327 N 
HETATM   12  C   UNL     1      41.189 -15.715   4.910  1.00  0.00     0.226 C 
HETATM   13  O   UNL     1      40.595 -15.899   5.968  1.00  0.00    -0.273 OA
HETATM   14  H   UNL     1      42.327 -14.501   3.715  1.00  0.00     0.169 HD
BRANCH  12  15
HETATM   15  C   UNL     1      40.944 -16.603   3.701  1.00  0.00     0.141 C 
BRANCH  15  16
HETATM   16  C   UNL     1      42.033 -17.596   3.389  1.00  0.00    -0.049 A 
HETATM   17  C   UNL     1      42.724 -18.231   4.430  1.00  0.00     0.008 A 
HETATM   18  C   UNL     1      43.644 -19.248   4.161  1.00  0.00     0.007 A 
HETATM   19  C   UNL     1      43.883 -19.664   2.846  1.00  0.00    -0.059 A 
HETATM   20  C   UNL     1      43.215 -19.011   1.803  1.00  0.00     0.007 A 
HETATM   21  C   UNL     1      42.298 -17.990   2.071  1.00  0.00     0.008 A 
BRANCH  19  22
HETATM   22  C   UNL     1      44.831 -20.801   2.558  1.00  0.00     0.034 C 
HETATM   23  C   UNL     1      44.179 -21.917   1.750  1.00  0.00     0.010 C 
ENDBRANCH  19  22
ENDBRANCH  15  16
ENDBRANCH  12  15
ENDBRANCH   1  11
BRANCH   8  24
HETATM   24  C   UNL     1      42.031 -10.391   8.445  1.00  0.00     0.270 C 
HETATM   25  N   UNL     1      41.026 -10.824   9.266  1.00  0.00    -0.365 N 
HETATM   26  H   UNL     1      41.110 -11.737   9.697  1.00  0.00     0.159 HD
HETATM   27  H   UNL     1      40.210 -10.249   9.400  1.00  0.00     0.159 HD
HETATM   28  O   UNL     1      41.961  -9.308   7.875  1.00  0.00    -0.266 OA
ENDBRANCH   8  24
TORSDOF 5
ENDMDL
MODEL 8
REMARK VINA RESULT:      -7.5      2.731      4.614
REMARK  5 active torsions:
REMARK  status: ('A' for Active; 'I' for Inactive)
REMARK    1  A    between atoms: C_2  and  C_3 
REMARK    2  A    between atoms: C_6  and  C_7 
REMARK    3  A    between atoms: C_7  and  C_8 
REMARK       I    between atoms: C_8  and  N_9 
REMARK    4  A    between atoms: N_9  and  C_10 
REMARK    5  A    between atoms: C_17  and  C_18 
REMARK       I    between atoms: C_18  and  N_19 
ROOT
HETATM    1  C   UNL     1      41.476 -14.910   3.555  1.00  0.00     0.035 A 
HETATM    2  C   UNL     1      40.824 -13.683   3.362  1.00  0.00     0.046 A 
HETATM    3  C   UNL     1      40.046 -13.134   4.404  1.00  0.00     0.030 A 
HETATM    4  C   UNL     1      39.970 -13.815   5.613  1.00  0.00     0.063 A 
HETATM    5  N   UNL     1      39.156 -13.055   6.405  1.00  0.00    -0.277 N 
HETATM    6  H   UNL     1      38.875 -13.248   7.361  1.00  0.00     0.189 HD
HETATM    7  N   UNL     1      38.678 -11.948   5.815  1.00  0.00    -0.168 NA
HETATM    8  C   UNL     1      39.219 -11.983   4.575  1.00  0.00     0.156 A 
HETATM    9  C   UNL     1      40.625 -15.026   5.849  1.00  0.00     0.034 A 
HETATM   10  C   UNL     1      41.370 -15.562   4.789  1.00  0.00     0.032 A 
ENDROOT
BRANCH   1  11
HETATM   11  N   UNL     1      42.169 -15.582   2.525  1.00  0.00    -0.327 N 
HETATM   12  C   UNL     1      41.701 -16.642   1.767  1.00  0.00     0.226 C 
HETATM   13  O   UNL     1      40.523 -16.946   1.604  1.00  0.00    -0.273 OA
HETATM   14  H   UNL     1      43.105 -15.256   2.320  1.00  0.00     0.169 HD
BRANCH  12  15
HETATM   15  C   UNL     1      42.822 -17.473   1.163  1.00  0.00     0.141 C 
BRANCH  15  16
HETATM   16  C   UNL     1      43.470 -18.467   2.091  1.00  0.00    -0.049 A 
HETATM   17  C   UNL     1      43.968 -18.047   3.332  1.00  0.00     0.008 A 
HETATM   18  C   UNL     1      44.453 -18.975   4.258  1.00  0.00     0.007 A 
HETATM   19  C   UNL     1      44.437 -20.344   3.970  1.00  0.00    -0.059 A 
HETATM   20  C   UNL     1      43.966 -20.763   2.720  1.00  0.00     0.007 A 
HETATM   21  C   UNL     1      43.486 -19.835   1.791  1.00  0.00     0.008 A 
BRANCH  19  22
HETATM   22  C   UNL     1      44.905 -21.352   4.991  1.00  0.00     0.034 C 
HETATM   23  C   UNL     1      44.754 -22.789   4.508  1.00  0.00     0.010 C 
ENDBRANCH  19  22
ENDBRANCH  15  16
ENDBRANCH  12  15
ENDBRANCH   1  11
BRANCH   8  24
HETATM   24  C   UNL     1      38.921 -10.940   3.583  1.00  0.00     0.270 C 
HETATM   25  N   UNL     1      37.711 -11.090   2.961  1.00  0.00    -0.365 N 
HETATM   26  H   UNL     1      37.134 -11.887   3.206  1.00  0.00     0.159 HD
HETATM   27  H   UNL     1      37.430 -10.433   2.252  1.00  0.00     0.159 HD
HETATM   28  O   UNL     1      39.667 -10.010   3.299  1.00  0.00    -0.266 OA
ENDBRANCH   8  24
TORSDOF 5
ENDMDL
MODEL 9
REMARK VINA RESULT:      -7.4      3.291      8.109
REMARK  5 active torsions:
REMARK  status: ('A' for Active; 'I' for Inactive)
REMARK    1  A    between atoms: C_2  and  C_3 
REMARK    2  A    between atoms: C_6  and  C_7 
REMARK    3  A    between atoms: C_7  and  C_8 
REMARK       I    between atoms: C_8  and  N_9 
REMARK    4  A    between atoms: N_9  and  C_10 
REMARK    5  A    between atoms: C_17  and  C_18 
REMARK       I    between atoms: C_18  and  N_19 
ROOT
HETATM    1  C   UNL     1      43.326 -16.970   2.980  1.00  0.00     0.035 A 
HETATM    2  C   UNL     1      43.527 -17.414   4.296  1.00  0.00     0.046 A 
HETATM    3  C   UNL     1      43.961 -18.737   4.527  1.00  0.00     0.030 A 
HETATM    4  C   UNL     1      44.207 -19.561   3.437  1.00  0.00     0.063 A 
HETATM    5  N   UNL     1      44.599 -20.758   3.970  1.00  0.00    -0.277 N 
HETATM    6  H   UNL     1      44.859 -21.599   3.466  1.00  0.00     0.189 HD
HETATM    7  N   UNL     1      44.613 -20.793   5.312  1.00  0.00    -0.168 NA
HETATM    8  C   UNL     1      44.218 -19.550   5.672  1.00  0.00     0.156 A 
HETATM    9  C   UNL     1      44.042 -19.146   2.114  1.00  0.00     0.034 A 
HETATM   10  C   UNL     1      43.586 -17.836   1.911  1.00  0.00     0.032 A 
ENDROOT
BRANCH   1  11
HETATM   11  N   UNL     1      42.778 -15.707   2.671  1.00  0.00    -0.327 N 
HETATM   12  C   UNL     1      41.486 -15.446   2.245  1.00  0.00     0.226 C 
HETATM   13  O   UNL     1      40.515 -16.181   2.400  1.00  0.00    -0.273 OA
HETATM   14  H   UNL     1      43.392 -14.908   2.770  1.00  0.00     0.169 HD
BRANCH  12  15
HETATM   15  C   UNL     1      41.370 -14.133   1.488  1.00  0.00     0.141 C 
BRANCH  15  16
HETATM   16  C   UNL     1      40.727 -14.217   0.129  1.00  0.00    -0.049 A 
HETATM   17  C   UNL     1      41.310 -15.003  -0.875  1.00  0.00     0.008 A 
HETATM   18  C   UNL     1      40.660 -15.197  -2.097  1.00  0.00     0.007 A 
HETATM   19  C   UNL     1      39.406 -14.624  -2.337  1.00  0.00    -0.059 A 
HETATM   20  C   UNL     1      38.835 -13.816  -1.345  1.00  0.00     0.007 A 
HETATM   21  C   UNL     1      39.488 -13.617  -0.125  1.00  0.00     0.008 A 
BRANCH  19  22
HETATM   22  C   UNL     1      38.676 -14.881  -3.632  1.00  0.00     0.034 C 
HETATM   23  C   UNL     1      39.002 -16.246  -4.226  1.00  0.00     0.010 C 
ENDBRANCH  19  22
ENDBRANCH  15  16
ENDBRANCH  12  15
ENDBRANCH   1  11
BRANCH   8  24
HETATM   24  C   UNL     1      44.076 -19.175   7.087  1.00  0.00     0.270 C 
HETATM   25  N   UNL     1      43.591 -20.177   7.884  1.00  0.00    -0.365 N 
HETATM   26  H   UNL     1      43.358 -21.067   7.458  1.00  0.00     0.159 HD
HETATM   27  H   UNL     1      43.442 -20.005   8.864  1.00  0.00     0.159 HD
HETATM   28  O   UNL     1      44.343 -18.072   7.549  1.00  0.00    -0.266 OA
ENDBRANCH   8  24
TORSDOF 5
ENDMDL
MODEL 10
REMARK VINA RESULT:      -7.3      4.617      7.433
REMARK  5 active torsions:
REMARK  status: ('A' for Active; 'I' for Inactive)
REMARK    1  A    between atoms: C_2  and  C_3 
REMARK    2  A    between atoms: C_6  and  C_7 
REMARK    3  A    between atoms: C_7  and  C_8 
REMARK       I    between atoms: C_8  and  N_9 
REMARK    4  A    between atoms: N_9  and  C_10 
REMARK    5  A    between atoms: C_17  and  C_18 
REMARK       I    between atoms: C_18  and  N_19 
ROOT
HETATM    1  C   UNL     1      43.862 -15.197   6.840  1.00  0.00     0.035 A 
HETATM    2  C   UNL     1      42.977 -15.073   5.759  1.00  0.00     0.046 A 
HETATM    3  C   UNL     1      42.696 -16.198   4.955  1.00  0.00     0.030 A 
HETATM    4  C   UNL     1      43.286 -17.415   5.275  1.00  0.00     0.063 A 
HETATM    5  N   UNL     1      42.837 -18.294   4.330  1.00  0.00    -0.277 N 
HETATM    6  H   UNL     1      43.064 -19.280   4.251  1.00  0.00     0.189 HD
HETATM    7  N   UNL     1      42.021 -17.756   3.409  1.00  0.00    -0.168 NA
HETATM    8  C   UNL     1      41.926 -16.458   3.781  1.00  0.00     0.156 A 
HETATM    9  C   UNL     1      44.151 -17.581   6.359  1.00  0.00     0.034 A 
HETATM   10  C   UNL     1      44.434 -16.442   7.126  1.00  0.00     0.032 A 
ENDROOT
BRANCH   1  11
HETATM   11  N   UNL     1      44.288 -14.096   7.615  1.00  0.00    -0.327 N 
HETATM   12  C   UNL     1      45.424 -13.331   7.412  1.00  0.00     0.226 C 
HETATM   13  O   UNL     1      46.050 -13.238   6.360  1.00  0.00    -0.273 OA
HETATM   14  H   UNL     1      43.702 -13.839   8.400  1.00  0.00     0.169 HD
BRANCH  12  15
HETATM   15  C   UNL     1      45.886 -12.619   8.673  1.00  0.00     0.141 C 
BRANCH  15  16
HETATM   16  C   UNL     1      44.792 -12.152   9.597  1.00  0.00    -0.049 A 
HETATM   17  C   UNL     1      44.731 -12.633  10.912  1.00  0.00     0.008 A 
HETATM   18  C   UNL     1      43.805 -12.114  11.820  1.00  0.00     0.007 A 
HETATM   19  C   UNL     1      42.929 -11.090  11.439  1.00  0.00    -0.059 A 
HETATM   20  C   UNL     1      42.970 -10.628  10.119  1.00  0.00     0.007 A 
HETATM   21  C   UNL     1      43.893 -11.151   9.208  1.00  0.00     0.008 A 
BRANCH  19  22
HETATM   22  C   UNL     1      41.970 -10.487  12.436  1.00  0.00     0.034 C 
HETATM   23  C   UNL     1      42.677  -9.922  13.662  1.00  0.00     0.010 C 
ENDBRANCH  19  22
ENDBRANCH  15  16
ENDBRANCH  12  15
ENDBRANCH   1  11
BRANCH   8  24
HETATM   24  C   UNL     1      41.127 -15.500   3.004  1.00  0.00     0.270 C 
HETATM   25  N   UNL     1      39.789 -15.788   2.966  1.00  0.00    -0.365 N 
HETATM   26  H   UNL     1      39.458 -16.618   3.444  1.00  0.00     0.159 HD
HETATM   27  H   UNL     1      39.167 -15.197   2.440  1.00  0.00     0.159 HD
HETATM   28  O   UNL     1      41.581 -14.525   2.415  1.00  0.00    -0.266 OA
ENDBRANCH   8  24
TORSDOF 5
ENDMDL
