MODEL 1
REMARK VINA RESULT:      -9.5      0.000      0.000
REMARK  6 active torsions:
REMARK  status: ('A' for Active; 'I' for Inactive)
REMARK    1  A    between atoms: C_3  and  C_4 
REMARK    2  A    between atoms: C_4  and  C_5 
REMARK    3  A    between atoms: N_8  and  C_10 
REMARK    4  A    between atoms: C_10  and  C_11 
REMARK    5  A    between atoms: N_24  and  C_25 
REMARK    6  A    between atoms: C_25  and  C_26 
ROOT
HETATM    1  C   UNL     1      41.105 -14.901   1.970  1.00  0.00     0.164 C 
HETATM    2  N   UNL     1      42.559 -14.941   1.994  1.00  0.00    -0.319 N 
HETATM    3  C   UNL     1      43.073 -14.205   3.040  1.00  0.00     0.326 C 
HETATM    4  O   UNL     1      44.261 -13.957   3.144  1.00  0.00    -0.247 OA
HETATM    5  N   UNL     1      42.059 -13.812   3.850  1.00  0.00    -0.265 N 
HETATM    6  C   UNL     1      40.863 -14.033   3.227  1.00  0.00     0.263 C 
HETATM    7  O   UNL     1      39.766 -13.643   3.607  1.00  0.00    -0.270 OA
HETATM    8  H   UNL     1      43.069 -14.832   1.121  1.00  0.00     0.166 HD
ENDROOT
BRANCH   1   9
HETATM    9  C   UNL     1      40.654 -14.222   0.680  1.00  0.00     0.072 A 
HETATM   10  C   UNL     1      39.315 -14.049   0.341  1.00  0.00     0.030 A 
HETATM   11  C   UNL     1      39.001 -13.419  -0.861  1.00  0.00     0.003 A 
HETATM   12  C   UNL     1      40.021 -12.989  -1.701  1.00  0.00     0.019 A 
HETATM   13  C   UNL     1      41.326 -13.220  -1.312  1.00  0.00     0.117 A 
HETATM   14  N   UNL     1      41.667 -13.841  -0.158  1.00  0.00    -0.262 NA
ENDBRANCH   1   9
BRANCH   1  15
HETATM   15  C   UNL     1      40.471 -16.322   2.179  1.00  0.00     0.033 C 
HETATM   16  C   UNL     1      40.765 -16.964   3.553  1.00  0.00     0.036 C 
HETATM   17  C   UNL     1      42.183 -17.511   3.718  1.00  0.00     0.235 C 
HETATM   18  N   UNL     1      42.570 -18.409   2.566  1.00  0.00    -0.067 N 
HETATM   19  H   UNL     1      42.029 -19.279   2.672  1.00  0.00     0.280 HD
HETATM   20  C   UNL     1      42.269 -17.839   1.197  1.00  0.00     0.235 C 
HETATM   21  C   UNL     1      40.828 -17.374   1.113  1.00  0.00     0.036 C 
BRANCH  18  22
HETATM   22  C   UNL     1      44.042 -18.819   2.610  1.00  0.00     0.278 C 
BRANCH  22  23
HETATM   23  C   UNL     1      44.361 -20.120   3.281  1.00  0.00     0.028 A 
HETATM   24  C   UNL     1      44.740 -20.227   4.624  1.00  0.00     0.045 A 
HETATM   25 CL   UNL     1      44.918 -18.820   5.608  1.00  0.00    -0.084 Cl
HETATM   26  C   UNL     1      45.005 -21.476   5.193  1.00  0.00     0.024 A 
HETATM   27  C   UNL     1      44.890 -22.637   4.428  1.00  0.00     0.005 A 
HETATM   28  C   UNL     1      44.511 -22.549   3.092  1.00  0.00     0.043 A 
HETATM   29  C   UNL     1      44.251 -21.301   2.537  1.00  0.00     0.126 A 
HETATM   30  F   UNL     1      43.891 -21.234   1.248  1.00  0.00    -0.205 F 
ENDBRANCH  22  23
ENDBRANCH  18  22
ENDBRANCH   1  15
BRANCH   5  31
HETATM   31  C   UNL     1      42.258 -13.009   5.048  1.00  0.00     0.168 C 
BRANCH  31  32
HETATM   32  C   UNL     1      42.665 -13.828   6.276  1.00  0.00     0.140 C 
HETATM   33  O   UNL     1      42.272 -15.208   6.130  1.00  0.00    -0.384 OA
HETATM   34  C   UNL     1      43.120 -15.938   7.028  1.00  0.00     0.168 C 
HETATM   35  C   UNL     1      44.478 -15.288   6.892  1.00  0.00     0.029 C 
HETATM   36  C   UNL     1      44.171 -13.852   6.515  1.00  0.00     0.036 C 
ENDBRANCH  31  32
ENDBRANCH   5  31
TORSDOF 6
ENDMDL
MODEL 2
REMARK VINA RESULT:      -9.2      1.254      1.498
REMARK  6 active torsions:
REMARK  status: ('A' for Active; 'I' for Inactive)
REMARK    1  A    between atoms: C_3  and  C_4 
REMARK    2  A    between atoms: C_4  and  C_5 
REMARK    3  A    between atoms: N_8  and  C_10 
REMARK    4  A    between atoms: C_10  and  C_11 
REMARK    5  A    between atoms: N_24  and  C_25 
REMARK    6  A    between atoms: C_25  and  C_26 
ROOT
HETATM    1  C   UNL     1      41.174 -15.022   1.911  1.00  0.00     0.164 C 
HETATM    2  N   UNL     1      42.627 -15.087   1.963  1.00  0.00    -0.319 N 
HETATM    3  C   UNL     1      43.134 -14.337   3.002  1.00  0.00     0.326 C 
HETATM    4  O   UNL     1      44.324 -14.107   3.123  1.00  0.00    -0.247 OA
HETATM    5  N   UNL     1      42.112 -13.908   3.784  1.00  0.00    -0.265 N 
HETATM    6  C   UNL     1      40.924 -14.122   3.143  1.00  0.00     0.263 C 
HETATM    7  O   UNL     1      39.828 -13.706   3.495  1.00  0.00    -0.270 OA
HETATM    8  H   UNL     1      43.154 -15.006   1.097  1.00  0.00     0.166 HD
ENDROOT
BRANCH   1   9
HETATM    9  C   UNL     1      40.759 -14.365   0.598  1.00  0.00     0.072 A 
HETATM   10  C   UNL     1      39.430 -14.150   0.243  1.00  0.00     0.030 A 
HETATM   11  C   UNL     1      39.150 -13.544  -0.980  1.00  0.00     0.003 A 
HETATM   12  C   UNL     1      40.191 -13.179  -1.823  1.00  0.00     0.019 A 
HETATM   13  C   UNL     1      41.484 -13.449  -1.417  1.00  0.00     0.117 A 
HETATM   14  N   UNL     1      41.792 -14.048  -0.243  1.00  0.00    -0.262 NA
ENDBRANCH   1   9
BRANCH   1  15
HETATM   15  C   UNL     1      40.511 -16.428   2.139  1.00  0.00     0.033 C 
HETATM   16  C   UNL     1      40.780 -17.050   3.527  1.00  0.00     0.036 C 
HETATM   17  C   UNL     1      42.186 -17.621   3.715  1.00  0.00     0.235 C 
HETATM   18  N   UNL     1      42.567 -18.546   2.582  1.00  0.00    -0.067 N 
HETATM   19  H   UNL     1      42.008 -19.404   2.699  1.00  0.00     0.280 HD
HETATM   20  C   UNL     1      42.289 -17.995   1.201  1.00  0.00     0.235 C 
HETATM   21  C   UNL     1      40.858 -17.505   1.095  1.00  0.00     0.036 C 
BRANCH  18  22
HETATM   22  C   UNL     1      44.030 -18.983   2.648  1.00  0.00     0.278 C 
BRANCH  22  23
HETATM   23  C   UNL     1      44.326 -20.241   3.405  1.00  0.00     0.028 A 
HETATM   24  C   UNL     1      44.333 -21.513   2.822  1.00  0.00     0.045 A 
HETATM   25 CL   UNL     1      43.942 -21.724   1.154  1.00  0.00    -0.084 Cl
HETATM   26  C   UNL     1      44.637 -22.646   3.583  1.00  0.00     0.024 A 
HETATM   27  C   UNL     1      44.943 -22.522   4.939  1.00  0.00     0.005 A 
HETATM   28  C   UNL     1      44.943 -21.264   5.534  1.00  0.00     0.043 A 
HETATM   29  C   UNL     1      44.638 -20.145   4.767  1.00  0.00     0.126 A 
HETATM   30  F   UNL     1      44.639 -18.943   5.357  1.00  0.00    -0.205 F 
ENDBRANCH  22  23
ENDBRANCH  18  22
ENDBRANCH   1  15
BRANCH   5  31
HETATM   31  C   UNL     1      42.304 -13.083   4.968  1.00  0.00     0.168 C 
BRANCH  31  32
HETATM   32  C   UNL     1      42.680 -13.880   6.219  1.00  0.00     0.140 C 
HETATM   33  O   UNL     1      42.293 -15.263   6.086  1.00  0.00    -0.384 OA
HETATM   34  C   UNL     1      43.118 -15.977   7.018  1.00  0.00     0.168 C 
HETATM   35  C   UNL     1      44.479 -15.327   6.905  1.00  0.00     0.029 C 
HETATM   36  C   UNL     1      44.180 -13.899   6.496  1.00  0.00     0.036 C 
ENDBRANCH  31  32
ENDBRANCH   5  31
TORSDOF 6
ENDMDL
MODEL 3
REMARK VINA RESULT:      -8.7      2.949      7.219
REMARK  6 active torsions:
REMARK  status: ('A' for Active; 'I' for Inactive)
REMARK    1  A    between atoms: C_3  and  C_4 
REMARK    2  A    between atoms: C_4  and  C_5 
REMARK    3  A    between atoms: N_8  and  C_10 
REMARK    4  A    between atoms: C_10  and  C_11 
REMARK    5  A    between atoms: N_24  and  C_25 
REMARK    6  A    between atoms: C_25  and  C_26 
ROOT
HETATM    1  C   UNL     1      42.459 -15.846   3.783  1.00  0.00     0.164 C 
HETATM    2  N   UNL     1      43.358 -15.669   2.653  1.00  0.00    -0.319 N 
HETATM    3  C   UNL     1      43.620 -16.864   2.018  1.00  0.00     0.326 C 
HETATM    4  O   UNL     1      44.481 -16.975   1.163  1.00  0.00    -0.247 OA
HETATM    5  N   UNL     1      42.812 -17.827   2.526  1.00  0.00    -0.265 N 
HETATM    6  C   UNL     1      42.213 -17.368   3.666  1.00  0.00     0.263 C 
HETATM    7  O   UNL     1      41.556 -18.033   4.456  1.00  0.00    -0.270 OA
HETATM    8  H   UNL     1      44.172 -15.069   2.761  1.00  0.00     0.166 HD
ENDROOT
BRANCH   1   9
HETATM    9  C   UNL     1      43.196 -15.458   5.062  1.00  0.00     0.072 A 
HETATM   10  C   UNL     1      43.196 -16.247   6.209  1.00  0.00     0.030 A 
HETATM   11  C   UNL     1      43.896 -15.806   7.329  1.00  0.00     0.003 A 
HETATM   12  C   UNL     1      44.567 -14.591   7.288  1.00  0.00     0.019 A 
HETATM   13  C   UNL     1      44.500 -13.848   6.126  1.00  0.00     0.117 A 
HETATM   14  N   UNL     1      43.818 -14.238   5.024  1.00  0.00    -0.262 NA
ENDBRANCH   1   9
BRANCH   1  15
HETATM   15  C   UNL     1      41.105 -15.074   3.588  1.00  0.00     0.033 C 
HETATM   16  C   UNL     1      40.071 -15.801   2.701  1.00  0.00     0.036 C 
HETATM   17  C   UNL     1      40.370 -15.767   1.202  1.00  0.00     0.235 C 
HETATM   18  N   UNL     1      40.656 -14.361   0.725  1.00  0.00    -0.067 N 
HETATM   19  H   UNL     1      39.760 -13.854   0.740  1.00  0.00     0.280 HD
HETATM   20  C   UNL     1      41.638 -13.594   1.583  1.00  0.00     0.235 C 
HETATM   21  C   UNL     1      41.229 -13.640   3.042  1.00  0.00     0.036 C 
BRANCH  18  22
HETATM   22  C   UNL     1      41.140 -14.321  -0.724  1.00  0.00     0.278 C 
BRANCH  22  23
HETATM   23  C   UNL     1      40.121 -14.609  -1.785  1.00  0.00     0.028 A 
HETATM   24  C   UNL     1      38.864 -13.995  -1.838  1.00  0.00     0.045 A 
HETATM   25 CL   UNL     1      38.375 -12.872  -0.623  1.00  0.00    -0.084 Cl
HETATM   26  C   UNL     1      37.967 -14.296  -2.868  1.00  0.00     0.024 A 
HETATM   27  C   UNL     1      38.316 -15.211  -3.861  1.00  0.00     0.005 A 
HETATM   28  C   UNL     1      39.563 -15.827  -3.824  1.00  0.00     0.043 A 
HETATM   29  C   UNL     1      40.446 -15.521  -2.796  1.00  0.00     0.126 A 
HETATM   30  F   UNL     1      41.641 -16.127  -2.773  1.00  0.00    -0.205 F 
ENDBRANCH  22  23
ENDBRANCH  18  22
ENDBRANCH   1  15
BRANCH   5  31
HETATM   31  C   UNL     1      42.839 -19.211   2.078  1.00  0.00     0.168 C 
BRANCH  31  32
HETATM   32  C   UNL     1      44.071 -19.987   2.553  1.00  0.00     0.140 C 
HETATM   33  O   UNL     1      44.124 -20.041   3.993  1.00  0.00    -0.384 OA
HETATM   34  C   UNL     1      44.957 -21.169   4.297  1.00  0.00     0.168 C 
HETATM   35  C   UNL     1      44.558 -22.226   3.293  1.00  0.00     0.029 C 
HETATM   36  C   UNL     1      44.087 -21.440   2.086  1.00  0.00     0.036 C 
ENDBRANCH  31  32
ENDBRANCH   5  31
TORSDOF 6
ENDMDL
MODEL 4
REMARK VINA RESULT:      -8.6      2.662      6.952
REMARK  6 active torsions:
REMARK  status: ('A' for Active; 'I' for Inactive)
REMARK    1  A    between atoms: C_3  and  C_4 
REMARK    2  A    between atoms: C_4  and  C_5 
REMARK    3  A    between atoms: N_8  and  C_10 
REMARK    4  A    between atoms: C_10  and  C_11 
REMARK    5  A    between atoms: N_24  and  C_25 
REMARK    6  A    between atoms: C_25  and  C_26 
ROOT
HETATM    1  C   UNL     1      43.500 -18.360   3.474  1.00  0.00     0.164 C 
HETATM    2  N   UNL     1      42.058 -18.223   3.605  1.00  0.00    -0.319 N 
HETATM    3  C   UNL     1      41.691 -17.874   4.886  1.00  0.00     0.326 C 
HETATM    4  O   UNL     1      40.532 -17.880   5.260  1.00  0.00    -0.247 OA
HETATM    5  N   UNL     1      42.804 -17.581   5.604  1.00  0.00    -0.265 N 
HETATM    6  C   UNL     1      43.913 -17.987   4.917  1.00  0.00     0.263 C 
HETATM    7  O   UNL     1      45.059 -18.022   5.348  1.00  0.00    -0.270 OA
HETATM    8  H   UNL     1      41.456 -18.923   3.177  1.00  0.00     0.166 HD
ENDROOT
BRANCH   1   9
HETATM    9  C   UNL     1      43.825 -19.808   3.117  1.00  0.00     0.072 A 
HETATM   10  C   UNL     1      43.431 -20.403   1.922  1.00  0.00     0.030 A 
HETATM   11  C   UNL     1      43.773 -21.732   1.686  1.00  0.00     0.003 A 
HETATM   12  C   UNL     1      44.485 -22.441   2.646  1.00  0.00     0.019 A 
HETATM   13  C   UNL     1      44.817 -21.794   3.820  1.00  0.00     0.117 A 
HETATM   14  N   UNL     1      44.489 -20.509   4.088  1.00  0.00    -0.262 NA
ENDBRANCH   1   9
BRANCH   1  15
HETATM   15  C   UNL     1      44.105 -17.321   2.465  1.00  0.00     0.033 C 
HETATM   16  C   UNL     1      43.819 -15.843   2.813  1.00  0.00     0.036 C 
HETATM   17  C   UNL     1      42.392 -15.377   2.524  1.00  0.00     0.235 C 
HETATM   18  N   UNL     1      41.966 -15.734   1.118  1.00  0.00    -0.067 N 
HETATM   19  H   UNL     1      42.488 -15.114   0.483  1.00  0.00     0.280 HD
HETATM   20  C   UNL     1      42.257 -17.163   0.717  1.00  0.00     0.235 C 
HETATM   21  C   UNL     1      43.707 -17.514   0.990  1.00  0.00     0.036 C 
BRANCH  18  22
HETATM   22  C   UNL     1      40.486 -15.448   0.864  1.00  0.00     0.278 C 
BRANCH  22  23
HETATM   23  C   UNL     1      40.166 -14.328  -0.079  1.00  0.00     0.028 A 
HETATM   24  C   UNL     1      39.721 -13.068   0.336  1.00  0.00     0.045 A 
HETATM   25 CL   UNL     1      39.457 -12.730   2.008  1.00  0.00    -0.084 Cl
HETATM   26  C   UNL     1      39.459 -12.061  -0.597  1.00  0.00     0.024 A 
HETATM   27  C   UNL     1      39.643 -12.298  -1.960  1.00  0.00     0.005 A 
HETATM   28  C   UNL     1      40.088 -13.545  -2.389  1.00  0.00     0.043 A 
HETATM   29  C   UNL     1      40.344 -14.538  -1.452  1.00  0.00     0.126 A 
HETATM   30  F   UNL     1      40.768 -15.734  -1.883  1.00  0.00    -0.205 F 
ENDBRANCH  22  23
ENDBRANCH  18  22
ENDBRANCH   1  15
BRANCH   5  31
HETATM   31  C   UNL     1      42.770 -17.182   7.004  1.00  0.00     0.168 C 
BRANCH  31  32
HETATM   32  C   UNL     1      43.153 -15.717   7.234  1.00  0.00     0.140 C 
HETATM   33  O   UNL     1      44.583 -15.571   7.359  1.00  0.00    -0.384 OA
HETATM   34  C   UNL     1      44.849 -14.195   7.050  1.00  0.00     0.168 C 
HETATM   35  C   UNL     1      43.930 -13.873   5.894  1.00  0.00     0.029 C 
HETATM   36  C   UNL     1      42.744 -14.797   6.088  1.00  0.00     0.036 C 
ENDBRANCH  31  32
ENDBRANCH   5  31
TORSDOF 6
ENDMDL
MODEL 5
REMARK VINA RESULT:      -8.6      1.373      2.180
REMARK  6 active torsions:
REMARK  status: ('A' for Active; 'I' for Inactive)
REMARK    1  A    between atoms: C_3  and  C_4 
REMARK    2  A    between atoms: C_4  and  C_5 
REMARK    3  A    between atoms: N_8  and  C_10 
REMARK    4  A    between atoms: C_10  and  C_11 
REMARK    5  A    between atoms: N_24  and  C_25 
REMARK    6  A    between atoms: C_25  and  C_26 
ROOT
HETATM    1  C   UNL     1      41.266 -14.605   1.831  1.00  0.00     0.164 C 
HETATM    2  N   UNL     1      42.672 -14.606   2.205  1.00  0.00    -0.319 N 
HETATM    3  C   UNL     1      42.869 -14.058   3.454  1.00  0.00     0.326 C 
HETATM    4  O   UNL     1      43.977 -13.798   3.887  1.00  0.00    -0.247 OA
HETATM    5  N   UNL     1      41.666 -13.848   4.044  1.00  0.00    -0.265 N 
HETATM    6  C   UNL     1      40.670 -13.987   3.117  1.00  0.00     0.263 C 
HETATM    7  O   UNL     1      39.490 -13.706   3.276  1.00  0.00    -0.270 OA
HETATM    8  H   UNL     1      43.365 -14.325   1.515  1.00  0.00     0.166 HD
ENDROOT
BRANCH   1   9
HETATM    9  C   UNL     1      41.085 -13.717   0.603  1.00  0.00     0.072 A 
HETATM   10  C   UNL     1      42.039 -12.795   0.184  1.00  0.00     0.030 A 
HETATM   11  C   UNL     1      41.782 -12.026  -0.948  1.00  0.00     0.003 A 
HETATM   12  C   UNL     1      40.580 -12.182  -1.628  1.00  0.00     0.019 A 
HETATM   13  C   UNL     1      39.668 -13.095  -1.138  1.00  0.00     0.117 A 
HETATM   14  N   UNL     1      39.880 -13.848  -0.033  1.00  0.00    -0.262 NA
ENDBRANCH   1   9
BRANCH   1  15
HETATM   15  C   UNL     1      40.706 -16.059   1.633  1.00  0.00     0.033 C 
HETATM   16  C   UNL     1      40.641 -16.906   2.924  1.00  0.00     0.036 C 
HETATM   17  C   UNL     1      41.989 -17.432   3.417  1.00  0.00     0.235 C 
HETATM   18  N   UNL     1      42.755 -18.121   2.310  1.00  0.00    -0.067 N 
HETATM   19  H   UNL     1      42.272 -19.012   2.124  1.00  0.00     0.280 HD
HETATM   20  C   UNL     1      42.816 -17.346   1.012  1.00  0.00     0.235 C 
HETATM   21  C   UNL     1      41.430 -16.914   0.577  1.00  0.00     0.036 C 
BRANCH  18  22
HETATM   22  C   UNL     1      44.179 -18.491   2.725  1.00  0.00     0.278 C 
BRANCH  22  23
HETATM   23  C   UNL     1      44.377 -19.852   3.319  1.00  0.00     0.028 A 
HETATM   24  C   UNL     1      44.684 -20.072   4.667  1.00  0.00     0.045 A 
HETATM   25 CL   UNL     1      44.908 -18.748   5.751  1.00  0.00    -0.084 Cl
HETATM   26  C   UNL     1      44.837 -21.371   5.161  1.00  0.00     0.024 A 
HETATM   27  C   UNL     1      44.681 -22.469   4.315  1.00  0.00     0.005 A 
HETATM   28  C   UNL     1      44.372 -22.268   2.973  1.00  0.00     0.043 A 
HETATM   29  C   UNL     1      44.224 -20.972   2.493  1.00  0.00     0.126 A 
HETATM   30  F   UNL     1      43.932 -20.796   1.198  1.00  0.00    -0.205 F 
ENDBRANCH  22  23
ENDBRANCH  18  22
ENDBRANCH   1  15
BRANCH   5  31
HETATM   31  C   UNL     1      41.516 -13.271   5.372  1.00  0.00     0.168 C 
BRANCH  31  32
HETATM   32  C   UNL     1      41.934 -11.800   5.453  1.00  0.00     0.140 C 
HETATM   33  O   UNL     1      41.237 -11.009   4.469  1.00  0.00    -0.384 OA
HETATM   34  C   UNL     1      41.294  -9.662   4.958  1.00  0.00     0.168 C 
HETATM   35  C   UNL     1      41.075  -9.783   6.449  1.00  0.00     0.029 C 
HETATM   36  C   UNL     1      41.616 -11.155   6.799  1.00  0.00     0.036 C 
ENDBRANCH  31  32
ENDBRANCH   5  31
TORSDOF 6
ENDMDL
MODEL 6
REMARK VINA RESULT:      -8.3      2.379      5.163
REMARK  6 active torsions:
REMARK  status: ('A' for Active; 'I' for Inactive)
REMARK    1  A    between atoms: C_3  and  C_4 
REMARK    2  A    between atoms: C_4  and  C_5 
REMARK    3  A    between atoms: N_8  and  C_10 
REMARK    4  A    between atoms: C_10  and  C_11 
REMARK    5  A    between atoms: N_24  and  C_25 
REMARK    6  A    between atoms: C_25  and  C_26 
ROOT
HETATM    1  C   UNL     1      41.197 -13.163   3.238  1.00  0.00     0.164 C 
HETATM    2  N   UNL     1      40.317 -14.321   3.221  1.00  0.00    -0.319 N 
HETATM    3  C   UNL     1      40.316 -14.944   1.993  1.00  0.00     0.326 C 
HETATM    4  O   UNL     1      39.521 -15.821   1.704  1.00  0.00    -0.247 OA
HETATM    5  N   UNL     1      41.283 -14.398   1.214  1.00  0.00    -0.265 N 
HETATM    6  C   UNL     1      41.744 -13.249   1.794  1.00  0.00     0.263 C 
HETATM    7  O   UNL     1      42.494 -12.430   1.280  1.00  0.00    -0.270 OA
HETATM    8  H   UNL     1      39.397 -14.246   3.649  1.00  0.00     0.166 HD
ENDROOT
BRANCH   1   9
HETATM    9  C   UNL     1      40.358 -11.912   3.484  1.00  0.00     0.072 A 
HETATM   10  C   UNL     1      38.990 -11.853   3.238  1.00  0.00     0.030 A 
HETATM   11  C   UNL     1      38.310 -10.664   3.492  1.00  0.00     0.003 A 
HETATM   12  C   UNL     1      39.006  -9.561   3.970  1.00  0.00     0.019 A 
HETATM   13  C   UNL     1      40.368  -9.684   4.164  1.00  0.00     0.117 A 
HETATM   14  N   UNL     1      41.062 -10.819   3.915  1.00  0.00    -0.262 NA
ENDBRANCH   1   9
BRANCH   1  15
HETATM   15  C   UNL     1      42.376 -13.331   4.261  1.00  0.00     0.033 C 
HETATM   16  C   UNL     1      43.552 -14.195   3.754  1.00  0.00     0.036 C 
HETATM   17  C   UNL     1      43.283 -15.700   3.732  1.00  0.00     0.235 C 
HETATM   18  N   UNL     1      42.736 -16.186   5.055  1.00  0.00    -0.067 N 
HETATM   19  H   UNL     1      43.515 -16.153   5.728  1.00  0.00     0.280 HD
HETATM   20  C   UNL     1      41.605 -15.349   5.612  1.00  0.00     0.235 C 
HETATM   21  C   UNL     1      41.985 -13.882   5.644  1.00  0.00     0.036 C 
BRANCH  18  22
HETATM   22  C   UNL     1      42.284 -17.645   5.002  1.00  0.00     0.278 C 
BRANCH  22  23
HETATM   23  C   UNL     1      43.178 -18.603   4.276  1.00  0.00     0.028 A 
HETATM   24  C   UNL     1      44.266 -19.252   4.872  1.00  0.00     0.045 A 
HETATM   25 CL   UNL     1      44.688 -18.942   6.516  1.00  0.00    -0.084 Cl
HETATM   26  C   UNL     1      45.048 -20.150   4.141  1.00  0.00     0.024 A 
HETATM   27  C   UNL     1      44.752 -20.417   2.804  1.00  0.00     0.005 A 
HETATM   28  C   UNL     1      43.671 -19.782   2.197  1.00  0.00     0.043 A 
HETATM   29  C   UNL     1      42.901 -18.890   2.934  1.00  0.00     0.126 A 
HETATM   30  F   UNL     1      41.868 -18.286   2.333  1.00  0.00    -0.205 F 
ENDBRANCH  22  23
ENDBRANCH  18  22
ENDBRANCH   1  15
BRANCH   5  31
HETATM   31  C   UNL     1      41.545 -14.825  -0.153  1.00  0.00     0.168 C 
BRANCH  31  32
HETATM   32  C   UNL     1      40.524 -14.300  -1.166  1.00  0.00     0.140 C 
HETATM   33  O   UNL     1      40.867 -12.969  -1.603  1.00  0.00    -0.384 OA
HETATM   34  C   UNL     1      40.199 -12.801  -2.862  1.00  0.00     0.168 C 
HETATM   35  C   UNL     1      40.357 -14.131  -3.563  1.00  0.00     0.029 C 
HETATM   36  C   UNL     1      40.447 -15.142  -2.437  1.00  0.00     0.036 C 
ENDBRANCH  31  32
ENDBRANCH   5  31
TORSDOF 6
ENDMDL
MODEL 7
REMARK VINA RESULT:      -8.3      2.166      5.288
REMARK  6 active torsions:
REMARK  status: ('A' for Active; 'I' for Inactive)
REMARK    1  A    between atoms: C_3  and  C_4 
REMARK    2  A    between atoms: C_4  and  C_5 
REMARK    3  A    between atoms: N_8  and  C_10 
REMARK    4  A    between atoms: C_10  and  C_11 
REMARK    5  A    between atoms: N_24  and  C_25 
REMARK    6  A    between atoms: C_25  and  C_26 
ROOT
HETATM    1  C   UNL     1      41.365 -13.149   3.623  1.00  0.00     0.164 C 
HETATM    2  N   UNL     1      40.499 -14.306   3.458  1.00  0.00    -0.319 N 
HETATM    3  C   UNL     1      39.930 -14.344   2.203  1.00  0.00     0.326 C 
HETATM    4  O   UNL     1      39.040 -15.122   1.912  1.00  0.00    -0.247 OA
HETATM    5  N   UNL     1      40.494 -13.385   1.428  1.00  0.00    -0.265 N 
HETATM    6  C   UNL     1      41.226 -12.535   2.210  1.00  0.00     0.263 C 
HETATM    7  O   UNL     1      41.726 -11.476   1.855  1.00  0.00    -0.270 OA
HETATM    8  H   UNL     1      39.861 -14.555   4.210  1.00  0.00     0.166 HD
ENDROOT
BRANCH   1   9
HETATM    9  C   UNL     1      40.790 -12.257   4.719  1.00  0.00     0.072 A 
HETATM   10  C   UNL     1      41.202 -10.944   4.926  1.00  0.00     0.030 A 
HETATM   11  C   UNL     1      40.619 -10.209   5.955  1.00  0.00     0.003 A 
HETATM   12  C   UNL     1      39.653 -10.798   6.761  1.00  0.00     0.019 A 
HETATM   13  C   UNL     1      39.314 -12.114   6.516  1.00  0.00     0.117 A 
HETATM   14  N   UNL     1      39.869 -12.862   5.534  1.00  0.00    -0.262 NA
ENDBRANCH   1   9
BRANCH   1  15
HETATM   15  C   UNL     1      42.859 -13.560   3.877  1.00  0.00     0.033 C 
HETATM   16  C   UNL     1      43.478 -14.453   2.779  1.00  0.00     0.036 C 
HETATM   17  C   UNL     1      43.016 -15.910   2.798  1.00  0.00     0.235 C 
HETATM   18  N   UNL     1      43.144 -16.516   4.177  1.00  0.00    -0.067 N 
HETATM   19  H   UNL     1      44.151 -16.645   4.353  1.00  0.00     0.280 HD
HETATM   20  C   UNL     1      42.584 -15.661   5.293  1.00  0.00     0.235 C 
HETATM   21  C   UNL     1      43.140 -14.252   5.223  1.00  0.00     0.036 C 
BRANCH  18  22
HETATM   22  C   UNL     1      42.518 -17.907   4.267  1.00  0.00     0.278 C 
BRANCH  22  23
HETATM   23  C   UNL     1      43.317 -19.045   3.710  1.00  0.00     0.028 A 
HETATM   24  C   UNL     1      44.328 -19.703   4.421  1.00  0.00     0.045 A 
HETATM   25 CL   UNL     1      44.764 -19.197   6.012  1.00  0.00    -0.084 Cl
HETATM   26  C   UNL     1      45.023 -20.771   3.847  1.00  0.00     0.024 A 
HETATM   27  C   UNL     1      44.715 -21.201   2.557  1.00  0.00     0.005 A 
HETATM   28  C   UNL     1      43.710 -20.560   1.838  1.00  0.00     0.043 A 
HETATM   29  C   UNL     1      43.026 -19.498   2.418  1.00  0.00     0.126 A 
HETATM   30  F   UNL     1      42.065 -18.890   1.710  1.00  0.00    -0.205 F 
ENDBRANCH  22  23
ENDBRANCH  18  22
ENDBRANCH   1  15
BRANCH   5  31
HETATM   31  C   UNL     1      40.113 -13.150   0.043  1.00  0.00     0.168 C 
BRANCH  31  32
HETATM   32  C   UNL     1      40.998 -13.882  -0.970  1.00  0.00     0.140 C 
HETATM   33  O   UNL     1      40.351 -15.077  -1.454  1.00  0.00    -0.384 OA
HETATM   34  C   UNL     1      40.987 -15.370  -2.706  1.00  0.00     0.168 C 
HETATM   35  C   UNL     1      41.175 -14.023  -3.368  1.00  0.00     0.029 C 
HETATM   36  C   UNL     1      41.309 -13.052  -2.212  1.00  0.00     0.036 C 
ENDBRANCH  31  32
ENDBRANCH   5  31
TORSDOF 6
ENDMDL
MODEL 8
REMARK VINA RESULT:      -8.1      2.330      3.405
REMARK  6 active torsions:
REMARK  status: ('A' for Active; 'I' for Inactive)
REMARK    1  A    between atoms: C_3  and  C_4 
REMARK    2  A    between atoms: C_4  and  C_5 
REMARK    3  A    between atoms: N_8  and  C_10 
REMARK    4  A    between atoms: C_10  and  C_11 
REMARK    5  A    between atoms: N_24  and  C_25 
REMARK    6  A    between atoms: C_25  and  C_26 
ROOT
HETATM    1  C   UNL     1      41.389 -14.636   1.165  1.00  0.00     0.164 C 
HETATM    2  N   UNL     1      42.475 -14.339   2.086  1.00  0.00    -0.319 N 
HETATM    3  C   UNL     1      42.031 -13.650   3.193  1.00  0.00     0.326 C 
HETATM    4  O   UNL     1      42.793 -13.147   4.000  1.00  0.00    -0.247 OA
HETATM    5  N   UNL     1      40.676 -13.614   3.184  1.00  0.00    -0.265 N 
HETATM    6  C   UNL     1      40.215 -14.023   1.964  1.00  0.00     0.263 C 
HETATM    7  O   UNL     1      39.059 -13.954   1.567  1.00  0.00    -0.270 OA
HETATM    8  H   UNL     1      43.358 -14.000   1.712  1.00  0.00     0.166 HD
ENDROOT
BRANCH   1   9
HETATM    9  C   UNL     1      41.653 -13.916  -0.154  1.00  0.00     0.072 A 
HETATM   10  C   UNL     1      41.258 -14.423  -1.389  1.00  0.00     0.030 A 
HETATM   11  C   UNL     1      41.547 -13.693  -2.540  1.00  0.00     0.003 A 
HETATM   12  C   UNL     1      42.230 -12.488  -2.438  1.00  0.00     0.019 A 
HETATM   13  C   UNL     1      42.616 -12.062  -1.183  1.00  0.00     0.117 A 
HETATM   14  N   UNL     1      42.364 -12.751  -0.046  1.00  0.00    -0.262 NA
ENDBRANCH   1   9
BRANCH   1  15
HETATM   15  C   UNL     1      41.163 -16.181   0.995  1.00  0.00     0.033 C 
HETATM   16  C   UNL     1      40.546 -16.882   2.226  1.00  0.00     0.036 C 
HETATM   17  C   UNL     1      41.508 -17.094   3.395  1.00  0.00     0.235 C 
HETATM   18  N   UNL     1      42.796 -17.744   2.945  1.00  0.00    -0.067 N 
HETATM   19  H   UNL     1      42.571 -18.724   2.718  1.00  0.00     0.280 HD
HETATM   20  C   UNL     1      43.421 -17.115   1.719  1.00  0.00     0.235 C 
HETATM   21  C   UNL     1      42.407 -16.996   0.598  1.00  0.00     0.036 C 
BRANCH  18  22
HETATM   22  C   UNL     1      43.845 -17.799   4.054  1.00  0.00     0.278 C 
BRANCH  22  23
HETATM   23  C   UNL     1      43.974 -19.093   4.799  1.00  0.00     0.028 A 
HETATM   24  C   UNL     1      44.533 -20.251   4.248  1.00  0.00     0.045 A 
HETATM   25 CL   UNL     1      45.080 -20.278   2.612  1.00  0.00    -0.084 Cl
HETATM   26  C   UNL     1      44.641 -21.421   5.006  1.00  0.00     0.024 A 
HETATM   27  C   UNL     1      44.195 -21.448   6.328  1.00  0.00     0.005 A 
HETATM   28  C   UNL     1      43.640 -20.303   6.892  1.00  0.00     0.043 A 
HETATM   29  C   UNL     1      43.537 -19.146   6.128  1.00  0.00     0.126 A 
HETATM   30  F   UNL     1      42.996 -18.055   6.686  1.00  0.00    -0.205 F 
ENDBRANCH  22  23
ENDBRANCH  18  22
ENDBRANCH   1  15
BRANCH   5  31
HETATM   31  C   UNL     1      39.886 -12.953   4.213  1.00  0.00     0.168 C 
BRANCH  31  32
HETATM   32  C   UNL     1      39.658 -11.462   3.949  1.00  0.00     0.140 C 
HETATM   33  O   UNL     1      38.304 -11.215   3.517  1.00  0.00    -0.384 OA
HETATM   34  C   UNL     1      38.064  -9.829   3.802  1.00  0.00     0.168 C 
HETATM   35  C   UNL     1      38.722  -9.591   5.142  1.00  0.00     0.029 C 
HETATM   36  C   UNL     1      39.860 -10.591   5.186  1.00  0.00     0.036 C 
ENDBRANCH  31  32
ENDBRANCH   5  31
TORSDOF 6
ENDMDL
MODEL 9
REMARK VINA RESULT:      -7.8      2.245      3.646
REMARK  6 active torsions:
REMARK  status: ('A' for Active; 'I' for Inactive)
REMARK    1  A    between atoms: C_3  and  C_4 
REMARK    2  A    between atoms: C_4  and  C_5 
REMARK    3  A    between atoms: N_8  and  C_10 
REMARK    4  A    between atoms: C_10  and  C_11 
REMARK    5  A    between atoms: N_24  and  C_25 
REMARK    6  A    between atoms: C_25  and  C_26 
ROOT
HETATM    1  C   UNL     1      41.727 -15.513   4.961  1.00  0.00     0.164 C 
HETATM    2  N   UNL     1      43.056 -14.957   5.166  1.00  0.00    -0.319 N 
HETATM    3  C   UNL     1      43.001 -13.649   5.596  1.00  0.00     0.326 C 
HETATM    4  O   UNL     1      43.989 -12.939   5.659  1.00  0.00    -0.247 OA
HETATM    5  N   UNL     1      41.715 -13.325   5.879  1.00  0.00    -0.265 N 
HETATM    6  C   UNL     1      40.881 -14.292   5.391  1.00  0.00     0.263 C 
HETATM    7  O   UNL     1      39.660 -14.231   5.330  1.00  0.00    -0.270 OA
HETATM    8  H   UNL     1      43.777 -15.135   4.471  1.00  0.00     0.166 HD
ENDROOT
BRANCH   1   9
HETATM    9  C   UNL     1      41.563 -15.861   3.484  1.00  0.00     0.072 A 
HETATM   10  C   UNL     1      40.357 -16.280   2.931  1.00  0.00     0.030 A 
HETATM   11  C   UNL     1      40.306 -16.579   1.572  1.00  0.00     0.003 A 
HETATM   12  C   UNL     1      41.455 -16.467   0.799  1.00  0.00     0.019 A 
HETATM   13  C   UNL     1      42.623 -16.073   1.421  1.00  0.00     0.117 A 
HETATM   14  N   UNL     1      42.711 -15.788   2.741  1.00  0.00    -0.262 NA
ENDBRANCH   1   9
BRANCH   1  15
HETATM   15  C   UNL     1      41.437 -16.722   5.920  1.00  0.00     0.033 C 
HETATM   16  C   UNL     1      42.496 -16.938   7.024  1.00  0.00     0.036 C 
HETATM   17  C   UNL     1      43.808 -17.560   6.545  1.00  0.00     0.235 C 
HETATM   18  N   UNL     1      43.566 -18.806   5.724  1.00  0.00    -0.067 N 
HETATM   19  H   UNL     1      43.250 -19.536   6.379  1.00  0.00     0.280 HD
HETATM   20  C   UNL     1      42.509 -18.656   4.651  1.00  0.00     0.235 C 
HETATM   21  C   UNL     1      41.230 -18.084   5.231  1.00  0.00     0.036 C 
BRANCH  18  22
HETATM   22  C   UNL     1      44.844 -19.341   5.079  1.00  0.00     0.278 C 
BRANCH  22  23
HETATM   23  C   UNL     1      44.675 -20.311   3.949  1.00  0.00     0.028 A 
HETATM   24  C   UNL     1      44.689 -21.701   4.112  1.00  0.00     0.045 A 
HETATM   25 CL   UNL     1      44.959 -22.407   5.664  1.00  0.00    -0.084 Cl
HETATM   26  C   UNL     1      44.507 -22.549   3.016  1.00  0.00     0.024 A 
HETATM   27  C   UNL     1      44.302 -22.020   1.742  1.00  0.00     0.005 A 
HETATM   28  C   UNL     1      44.282 -20.639   1.563  1.00  0.00     0.043 A 
HETATM   29  C   UNL     1      44.466 -19.806   2.660  1.00  0.00     0.126 A 
HETATM   30  F   UNL     1      44.448 -18.480   2.470  1.00  0.00    -0.205 F 
ENDBRANCH  22  23
ENDBRANCH  18  22
ENDBRANCH   1  15
BRANCH   5  31
HETATM   31  C   UNL     1      41.307 -12.010   6.352  1.00  0.00     0.168 C 
BRANCH  31  32
HETATM   32  C   UNL     1      40.963 -11.032   5.226  1.00  0.00     0.140 C 
HETATM   33  O   UNL     1      41.397 -11.540   3.948  1.00  0.00    -0.384 OA
HETATM   34  C   UNL     1      40.599 -10.849   2.977  1.00  0.00     0.168 C 
HETATM   35  C   UNL     1      39.217 -10.786   3.586  1.00  0.00     0.029 C 
HETATM   36  C   UNL     1      39.465 -10.781   5.081  1.00  0.00     0.036 C 
ENDBRANCH  31  32
ENDBRANCH   5  31
TORSDOF 6
ENDMDL
MODEL 10
REMARK VINA RESULT:      -7.7      3.678      7.913
REMARK  6 active torsions:
REMARK  status: ('A' for Active; 'I' for Inactive)
REMARK    1  A    between atoms: C_3  and  C_4 
REMARK    2  A    between atoms: C_4  and  C_5 
REMARK    3  A    between atoms: N_8  and  C_10 
REMARK    4  A    between atoms: C_10  and  C_11 
REMARK    5  A    between atoms: N_24  and  C_25 
REMARK    6  A    between atoms: C_25  and  C_26 
ROOT
HETATM    1  C   UNL     1      41.894 -15.818   3.445  1.00  0.00     0.164 C 
HETATM    2  N   UNL     1      42.666 -14.613   3.190  1.00  0.00    -0.319 N 
HETATM    3  C   UNL     1      42.084 -13.830   2.217  1.00  0.00     0.326 C 
HETATM    4  O   UNL     1      42.650 -12.870   1.723  1.00  0.00    -0.247 OA
HETATM    5  N   UNL     1      40.860 -14.329   1.915  1.00  0.00    -0.265 N 
HETATM    6  C   UNL     1      40.725 -15.574   2.463  1.00  0.00     0.263 C 
HETATM    7  O   UNL     1      39.815 -16.364   2.247  1.00  0.00    -0.270 OA
HETATM    8  H   UNL     1      43.678 -14.683   3.115  1.00  0.00     0.166 HD
ENDROOT
BRANCH   1   9
HETATM    9  C   UNL     1      42.741 -17.032   3.073  1.00  0.00     0.072 A 
HETATM   10  C   UNL     1      43.504 -17.100   1.912  1.00  0.00     0.030 A 
HETATM   11  C   UNL     1      44.243 -18.253   1.657  1.00  0.00     0.003 A 
HETATM   12  C   UNL     1      44.196 -19.313   2.554  1.00  0.00     0.019 A 
HETATM   13  C   UNL     1      43.394 -19.186   3.672  1.00  0.00     0.117 A 
HETATM   14  N   UNL     1      42.653 -18.087   3.943  1.00  0.00    -0.262 NA
ENDBRANCH   1   9
BRANCH   1  15
HETATM   15  C   UNL     1      41.347 -15.870   4.916  1.00  0.00     0.033 C 
HETATM   16  C   UNL     1      40.077 -15.025   5.162  1.00  0.00     0.036 C 
HETATM   17  C   UNL     1      40.313 -13.517   5.243  1.00  0.00     0.235 C 
HETATM   18  N   UNL     1      41.428 -13.180   6.207  1.00  0.00    -0.067 N 
HETATM   19  H   UNL     1      41.065 -13.356   7.155  1.00  0.00     0.280 HD
HETATM   20  C   UNL     1      42.682 -14.007   6.030  1.00  0.00     0.235 C 
HETATM   21  C   UNL     1      42.354 -15.487   6.016  1.00  0.00     0.036 C 
BRANCH  18  22
HETATM   22  C   UNL     1      41.809 -11.700   6.168  1.00  0.00     0.278 C 
BRANCH  22  23
HETATM   23  C   UNL     1      41.423 -10.872   7.356  1.00  0.00     0.028 A 
HETATM   24  C   UNL     1      42.219 -10.737   8.498  1.00  0.00     0.045 A 
HETATM   25 CL   UNL     1      43.719 -11.579   8.637  1.00  0.00    -0.084 Cl
HETATM   26  C   UNL     1      41.806  -9.931   9.564  1.00  0.00     0.024 A 
HETATM   27  C   UNL     1      40.593  -9.246   9.500  1.00  0.00     0.005 A 
HETATM   28  C   UNL     1      39.790  -9.367   8.369  1.00  0.00     0.043 A 
HETATM   29  C   UNL     1      40.211 -10.172   7.317  1.00  0.00     0.126 A 
HETATM   30  F   UNL     1      39.424 -10.281   6.238  1.00  0.00    -0.205 F 
ENDBRANCH  22  23
ENDBRANCH  18  22
ENDBRANCH   1  15
BRANCH   5  31
HETATM   31  C   UNL     1      39.980 -13.739   0.917  1.00  0.00     0.168 C 
BRANCH  31  32
HETATM   32  C   UNL     1      38.711 -13.117   1.507  1.00  0.00     0.140 C 
HETATM   33  O   UNL     1      38.814 -11.679   1.555  1.00  0.00    -0.384 OA
HETATM   34  C   UNL     1      37.461 -11.206   1.613  1.00  0.00     0.168 C 
HETATM   35  C   UNL     1      36.697 -12.100   0.663  1.00  0.00     0.029 C 
HETATM   36  C   UNL     1      37.457 -13.412   0.689  1.00  0.00     0.036 C 
ENDBRANCH  31  32
ENDBRANCH   5  31
TORSDOF 6
ENDMDL
