MODEL 1
REMARK VINA RESULT:      -9.3      0.000      0.000
REMARK  7 active torsions:
REMARK  status: ('A' for Active; 'I' for Inactive)
REMARK    1  A    between atoms: C_4  and  N_5 
REMARK    2  A    between atoms: C_6  and  S_7 
REMARK    3  A    between atoms: S_7  and  C_8 
REMARK    4  A    between atoms: C_8  and  C_9 
REMARK       I    between atoms: C_9  and  N_10 
REMARK    5  A    between atoms: C_12  and  C_13 
REMARK    6  A    between atoms: C_13  and  N_14 
REMARK       I    between atoms: N_14  and  C_15 
REMARK       I    between atoms: C_15  and  N_16 
REMARK    7  A    between atoms: N_16  and  C_17 
ROOT
HETATM    1  C   UNL     1      42.167 -13.291   3.472  1.00  0.00     0.229 C 
HETATM    2  N   UNL     1      42.018 -14.151   4.576  1.00  0.00    -0.351 N 
HETATM    3  C   UNL     1      43.174 -15.006   4.859  1.00  0.00     0.132 C 
HETATM    4  C   UNL     1      43.151 -15.561   6.285  1.00  0.00     0.021 C 
HETATM    5  C   UNL     1      41.852 -16.351   6.485  1.00  0.00     0.009 C 
HETATM    6  C   UNL     1      40.668 -15.417   6.286  1.00  0.00     0.020 C 
HETATM    7  C   UNL     1      40.708 -14.695   4.942  1.00  0.00     0.126 C 
HETATM    8  O   UNL     1      43.205 -13.311   2.801  1.00  0.00    -0.273 OA
ENDROOT
BRANCH   1   9
HETATM    9  C   UNL     1      41.149 -12.180   3.242  1.00  0.00     0.185 C 
BRANCH   9  10
HETATM   10  S   UNL     1      40.832 -11.684   1.542  1.00  0.00    -0.082 SA
BRANCH  10  11
HETATM   11  C   UNL     1      39.257 -12.325   1.219  1.00  0.00     0.173 A 
HETATM   12  N   UNL     1      39.005 -13.644   0.850  1.00  0.00    -0.299 N 
HETATM   13  C   UNL     1      37.646 -13.689   0.606  1.00  0.00     0.118 A 
HETATM   14  C   UNL     1      37.166 -12.423   0.830  1.00  0.00     0.137 A 
HETATM   15  N   UNL     1      38.172 -11.585   1.210  1.00  0.00    -0.235 NA
BRANCH  12  16
HETATM   16  C   UNL     1      39.906 -14.751   0.750  1.00  0.00     0.047 A 
HETATM   17  C   UNL     1      39.998 -15.641   1.839  1.00  0.00     0.037 A 
HETATM   18  C   UNL     1      40.873 -16.734   1.818  1.00  0.00    -0.060 A 
HETATM   19  C   UNL     1      40.994 -17.650   3.000  1.00  0.00     0.048 C 
HETATM   20  C   UNL     1      41.638 -16.963   0.676  1.00  0.00     0.007 A 
HETATM   21  C   UNL     1      41.540 -16.106  -0.421  1.00  0.00     0.009 A 
HETATM   22  C   UNL     1      40.695 -14.980  -0.399  1.00  0.00    -0.035 A 
HETATM   23  C   UNL     1      40.732 -14.081  -1.606  1.00  0.00     0.050 C 
ENDBRANCH  12  16
ENDBRANCH  10  11
ENDBRANCH   9  10
ENDBRANCH   1   9
BRANCH   4  24
HETATM   24  C   UNL     1      44.391 -16.414   6.566  1.00  0.00     0.130 C 
BRANCH  24  25
HETATM   25  N   UNL     1      44.030 -17.753   6.999  1.00  0.00    -0.342 N 
HETATM   26  C   UNL     1      43.984 -18.922   6.300  1.00  0.00     0.320 C 
HETATM   27  N   UNL     1      44.235 -18.824   4.961  1.00  0.00    -0.309 N 
HETATM   28  O   UNL     1      43.726 -19.945   6.926  1.00  0.00    -0.247 OA
HETATM   29  H   UNL     1      44.463 -17.907   4.617  1.00  0.00     0.170 HD
HETATM   30  H   UNL     1      43.918 -17.925   7.992  1.00  0.00     0.164 HD
BRANCH  27  31
HETATM   31  C   UNL     1      44.237 -19.863   4.006  1.00  0.00     0.039 A 
HETATM   32  C   UNL     1      44.647 -21.170   4.273  1.00  0.00     0.071 A 
HETATM   33  C   UNL     1      44.611 -22.127   3.262  1.00  0.00     0.118 A 
HETATM   34  F   UNL     1      45.007 -23.379   3.526  1.00  0.00    -0.206 F 
HETATM   35  C   UNL     1      44.170 -21.811   1.983  1.00  0.00     0.042 A 
HETATM   36  C   UNL     1      43.759 -20.512   1.704  1.00  0.00     0.005 A 
HETATM   37  C   UNL     1      43.793 -19.543   2.713  1.00  0.00     0.030 A 
ENDBRANCH  27  31
ENDBRANCH  24  25
ENDBRANCH   4  24
TORSDOF 7
ENDMDL
MODEL 2
REMARK VINA RESULT:      -9.0      1.734      2.137
REMARK  7 active torsions:
REMARK  status: ('A' for Active; 'I' for Inactive)
REMARK    1  A    between atoms: C_4  and  N_5 
REMARK    2  A    between atoms: C_6  and  S_7 
REMARK    3  A    between atoms: S_7  and  C_8 
REMARK    4  A    between atoms: C_8  and  C_9 
REMARK       I    between atoms: C_9  and  N_10 
REMARK    5  A    between atoms: C_12  and  C_13 
REMARK    6  A    between atoms: C_13  and  N_14 
REMARK       I    between atoms: N_14  and  C_15 
REMARK       I    between atoms: C_15  and  N_16 
REMARK    7  A    between atoms: N_16  and  C_17 
ROOT
HETATM    1  C   UNL     1      41.716 -12.175   1.938  1.00  0.00     0.229 C 
HETATM    2  N   UNL     1      41.414 -12.444   3.286  1.00  0.00    -0.351 N 
HETATM    3  C   UNL     1      42.364 -13.323   3.973  1.00  0.00     0.132 C 
HETATM    4  C   UNL     1      42.260 -13.213   5.496  1.00  0.00     0.021 C 
HETATM    5  C   UNL     1      40.828 -13.556   5.918  1.00  0.00     0.009 C 
HETATM    6  C   UNL     1      39.870 -12.566   5.272  1.00  0.00     0.020 C 
HETATM    7  C   UNL     1      40.028 -12.498   3.756  1.00  0.00     0.126 C 
HETATM    8  O   UNL     1      42.706 -12.691   1.405  1.00  0.00    -0.273 OA
ENDROOT
BRANCH   1   9
HETATM    9  C   UNL     1      40.957 -11.077   1.202  1.00  0.00     0.185 C 
BRANCH   9  10
HETATM   10  S   UNL     1      40.983 -11.112  -0.597  1.00  0.00    -0.082 SA
BRANCH  10  11
HETATM   11  C   UNL     1      39.433 -11.756  -1.013  1.00  0.00     0.173 A 
HETATM   12  N   UNL     1      39.107 -13.110  -0.979  1.00  0.00    -0.299 N 
HETATM   13  C   UNL     1      37.817 -13.177  -1.471  1.00  0.00     0.118 A 
HETATM   14  C   UNL     1      37.447 -11.890  -1.774  1.00  0.00     0.137 A 
HETATM   15  N   UNL     1      38.455 -11.017  -1.486  1.00  0.00    -0.235 NA
BRANCH  12  16
HETATM   16  C   UNL     1      39.884 -14.223  -0.526  1.00  0.00     0.047 A 
HETATM   17  C   UNL     1      39.753 -14.629   0.817  1.00  0.00     0.037 A 
HETATM   18  C   UNL     1      40.497 -15.698   1.333  1.00  0.00    -0.060 A 
HETATM   19  C   UNL     1      40.381 -16.095   2.776  1.00  0.00     0.048 C 
HETATM   20  C   UNL     1      41.354 -16.395   0.484  1.00  0.00     0.007 A 
HETATM   21  C   UNL     1      41.476 -16.020  -0.855  1.00  0.00     0.009 A 
HETATM   22  C   UNL     1      40.766 -14.923  -1.378  1.00  0.00    -0.035 A 
HETATM   23  C   UNL     1      41.038 -14.562  -2.814  1.00  0.00     0.050 C 
ENDBRANCH  12  16
ENDBRANCH  10  11
ENDBRANCH   9  10
ENDBRANCH   1   9
BRANCH   4  24
HETATM   24  C   UNL     1      43.293 -14.108   6.186  1.00  0.00     0.130 C 
BRANCH  24  25
HETATM   25  N   UNL     1      42.690 -15.335   6.678  1.00  0.00    -0.342 N 
HETATM   26  C   UNL     1      42.822 -16.618   6.238  1.00  0.00     0.320 C 
HETATM   27  N   UNL     1      43.570 -16.785   5.107  1.00  0.00    -0.309 N 
HETATM   28  O   UNL     1      42.265 -17.498   6.887  1.00  0.00    -0.247 OA
HETATM   29  H   UNL     1      43.983 -15.954   4.721  1.00  0.00     0.170 HD
HETATM   30  H   UNL     1      42.196 -15.309   7.563  1.00  0.00     0.164 HD
BRANCH  27  31
HETATM   31  C   UNL     1      43.853 -17.991   4.431  1.00  0.00     0.039 A 
HETATM   32  C   UNL     1      44.521 -19.072   5.008  1.00  0.00     0.071 A 
HETATM   33  C   UNL     1      44.752 -20.223   4.258  1.00  0.00     0.118 A 
HETATM   34  F   UNL     1      45.396 -21.256   4.817  1.00  0.00    -0.206 F 
HETATM   35  C   UNL     1      44.328 -20.323   2.938  1.00  0.00     0.042 A 
HETATM   36  C   UNL     1      43.661 -19.252   2.353  1.00  0.00     0.005 A 
HETATM   37  C   UNL     1      43.425 -18.092   3.098  1.00  0.00     0.030 A 
ENDBRANCH  27  31
ENDBRANCH  24  25
ENDBRANCH   4  24
TORSDOF 7
ENDMDL
MODEL 3
REMARK VINA RESULT:      -8.7      4.958      7.430
REMARK  7 active torsions:
REMARK  status: ('A' for Active; 'I' for Inactive)
REMARK    1  A    between atoms: C_4  and  N_5 
REMARK    2  A    between atoms: C_6  and  S_7 
REMARK    3  A    between atoms: S_7  and  C_8 
REMARK    4  A    between atoms: C_8  and  C_9 
REMARK       I    between atoms: C_9  and  N_10 
REMARK    5  A    between atoms: C_12  and  C_13 
REMARK    6  A    between atoms: C_13  and  N_14 
REMARK       I    between atoms: N_14  and  C_15 
REMARK       I    between atoms: C_15  and  N_16 
REMARK    7  A    between atoms: N_16  and  C_17 
ROOT
HETATM    1  C   UNL     1      41.078 -11.453   6.724  1.00  0.00     0.229 C 
HETATM    2  N   UNL     1      40.970 -12.520   5.813  1.00  0.00    -0.351 N 
HETATM    3  C   UNL     1      42.228 -13.211   5.513  1.00  0.00     0.132 C 
HETATM    4  C   UNL     1      41.999 -14.598   4.911  1.00  0.00     0.021 C 
HETATM    5  C   UNL     1      41.164 -14.450   3.634  1.00  0.00     0.009 C 
HETATM    6  C   UNL     1      39.823 -13.824   3.988  1.00  0.00     0.020 C 
HETATM    7  C   UNL     1      39.971 -12.506   4.743  1.00  0.00     0.126 C 
HETATM    8  O   UNL     1      42.180 -11.137   7.189  1.00  0.00    -0.273 OA
ENDROOT
BRANCH   1   9
HETATM    9  C   UNL     1      39.814 -10.835   7.310  1.00  0.00     0.185 C 
BRANCH   9  10
HETATM   10  S   UNL     1      39.497 -11.098   9.062  1.00  0.00    -0.082 SA
BRANCH  10  11
HETATM   11  C   UNL     1      39.864  -9.565   9.776  1.00  0.00     0.173 A 
HETATM   12  N   UNL     1      40.954  -9.326  10.610  1.00  0.00    -0.299 N 
HETATM   13  C   UNL     1      40.807  -8.013  11.016  1.00  0.00     0.118 A 
HETATM   14  C   UNL     1      39.660  -7.546  10.423  1.00  0.00     0.137 A 
HETATM   15  N   UNL     1      39.084  -8.515   9.656  1.00  0.00    -0.235 NA
BRANCH  12  16
HETATM   16  C   UNL     1      42.027 -10.196  10.981  1.00  0.00     0.047 A 
HETATM   17  C   UNL     1      43.227 -10.132  10.245  1.00  0.00     0.037 A 
HETATM   18  C   UNL     1      44.310 -10.969  10.540  1.00  0.00    -0.060 A 
HETATM   19  C   UNL     1      45.568 -10.922   9.722  1.00  0.00     0.048 C 
HETATM   20  C   UNL     1      44.207 -11.854  11.611  1.00  0.00     0.007 A 
HETATM   21  C   UNL     1      43.034 -11.911  12.366  1.00  0.00     0.009 A 
HETATM   22  C   UNL     1      41.922 -11.106  12.056  1.00  0.00    -0.035 A 
HETATM   23  C   UNL     1      40.684 -11.312  12.887  1.00  0.00     0.050 C 
ENDBRANCH  12  16
ENDBRANCH  10  11
ENDBRANCH   9  10
ENDBRANCH   1   9
BRANCH   4  24
HETATM   24  C   UNL     1      43.328 -15.313   4.648  1.00  0.00     0.130 C 
BRANCH  24  25
HETATM   25  N   UNL     1      43.575 -16.355   5.630  1.00  0.00    -0.342 N 
HETATM   26  C   UNL     1      43.843 -17.680   5.459  1.00  0.00     0.320 C 
HETATM   27  N   UNL     1      43.795 -18.135   4.171  1.00  0.00    -0.309 N 
HETATM   28  O   UNL     1      44.101 -18.339   6.461  1.00  0.00    -0.247 OA
HETATM   29  H   UNL     1      43.600 -17.447   3.464  1.00  0.00     0.170 HD
HETATM   30  H   UNL     1      43.715 -16.083   6.597  1.00  0.00     0.164 HD
BRANCH  27  31
HETATM   31  C   UNL     1      44.013 -19.452   3.713  1.00  0.00     0.039 A 
HETATM   32  C   UNL     1      44.601 -20.458   4.479  1.00  0.00     0.071 A 
HETATM   33  C   UNL     1      44.771 -21.730   3.938  1.00  0.00     0.118 A 
HETATM   34  F   UNL     1      45.338 -22.692   4.679  1.00  0.00    -0.206 F 
HETATM   35  C   UNL     1      44.364 -22.025   2.642  1.00  0.00     0.042 A 
HETATM   36  C   UNL     1      43.776 -21.030   1.869  1.00  0.00     0.005 A 
HETATM   37  C   UNL     1      43.602 -19.749   2.404  1.00  0.00     0.030 A 
ENDBRANCH  27  31
ENDBRANCH  24  25
ENDBRANCH   4  24
TORSDOF 7
ENDMDL
MODEL 4
REMARK VINA RESULT:      -8.6      2.766      4.817
REMARK  7 active torsions:
REMARK  status: ('A' for Active; 'I' for Inactive)
REMARK    1  A    between atoms: C_4  and  N_5 
REMARK    2  A    between atoms: C_6  and  S_7 
REMARK    3  A    between atoms: S_7  and  C_8 
REMARK    4  A    between atoms: C_8  and  C_9 
REMARK       I    between atoms: C_9  and  N_10 
REMARK    5  A    between atoms: C_12  and  C_13 
REMARK    6  A    between atoms: C_13  and  N_14 
REMARK       I    between atoms: N_14  and  C_15 
REMARK       I    between atoms: C_15  and  N_16 
REMARK    7  A    between atoms: N_16  and  C_17 
ROOT
HETATM    1  C   UNL     1      41.860 -11.785  -0.748  1.00  0.00     0.229 C 
HETATM    2  N   UNL     1      41.408 -13.011  -1.270  1.00  0.00    -0.351 N 
HETATM    3  C   UNL     1      41.837 -14.199  -0.527  1.00  0.00     0.132 C 
HETATM    4  C   UNL     1      40.973 -15.423  -0.840  1.00  0.00     0.021 C 
HETATM    5  C   UNL     1      41.032 -15.695  -2.347  1.00  0.00     0.009 C 
HETATM    6  C   UNL     1      40.487 -14.486  -3.092  1.00  0.00     0.020 C 
HETATM    7  C   UNL     1      41.194 -13.190  -2.707  1.00  0.00     0.126 C 
HETATM    8  O   UNL     1      42.591 -11.762   0.250  1.00  0.00    -0.273 OA
ENDROOT
BRANCH   1   9
HETATM    9  C   UNL     1      41.270 -10.481  -1.272  1.00  0.00     0.185 C 
BRANCH   9  10
HETATM   10  S   UNL     1      39.481 -10.292  -1.200  1.00  0.00    -0.082 SA
BRANCH  10  11
HETATM   11  C   UNL     1      39.196  -9.741   0.416  1.00  0.00     0.173 A 
HETATM   12  N   UNL     1      38.819 -10.566   1.473  1.00  0.00    -0.299 N 
HETATM   13  C   UNL     1      38.614  -9.707   2.536  1.00  0.00     0.118 A 
HETATM   14  C   UNL     1      38.866  -8.440   2.069  1.00  0.00     0.137 A 
HETATM   15  N   UNL     1      39.227  -8.473   0.755  1.00  0.00    -0.235 NA
BRANCH  12  16
HETATM   16  C   UNL     1      38.681 -11.989   1.515  1.00  0.00     0.047 A 
HETATM   17  C   UNL     1      39.645 -12.736   2.220  1.00  0.00     0.037 A 
HETATM   18  C   UNL     1      39.583 -14.134   2.286  1.00  0.00    -0.060 A 
HETATM   19  C   UNL     1      40.640 -14.921   3.003  1.00  0.00     0.048 C 
HETATM   20  C   UNL     1      38.519 -14.791   1.672  1.00  0.00     0.007 A 
HETATM   21  C   UNL     1      37.542 -14.064   0.991  1.00  0.00     0.009 A 
HETATM   22  C   UNL     1      37.613 -12.662   0.882  1.00  0.00    -0.035 A 
HETATM   23  C   UNL     1      36.548 -11.992   0.055  1.00  0.00     0.050 C 
ENDBRANCH  12  16
ENDBRANCH  10  11
ENDBRANCH   9  10
ENDBRANCH   1   9
BRANCH   4  24
HETATM   24  C   UNL     1      41.416 -16.637  -0.019  1.00  0.00     0.130 C 
BRANCH  24  25
HETATM   25  N   UNL     1      42.788 -16.498   0.440  1.00  0.00    -0.342 N 
HETATM   26  C   UNL     1      43.573 -17.362   1.144  1.00  0.00     0.320 C 
HETATM   27  N   UNL     1      42.964 -18.511   1.563  1.00  0.00    -0.309 N 
HETATM   28  O   UNL     1      44.740 -17.037   1.335  1.00  0.00    -0.247 OA
HETATM   29  H   UNL     1      42.004 -18.631   1.288  1.00  0.00     0.170 HD
HETATM   30  H   UNL     1      43.335 -15.717   0.094  1.00  0.00     0.164 HD
BRANCH  27  31
HETATM   31  C   UNL     1      43.530 -19.561   2.316  1.00  0.00     0.039 A 
HETATM   32  C   UNL     1      44.000 -19.421   3.622  1.00  0.00     0.071 A 
HETATM   33  C   UNL     1      44.542 -20.520   4.284  1.00  0.00     0.118 A 
HETATM   34  F   UNL     1      44.993 -20.378   5.538  1.00  0.00    -0.206 F 
HETATM   35  C   UNL     1      44.625 -21.765   3.672  1.00  0.00     0.042 A 
HETATM   36  C   UNL     1      44.159 -21.917   2.370  1.00  0.00     0.005 A 
HETATM   37  C   UNL     1      43.614 -20.818   1.697  1.00  0.00     0.030 A 
ENDBRANCH  27  31
ENDBRANCH  24  25
ENDBRANCH   4  24
TORSDOF 7
ENDMDL
MODEL 5
REMARK VINA RESULT:      -8.6      4.465      7.099
REMARK  7 active torsions:
REMARK  status: ('A' for Active; 'I' for Inactive)
REMARK    1  A    between atoms: C_4  and  N_5 
REMARK    2  A    between atoms: C_6  and  S_7 
REMARK    3  A    between atoms: S_7  and  C_8 
REMARK    4  A    between atoms: C_8  and  C_9 
REMARK       I    between atoms: C_9  and  N_10 
REMARK    5  A    between atoms: C_12  and  C_13 
REMARK    6  A    between atoms: C_13  and  N_14 
REMARK       I    between atoms: N_14  and  C_15 
REMARK       I    between atoms: C_15  and  N_16 
REMARK    7  A    between atoms: N_16  and  C_17 
ROOT
HETATM    1  C   UNL     1      39.482 -12.542   5.133  1.00  0.00     0.229 C 
HETATM    2  N   UNL     1      40.176 -13.764   5.050  1.00  0.00    -0.351 N 
HETATM    3  C   UNL     1      40.229 -14.359   3.712  1.00  0.00     0.132 C 
HETATM    4  C   UNL     1      41.345 -15.398   3.583  1.00  0.00     0.021 C 
HETATM    5  C   UNL     1      41.125 -16.491   4.636  1.00  0.00     0.009 C 
HETATM    6  C   UNL     1      41.175 -15.863   6.020  1.00  0.00     0.020 C 
HETATM    7  C   UNL     1      40.198 -14.701   6.175  1.00  0.00     0.126 C 
HETATM    8  O   UNL     1      38.945 -12.059   4.128  1.00  0.00    -0.273 OA
ENDROOT
BRANCH   1   9
HETATM    9  C   UNL     1      39.583 -11.705   6.403  1.00  0.00     0.185 C 
BRANCH   9  10
HETATM   10  S   UNL     1      41.231 -11.307   7.005  1.00  0.00    -0.082 SA
BRANCH  10  11
HETATM   11  C   UNL     1      41.052  -9.714   7.657  1.00  0.00     0.173 A 
HETATM   12  N   UNL     1      41.402  -9.352   8.956  1.00  0.00    -0.299 N 
HETATM   13  C   UNL     1      41.007  -8.032   9.073  1.00  0.00     0.118 A 
HETATM   14  C   UNL     1      40.448  -7.683   7.869  1.00  0.00     0.137 A 
HETATM   15  N   UNL     1      40.481  -8.732   6.999  1.00  0.00    -0.235 NA
BRANCH  12  16
HETATM   16  C   UNL     1      42.047 -10.121   9.975  1.00  0.00     0.047 A 
HETATM   17  C   UNL     1      43.423 -10.394   9.839  1.00  0.00     0.037 A 
HETATM   18  C   UNL     1      44.114 -11.158  10.788  1.00  0.00    -0.060 A 
HETATM   19  C   UNL     1      45.569 -11.479  10.610  1.00  0.00     0.048 C 
HETATM   20  C   UNL     1      43.429 -11.621  11.909  1.00  0.00     0.007 A 
HETATM   21  C   UNL     1      42.072 -11.337  12.071  1.00  0.00     0.009 A 
HETATM   22  C   UNL     1      41.354 -10.605  11.106  1.00  0.00    -0.035 A 
HETATM   23  C   UNL     1      39.879 -10.431  11.347  1.00  0.00     0.050 C 
ENDBRANCH  12  16
ENDBRANCH  10  11
ENDBRANCH   9  10
ENDBRANCH   1   9
BRANCH   4  24
HETATM   24  C   UNL     1      41.405 -15.971   2.164  1.00  0.00     0.130 C 
BRANCH  24  25
HETATM   25  N   UNL     1      42.776 -16.197   1.739  1.00  0.00    -0.342 N 
HETATM   26  C   UNL     1      43.547 -17.318   1.814  1.00  0.00     0.320 C 
HETATM   27  N   UNL     1      42.987 -18.383   2.461  1.00  0.00    -0.309 N 
HETATM   28  O   UNL     1      44.660 -17.274   1.300  1.00  0.00    -0.247 OA
HETATM   29  H   UNL     1      42.047 -18.256   2.795  1.00  0.00     0.170 HD
HETATM   30  H   UNL     1      43.228 -15.488   1.172  1.00  0.00     0.164 HD
BRANCH  27  31
HETATM   31  C   UNL     1      43.563 -19.650   2.695  1.00  0.00     0.039 A 
HETATM   32  C   UNL     1      44.264 -19.987   3.854  1.00  0.00     0.071 A 
HETATM   33  C   UNL     1      44.795 -21.267   3.993  1.00  0.00     0.118 A 
HETATM   34  F   UNL     1      45.468 -21.584   5.107  1.00  0.00    -0.206 F 
HETATM   35  C   UNL     1      44.641 -22.226   2.999  1.00  0.00     0.042 A 
HETATM   36  C   UNL     1      43.944 -21.901   1.840  1.00  0.00     0.005 A 
HETATM   37  C   UNL     1      43.408 -20.618   1.691  1.00  0.00     0.030 A 
ENDBRANCH  27  31
ENDBRANCH  24  25
ENDBRANCH   4  24
TORSDOF 7
ENDMDL
MODEL 6
REMARK VINA RESULT:      -8.6      4.131      6.833
REMARK  7 active torsions:
REMARK  status: ('A' for Active; 'I' for Inactive)
REMARK    1  A    between atoms: C_4  and  N_5 
REMARK    2  A    between atoms: C_6  and  S_7 
REMARK    3  A    between atoms: S_7  and  C_8 
REMARK    4  A    between atoms: C_8  and  C_9 
REMARK       I    between atoms: C_9  and  N_10 
REMARK    5  A    between atoms: C_12  and  C_13 
REMARK    6  A    between atoms: C_13  and  N_14 
REMARK       I    between atoms: N_14  and  C_15 
REMARK       I    between atoms: C_15  and  N_16 
REMARK    7  A    between atoms: N_16  and  C_17 
ROOT
HETATM    1  C   UNL     1      40.873 -11.282   4.986  1.00  0.00     0.229 C 
HETATM    2  N   UNL     1      41.064 -12.676   5.050  1.00  0.00    -0.351 N 
HETATM    3  C   UNL     1      41.836 -13.248   3.942  1.00  0.00     0.132 C 
HETATM    4  C   UNL     1      42.398 -14.631   4.281  1.00  0.00     0.021 C 
HETATM    5  C   UNL     1      41.235 -15.559   4.647  1.00  0.00     0.009 C 
HETATM    6  C   UNL     1      40.512 -14.995   5.861  1.00  0.00     0.020 C 
HETATM    7  C   UNL     1      40.062 -13.551   5.659  1.00  0.00     0.126 C 
HETATM    8  O   UNL     1      41.316 -10.634   4.030  1.00  0.00    -0.273 OA
ENDROOT
BRANCH   1   9
HETATM    9  C   UNL     1      40.321 -10.543   6.199  1.00  0.00     0.185 C 
BRANCH   9  10
HETATM   10  S   UNL     1      41.501  -9.700   7.265  1.00  0.00    -0.082 SA
BRANCH  10  11
HETATM   11  C   UNL     1      40.971 -10.108   8.860  1.00  0.00     0.173 A 
HETATM   12  N   UNL     1      41.764 -10.742   9.814  1.00  0.00    -0.299 N 
HETATM   13  C   UNL     1      40.922 -10.953  10.890  1.00  0.00     0.118 A 
HETATM   14  C   UNL     1      39.695 -10.451  10.531  1.00  0.00     0.137 A 
HETATM   15  N   UNL     1      39.737  -9.930   9.272  1.00  0.00    -0.235 NA
BRANCH  12  16
HETATM   16  C   UNL     1      43.148 -11.100   9.758  1.00  0.00     0.047 A 
HETATM   17  C   UNL     1      43.575 -11.967   8.733  1.00  0.00     0.037 A 
HETATM   18  C   UNL     1      44.911 -12.375   8.630  1.00  0.00    -0.060 A 
HETATM   19  C   UNL     1      45.346 -13.333   7.559  1.00  0.00     0.048 C 
HETATM   20  C   UNL     1      45.840 -11.877   9.540  1.00  0.00     0.007 A 
HETATM   21  C   UNL     1      45.438 -10.997  10.546  1.00  0.00     0.009 A 
HETATM   22  C   UNL     1      44.092 -10.610  10.688  1.00  0.00    -0.035 A 
HETATM   23  C   UNL     1      43.761  -9.722  11.858  1.00  0.00     0.050 C 
ENDBRANCH  12  16
ENDBRANCH  10  11
ENDBRANCH   9  10
ENDBRANCH   1   9
BRANCH   4  24
HETATM   24  C   UNL     1      43.235 -15.185   3.125  1.00  0.00     0.130 C 
BRANCH  24  25
HETATM   25  N   UNL     1      42.474 -16.126   2.320  1.00  0.00    -0.342 N 
HETATM   26  C   UNL     1      42.565 -17.482   2.231  1.00  0.00     0.320 C 
HETATM   27  N   UNL     1      43.581 -18.058   2.941  1.00  0.00    -0.309 N 
HETATM   28  O   UNL     1      41.739 -18.059   1.531  1.00  0.00    -0.247 OA
HETATM   29  H   UNL     1      44.147 -17.436   3.490  1.00  0.00     0.170 HD
HETATM   30  H   UNL     1      41.648 -15.789   1.837  1.00  0.00     0.164 HD
BRANCH  27  31
HETATM   31  C   UNL     1      43.913 -19.428   3.014  1.00  0.00     0.039 A 
HETATM   32  C   UNL     1      44.491 -20.033   4.130  1.00  0.00     0.071 A 
HETATM   33  C   UNL     1      44.781 -21.395   4.106  1.00  0.00     0.118 A 
HETATM   34  F   UNL     1      45.338 -21.969   5.181  1.00  0.00    -0.206 F 
HETATM   35  C   UNL     1      44.503 -22.174   2.989  1.00  0.00     0.042 A 
HETATM   36  C   UNL     1      43.926 -21.582   1.871  1.00  0.00     0.005 A 
HETATM   37  C   UNL     1      43.633 -20.214   1.885  1.00  0.00     0.030 A 
ENDBRANCH  27  31
ENDBRANCH  24  25
ENDBRANCH   4  24
TORSDOF 7
ENDMDL
MODEL 7
REMARK VINA RESULT:      -8.6      2.082      2.983
REMARK  7 active torsions:
REMARK  status: ('A' for Active; 'I' for Inactive)
REMARK    1  A    between atoms: C_4  and  N_5 
REMARK    2  A    between atoms: C_6  and  S_7 
REMARK    3  A    between atoms: S_7  and  C_8 
REMARK    4  A    between atoms: C_8  and  C_9 
REMARK       I    between atoms: C_9  and  N_10 
REMARK    5  A    between atoms: C_12  and  C_13 
REMARK    6  A    between atoms: C_13  and  N_14 
REMARK       I    between atoms: N_14  and  C_15 
REMARK       I    between atoms: C_15  and  N_16 
REMARK    7  A    between atoms: N_16  and  C_17 
ROOT
HETATM    1  C   UNL     1      39.075 -13.116   2.259  1.00  0.00     0.229 C 
HETATM    2  N   UNL     1      40.234 -12.971   3.044  1.00  0.00    -0.351 N 
HETATM    3  C   UNL     1      40.998 -14.204   3.259  1.00  0.00     0.132 C 
HETATM    4  C   UNL     1      42.436 -13.925   3.702  1.00  0.00     0.021 C 
HETATM    5  C   UNL     1      42.403 -13.095   4.990  1.00  0.00     0.009 C 
HETATM    6  C   UNL     1      41.695 -11.778   4.713  1.00  0.00     0.020 C 
HETATM    7  C   UNL     1      40.306 -11.972   4.112  1.00  0.00     0.126 C 
HETATM    8  O   UNL     1      38.747 -14.229   1.829  1.00  0.00    -0.273 OA
ENDROOT
BRANCH   1   9
HETATM    9  C   UNL     1      38.351 -11.875   1.751  1.00  0.00     0.185 C 
BRANCH   9  10
HETATM   10  S   UNL     1      38.458 -11.514  -0.009  1.00  0.00    -0.082 SA
BRANCH  10  11
HETATM   11  C   UNL     1      40.098 -11.006  -0.220  1.00  0.00     0.173 A 
HETATM   12  N   UNL     1      41.120 -11.825  -0.696  1.00  0.00    -0.299 N 
HETATM   13  C   UNL     1      42.261 -11.049  -0.615  1.00  0.00     0.118 A 
HETATM   14  C   UNL     1      41.874  -9.836  -0.100  1.00  0.00     0.137 A 
HETATM   15  N   UNL     1      40.532  -9.820   0.140  1.00  0.00    -0.235 NA
BRANCH  12  16
HETATM   16  C   UNL     1      41.059 -13.165  -1.192  1.00  0.00     0.047 A 
HETATM   17  C   UNL     1      41.357 -14.220  -0.307  1.00  0.00     0.037 A 
HETATM   18  C   UNL     1      41.337 -15.556  -0.730  1.00  0.00    -0.060 A 
HETATM   19  C   UNL     1      41.699 -16.669   0.210  1.00  0.00     0.048 C 
HETATM   20  C   UNL     1      40.974 -15.842  -2.044  1.00  0.00     0.007 A 
HETATM   21  C   UNL     1      40.651 -14.809  -2.925  1.00  0.00     0.009 A 
HETATM   22  C   UNL     1      40.706 -13.460  -2.527  1.00  0.00    -0.035 A 
HETATM   23  C   UNL     1      40.416 -12.429  -3.585  1.00  0.00     0.050 C 
ENDBRANCH  12  16
ENDBRANCH  10  11
ENDBRANCH   9  10
ENDBRANCH   1   9
BRANCH   4  24
HETATM   24  C   UNL     1      43.222 -15.228   3.877  1.00  0.00     0.130 C 
BRANCH  24  25
HETATM   25  N   UNL     1      42.405 -16.265   4.482  1.00  0.00    -0.342 N 
HETATM   26  C   UNL     1      42.533 -17.622   4.442  1.00  0.00     0.320 C 
HETATM   27  N   UNL     1      43.534 -18.101   3.645  1.00  0.00    -0.309 N 
HETATM   28  O   UNL     1      41.750 -18.283   5.116  1.00  0.00    -0.247 OA
HETATM   29  H   UNL     1      44.105 -17.412   3.187  1.00  0.00     0.170 HD
HETATM   30  H   UNL     1      41.700 -15.992   5.158  1.00  0.00     0.164 HD
BRANCH  27  31
HETATM   31  C   UNL     1      43.877 -19.449   3.408  1.00  0.00     0.039 A 
HETATM   32  C   UNL     1      44.520 -20.267   4.338  1.00  0.00     0.071 A 
HETATM   33  C   UNL     1      44.815 -21.588   4.011  1.00  0.00     0.118 A 
HETATM   34  F   UNL     1      45.434 -22.367   4.908  1.00  0.00    -0.206 F 
HETATM   35  C   UNL     1      44.479 -22.118   2.771  1.00  0.00     0.042 A 
HETATM   36  C   UNL     1      43.838 -21.313   1.836  1.00  0.00     0.005 A 
HETATM   37  C   UNL     1      43.538 -19.984   2.155  1.00  0.00     0.030 A 
ENDBRANCH  27  31
ENDBRANCH  24  25
ENDBRANCH   4  24
TORSDOF 7
ENDMDL
MODEL 8
REMARK VINA RESULT:      -8.4      5.051      7.485
REMARK  7 active torsions:
REMARK  status: ('A' for Active; 'I' for Inactive)
REMARK    1  A    between atoms: C_4  and  N_5 
REMARK    2  A    between atoms: C_6  and  S_7 
REMARK    3  A    between atoms: S_7  and  C_8 
REMARK    4  A    between atoms: C_8  and  C_9 
REMARK       I    between atoms: C_9  and  N_10 
REMARK    5  A    between atoms: C_12  and  C_13 
REMARK    6  A    between atoms: C_13  and  N_14 
REMARK       I    between atoms: N_14  and  C_15 
REMARK       I    between atoms: C_15  and  N_16 
REMARK    7  A    between atoms: N_16  and  C_17 
ROOT
HETATM    1  C   UNL     1      41.574 -11.892   6.586  1.00  0.00     0.229 C 
HETATM    2  N   UNL     1      42.412 -12.927   6.130  1.00  0.00    -0.351 N 
HETATM    3  C   UNL     1      41.840 -13.771   5.077  1.00  0.00     0.132 C 
HETATM    4  C   UNL     1      42.912 -14.552   4.314  1.00  0.00     0.021 C 
HETATM    5  C   UNL     1      43.696 -15.414   5.310  1.00  0.00     0.009 C 
HETATM    6  C   UNL     1      44.363 -14.506   6.333  1.00  0.00     0.020 C 
HETATM    7  C   UNL     1      43.374 -13.573   7.025  1.00  0.00     0.126 C 
HETATM    8  O   UNL     1      40.434 -11.761   6.124  1.00  0.00    -0.273 OA
ENDROOT
BRANCH   1   9
HETATM    9  C   UNL     1      42.148 -10.799   7.480  1.00  0.00     0.185 C 
BRANCH   9  10
HETATM   10  S   UNL     1      41.301  -9.211   7.498  1.00  0.00    -0.082 SA
BRANCH  10  11
HETATM   11  C   UNL     1      40.035  -9.439   8.655  1.00  0.00     0.173 A 
HETATM   12  N   UNL     1      40.242  -9.705  10.007  1.00  0.00    -0.299 N 
HETATM   13  C   UNL     1      38.977  -9.904  10.526  1.00  0.00     0.118 A 
HETATM   14  C   UNL     1      38.098  -9.758   9.482  1.00  0.00     0.137 A 
HETATM   15  N   UNL     1      38.764  -9.469   8.327  1.00  0.00    -0.235 NA
BRANCH  12  16
HETATM   16  C   UNL     1      41.463  -9.751  10.750  1.00  0.00     0.047 A 
HETATM   17  C   UNL     1      42.178 -10.965  10.790  1.00  0.00     0.037 A 
HETATM   18  C   UNL     1      43.370 -11.088  11.515  1.00  0.00    -0.060 A 
HETATM   19  C   UNL     1      44.099 -12.398  11.585  1.00  0.00     0.048 C 
HETATM   20  C   UNL     1      43.876  -9.971  12.175  1.00  0.00     0.007 A 
HETATM   21  C   UNL     1      43.194  -8.755  12.124  1.00  0.00     0.009 A 
HETATM   22  C   UNL     1      41.973  -8.626  11.434  1.00  0.00    -0.035 A 
HETATM   23  C   UNL     1      41.286  -7.289  11.516  1.00  0.00     0.050 C 
ENDBRANCH  12  16
ENDBRANCH  10  11
ENDBRANCH   9  10
ENDBRANCH   1   9
BRANCH   4  24
HETATM   24  C   UNL     1      42.292 -15.391   3.193  1.00  0.00     0.130 C 
BRANCH  24  25
HETATM   25  N   UNL     1      43.299 -15.852   2.254  1.00  0.00    -0.342 N 
HETATM   26  C   UNL     1      43.819 -17.098   2.062  1.00  0.00     0.320 C 
HETATM   27  N   UNL     1      43.397 -18.059   2.937  1.00  0.00    -0.309 N 
HETATM   28  O   UNL     1      44.607 -17.244   1.134  1.00  0.00    -0.247 OA
HETATM   29  H   UNL     1      42.719 -17.771   3.621  1.00  0.00     0.170 HD
HETATM   30  H   UNL     1      43.594 -15.223   1.515  1.00  0.00     0.164 HD
BRANCH  27  31
HETATM   31  C   UNL     1      43.783 -19.415   2.979  1.00  0.00     0.039 A 
HETATM   32  C   UNL     1      44.469 -20.001   4.044  1.00  0.00     0.071 A 
HETATM   33  C   UNL     1      44.805 -21.351   3.992  1.00  0.00     0.118 A 
HETATM   34  F   UNL     1      45.464 -21.906   5.018  1.00  0.00    -0.206 F 
HETATM   35  C   UNL     1      44.469 -22.139   2.897  1.00  0.00     0.042 A 
HETATM   36  C   UNL     1      43.785 -21.566   1.830  1.00  0.00     0.005 A 
HETATM   37  C   UNL     1      43.445 -20.210   1.872  1.00  0.00     0.030 A 
ENDBRANCH  27  31
ENDBRANCH  24  25
ENDBRANCH   4  24
TORSDOF 7
ENDMDL
MODEL 9
REMARK VINA RESULT:      -8.4      2.317      3.759
REMARK  7 active torsions:
REMARK  status: ('A' for Active; 'I' for Inactive)
REMARK    1  A    between atoms: C_4  and  N_5 
REMARK    2  A    between atoms: C_6  and  S_7 
REMARK    3  A    between atoms: S_7  and  C_8 
REMARK    4  A    between atoms: C_8  and  C_9 
REMARK       I    between atoms: C_9  and  N_10 
REMARK    5  A    between atoms: C_12  and  C_13 
REMARK    6  A    between atoms: C_13  and  N_14 
REMARK       I    between atoms: N_14  and  C_15 
REMARK       I    between atoms: C_15  and  N_16 
REMARK    7  A    between atoms: N_16  and  C_17 
ROOT
HETATM    1  C   UNL     1      38.501 -13.629   1.465  1.00  0.00     0.229 C 
HETATM    2  N   UNL     1      39.188 -13.131   2.589  1.00  0.00    -0.351 N 
HETATM    3  C   UNL     1      39.315 -14.071   3.706  1.00  0.00     0.132 C 
HETATM    4  C   UNL     1      40.427 -13.670   4.678  1.00  0.00     0.021 C 
HETATM    5  C   UNL     1      40.134 -12.262   5.207  1.00  0.00     0.009 C 
HETATM    6  C   UNL     1      40.107 -11.288   4.038  1.00  0.00     0.020 C 
HETATM    7  C   UNL     1      39.133 -11.712   2.943  1.00  0.00     0.126 C 
HETATM    8  O   UNL     1      38.030 -14.773   1.478  1.00  0.00    -0.273 OA
ENDROOT
BRANCH   1   9
HETATM    9  C   UNL     1      38.533 -12.847   0.157  1.00  0.00     0.185 C 
BRANCH   9  10
HETATM   10  S   UNL     1      38.307 -13.773  -1.369  1.00  0.00    -0.082 SA
BRANCH  10  11
HETATM   11  C   UNL     1      39.774 -13.488  -2.239  1.00  0.00     0.173 A 
HETATM   12  N   UNL     1      41.050 -13.712  -1.726  1.00  0.00    -0.299 N 
HETATM   13  C   UNL     1      41.911 -13.267  -2.712  1.00  0.00     0.118 A 
HETATM   14  C   UNL     1      41.125 -12.804  -3.738  1.00  0.00     0.137 A 
HETATM   15  N   UNL     1      39.802 -12.946  -3.436  1.00  0.00    -0.235 NA
BRANCH  12  16
HETATM   16  C   UNL     1      41.442 -14.289  -0.477  1.00  0.00     0.047 A 
HETATM   17  C   UNL     1      41.272 -15.676  -0.297  1.00  0.00     0.037 A 
HETATM   18  C   UNL     1      41.615 -16.304   0.907  1.00  0.00    -0.060 A 
HETATM   19  C   UNL     1      41.390 -17.775   1.102  1.00  0.00     0.048 C 
HETATM   20  C   UNL     1      42.174 -15.541   1.930  1.00  0.00     0.007 A 
HETATM   21  C   UNL     1      42.372 -14.171   1.758  1.00  0.00     0.009 A 
HETATM   22  C   UNL     1      41.994 -13.518   0.569  1.00  0.00    -0.035 A 
HETATM   23  C   UNL     1      42.180 -12.024   0.527  1.00  0.00     0.050 C 
ENDBRANCH  12  16
ENDBRANCH  10  11
ENDBRANCH   9  10
ENDBRANCH   1   9
BRANCH   4  24
HETATM   24  C   UNL     1      40.568 -14.692   5.810  1.00  0.00     0.130 C 
BRANCH  24  25
HETATM   25  N   UNL     1      41.939 -14.781   6.280  1.00  0.00    -0.342 N 
HETATM   26  C   UNL     1      42.868 -15.762   6.103  1.00  0.00     0.320 C 
HETATM   27  N   UNL     1      42.433 -16.882   5.453  1.00  0.00    -0.309 N 
HETATM   28  O   UNL     1      43.997 -15.556   6.535  1.00  0.00    -0.247 OA
HETATM   29  H   UNL     1      41.479 -16.870   5.135  1.00  0.00     0.170 HD
HETATM   30  H   UNL     1      42.363 -13.956   6.690  1.00  0.00     0.164 HD
BRANCH  27  31
HETATM   31  C   UNL     1      43.172 -18.046   5.152  1.00  0.00     0.039 A 
HETATM   32  C   UNL     1      43.646 -18.364   3.879  1.00  0.00     0.071 A 
HETATM   33  C   UNL     1      44.369 -19.538   3.683  1.00  0.00     0.118 A 
HETATM   34  F   UNL     1      44.820 -19.837   2.457  1.00  0.00    -0.206 F 
HETATM   35  C   UNL     1      44.635 -20.408   4.734  1.00  0.00     0.042 A 
HETATM   36  C   UNL     1      44.167 -20.102   6.007  1.00  0.00     0.005 A 
HETATM   37  C   UNL     1      43.439 -18.925   6.214  1.00  0.00     0.030 A 
ENDBRANCH  27  31
ENDBRANCH  24  25
ENDBRANCH   4  24
TORSDOF 7
ENDMDL
MODEL 10
REMARK VINA RESULT:      -8.4      2.475      4.030
REMARK  7 active torsions:
REMARK  status: ('A' for Active; 'I' for Inactive)
REMARK    1  A    between atoms: C_4  and  N_5 
REMARK    2  A    between atoms: C_6  and  S_7 
REMARK    3  A    between atoms: S_7  and  C_8 
REMARK    4  A    between atoms: C_8  and  C_9 
REMARK       I    between atoms: C_9  and  N_10 
REMARK    5  A    between atoms: C_12  and  C_13 
REMARK    6  A    between atoms: C_13  and  N_14 
REMARK       I    between atoms: N_14  and  C_15 
REMARK       I    between atoms: C_15  and  N_16 
REMARK    7  A    between atoms: N_16  and  C_17 
ROOT
HETATM    1  C   UNL     1      40.766 -15.155   1.064  1.00  0.00     0.229 C 
HETATM    2  N   UNL     1      40.864 -14.870   2.439  1.00  0.00    -0.351 N 
HETATM    3  C   UNL     1      42.029 -15.451   3.113  1.00  0.00     0.132 C 
HETATM    4  C   UNL     1      42.336 -14.757   4.442  1.00  0.00     0.021 C 
HETATM    5  C   UNL     1      41.102 -14.856   5.346  1.00  0.00     0.009 C 
HETATM    6  C   UNL     1      39.933 -14.158   4.668  1.00  0.00     0.020 C 
HETATM    7  C   UNL     1      39.667 -14.687   3.261  1.00  0.00     0.126 C 
HETATM    8  O   UNL     1      41.610 -15.873   0.514  1.00  0.00    -0.273 OA
ENDROOT
BRANCH   1   9
HETATM    9  C   UNL     1      39.756 -14.399   0.209  1.00  0.00     0.185 C 
BRANCH   9  10
HETATM   10  S   UNL     1      40.045 -12.643  -0.060  1.00  0.00    -0.082 SA
BRANCH  10  11
HETATM   11  C   UNL     1      41.075 -12.609  -1.450  1.00  0.00     0.173 A 
HETATM   12  N   UNL     1      40.707 -13.068  -2.713  1.00  0.00    -0.299 N 
HETATM   13  C   UNL     1      41.848 -12.938  -3.482  1.00  0.00     0.118 A 
HETATM   14  C   UNL     1      42.820 -12.427  -2.657  1.00  0.00     0.137 A 
HETATM   15  N   UNL     1      42.330 -12.227  -1.401  1.00  0.00    -0.235 NA
BRANCH  12  16
HETATM   16  C   UNL     1      39.443 -13.553  -3.174  1.00  0.00     0.047 A 
HETATM   17  C   UNL     1      38.404 -12.624  -3.382  1.00  0.00     0.037 A 
HETATM   18  C   UNL     1      37.135 -13.032  -3.813  1.00  0.00    -0.060 A 
HETATM   19  C   UNL     1      36.023 -12.039  -3.989  1.00  0.00     0.048 C 
HETATM   20  C   UNL     1      36.915 -14.381  -4.079  1.00  0.00     0.007 A 
HETATM   21  C   UNL     1      37.941 -15.310  -3.903  1.00  0.00     0.009 A 
HETATM   22  C   UNL     1      39.209 -14.922  -3.431  1.00  0.00    -0.035 A 
HETATM   23  C   UNL     1      40.213 -16.020  -3.202  1.00  0.00     0.050 C 
ENDBRANCH  12  16
ENDBRANCH  10  11
ENDBRANCH   9  10
ENDBRANCH   1   9
BRANCH   4  24
HETATM   24  C   UNL     1      43.582 -15.354   5.102  1.00  0.00     0.130 C 
BRANCH  24  25
HETATM   25  N   UNL     1      43.241 -16.463   5.976  1.00  0.00    -0.342 N 
HETATM   26  C   UNL     1      43.407 -17.804   5.801  1.00  0.00     0.320 C 
HETATM   27  N   UNL     1      43.893 -18.189   4.583  1.00  0.00    -0.309 N 
HETATM   28  O   UNL     1      43.110 -18.538   6.738  1.00  0.00    -0.247 OA
HETATM   29  H   UNL     1      44.116 -17.450   3.940  1.00  0.00     0.170 HD
HETATM   30  H   UNL     1      42.961 -16.258   6.929  1.00  0.00     0.164 HD
BRANCH  27  31
HETATM   31  C   UNL     1      44.144 -19.502   4.131  1.00  0.00     0.039 A 
HETATM   32  C   UNL     1      43.917 -19.935   2.824  1.00  0.00     0.071 A 
HETATM   33  C   UNL     1      44.198 -21.253   2.473  1.00  0.00     0.118 A 
HETATM   34  F   UNL     1      43.976 -21.663   1.217  1.00  0.00    -0.206 F 
HETATM   35  C   UNL     1      44.707 -22.156   3.400  1.00  0.00     0.042 A 
HETATM   36  C   UNL     1      44.938 -21.735   4.705  1.00  0.00     0.005 A 
HETATM   37  C   UNL     1      44.657 -20.413   5.067  1.00  0.00     0.030 A 
ENDBRANCH  27  31
ENDBRANCH  24  25
ENDBRANCH   4  24
TORSDOF 7
ENDMDL
