MODEL 1
REMARK VINA RESULT:      -9.3      0.000      0.000
REMARK  2 active torsions:
REMARK  status: ('A' for Active; 'I' for Inactive)
REMARK    1  A    between atoms: O_2  and  C_3 
REMARK    2  A    between atoms: C_5  and  N_6 
ROOT
HETATM    1  N   UNL     1      42.520 -17.928   2.377  1.00  0.00    -0.252 N 
HETATM    2  C   UNL     1      41.294 -17.442   2.785  1.00  0.00     0.239 C 
HETATM    3  O   UNL     1      40.744 -17.493   3.873  1.00  0.00    -0.272 OA
HETATM    4  C   UNL     1      40.698 -16.637   1.679  1.00  0.00     0.145 C 
HETATM    5  C   UNL     1      41.586 -16.919   0.490  1.00  0.00     0.126 C 
HETATM    6  C   UNL     1      42.840 -17.453   1.122  1.00  0.00     0.238 C 
HETATM    7  O   UNL     1      43.910 -17.404   0.537  1.00  0.00    -0.272 OA
HETATM    8  C   UNL     1      40.742 -15.132   1.925  1.00  0.00     0.250 A 
HETATM    9  C   UNL     1      39.402 -14.649   2.578  1.00  0.00     0.264 A 
HETATM   10  O   UNL     1      38.283 -14.799   2.114  1.00  0.00    -0.270 OA
HETATM   11  N   UNL     1      39.722 -13.959   3.731  1.00  0.00    -0.324 N 
HETATM   12  C   UNL     1      41.094 -13.898   3.923  1.00  0.00     0.044 A 
HETATM   13  C   UNL     1      41.764 -14.554   2.885  1.00  0.00     0.015 A 
HETATM   14  C   UNL     1      41.747 -13.260   4.954  1.00  0.00     0.030 A 
HETATM   15  C   UNL     1      43.141 -13.267   4.931  1.00  0.00     0.002 A 
HETATM   16  C   UNL     1      43.837 -13.899   3.888  1.00  0.00     0.001 A 
HETATM   17  C   UNL     1      43.152 -14.544   2.852  1.00  0.00     0.012 A 
HETATM   18  N   UNL     1      40.986 -14.574   0.510  1.00  0.00    -0.043 N 
HETATM   19  H   UNL     1      41.525 -13.698   0.601  1.00  0.00     0.282 HD
HETATM   20  C   UNL     1      41.804 -15.611  -0.259  1.00  0.00     0.204 C 
HETATM   21  C   UNL     1      39.778 -14.252  -0.340  1.00  0.00     0.237 C 
HETATM   22  C   UNL     1      40.357 -14.333  -1.736  1.00  0.00     0.030 C 
HETATM   23  C   UNL     1      41.208 -15.591  -1.671  1.00  0.00     0.036 C 
HETATM   24  H   UNL     1      39.030 -13.552   4.351  1.00  0.00     0.169 HD
ENDROOT
BRANCH   1  25
HETATM   25  C   UNL     1      43.383 -18.704   3.211  1.00  0.00     0.048 A 
HETATM   26  C   UNL     1      43.821 -18.207   4.450  1.00  0.00     0.066 A 
HETATM   27  C   UNL     1      44.631 -18.960   5.312  1.00  0.00     0.070 A 
HETATM   28  C   UNL     1      45.042 -20.230   4.928  1.00  0.00     0.037 A 
HETATM   29  C   UNL     1      44.623 -20.747   3.703  1.00  0.00     0.005 A 
HETATM   30  C   UNL     1      43.793 -19.997   2.860  1.00  0.00     0.030 A 
BRANCH  27  31
HETATM   31  O   UNL     1      44.934 -18.337   6.491  1.00  0.00    -0.356 OA
HETATM   32  C   UNL     1      44.126 -18.654   7.619  1.00  0.00     0.210 C 
ENDBRANCH  27  31
ENDBRANCH   1  25
TORSDOF 2
ENDMDL
MODEL 2
REMARK VINA RESULT:      -9.2      2.115      6.637
REMARK  2 active torsions:
REMARK  status: ('A' for Active; 'I' for Inactive)
REMARK    1  A    between atoms: O_2  and  C_3 
REMARK    2  A    between atoms: C_5  and  N_6 
ROOT
HETATM    1  N   UNL     1      40.706 -14.614   1.236  1.00  0.00    -0.252 N 
HETATM    2  C   UNL     1      40.249 -15.499   2.192  1.00  0.00     0.239 C 
HETATM    3  O   UNL     1      39.618 -16.537   2.074  1.00  0.00    -0.272 OA
HETATM    4  C   UNL     1      40.776 -15.089   3.526  1.00  0.00     0.145 C 
HETATM    5  C   UNL     1      41.377 -13.723   3.287  1.00  0.00     0.126 C 
HETATM    6  C   UNL     1      41.564 -13.691   1.797  1.00  0.00     0.238 C 
HETATM    7  O   UNL     1      42.382 -12.946   1.281  1.00  0.00    -0.272 OA
HETATM    8  C   UNL     1      41.894 -15.987   4.045  1.00  0.00     0.250 A 
HETATM    9  C   UNL     1      41.306 -17.107   4.970  1.00  0.00     0.264 A 
HETATM   10  O   UNL     1      40.636 -16.928   5.974  1.00  0.00    -0.270 OA
HETATM   11  N   UNL     1      41.747 -18.324   4.488  1.00  0.00    -0.324 N 
HETATM   12  C   UNL     1      42.565 -18.166   3.380  1.00  0.00     0.044 A 
HETATM   13  C   UNL     1      42.714 -16.810   3.069  1.00  0.00     0.015 A 
HETATM   14  C   UNL     1      43.194 -19.171   2.679  1.00  0.00     0.030 A 
HETATM   15  C   UNL     1      44.026 -18.793   1.625  1.00  0.00     0.002 A 
HETATM   16  C   UNL     1      44.210 -17.438   1.309  1.00  0.00     0.001 A 
HETATM   17  C   UNL     1      43.558 -16.434   2.033  1.00  0.00     0.012 A 
HETATM   18  N   UNL     1      42.809 -14.987   4.776  1.00  0.00    -0.043 N 
HETATM   19  H   UNL     1      43.779 -15.335   4.712  1.00  0.00     0.282 HD
HETATM   20  C   UNL     1      42.689 -13.643   4.057  1.00  0.00     0.204 C 
HETATM   21  C   UNL     1      42.540 -14.724   6.240  1.00  0.00     0.237 C 
HETATM   22  C   UNL     1      43.161 -13.356   6.424  1.00  0.00     0.030 C 
HETATM   23  C   UNL     1      42.691 -12.607   5.186  1.00  0.00     0.036 C 
HETATM   24  H   UNL     1      41.495 -19.215   4.902  1.00  0.00     0.169 HD
ENDROOT
BRANCH   1  25
HETATM   25  C   UNL     1      40.426 -14.740  -0.160  1.00  0.00     0.048 A 
HETATM   26  C   UNL     1      39.383 -14.008  -0.751  1.00  0.00     0.066 A 
HETATM   27  C   UNL     1      39.111 -14.074  -2.125  1.00  0.00     0.070 A 
HETATM   28  C   UNL     1      39.874 -14.906  -2.934  1.00  0.00     0.037 A 
HETATM   29  C   UNL     1      40.914 -15.645  -2.372  1.00  0.00     0.005 A 
HETATM   30  C   UNL     1      41.195 -15.553  -1.004  1.00  0.00     0.030 A 
BRANCH  27  31
HETATM   31  O   UNL     1      38.084 -13.270  -2.537  1.00  0.00    -0.356 OA
HETATM   32  C   UNL     1      37.352 -13.688  -3.684  1.00  0.00     0.210 C 
ENDBRANCH  27  31
ENDBRANCH   1  25
TORSDOF 2
ENDMDL
MODEL 3
REMARK VINA RESULT:      -9.0      2.226      4.584
REMARK  2 active torsions:
REMARK  status: ('A' for Active; 'I' for Inactive)
REMARK    1  A    between atoms: O_2  and  C_3 
REMARK    2  A    between atoms: C_5  and  N_6 
ROOT
HETATM    1  N   UNL     1      42.710 -15.014   4.967  1.00  0.00    -0.252 N 
HETATM    2  C   UNL     1      43.080 -14.188   3.925  1.00  0.00     0.239 C 
HETATM    3  O   UNL     1      44.011 -14.271   3.140  1.00  0.00    -0.272 OA
HETATM    4  C   UNL     1      42.037 -13.136   3.745  1.00  0.00     0.145 C 
HETATM    5  C   UNL     1      41.147 -13.280   4.957  1.00  0.00     0.126 C 
HETATM    6  C   UNL     1      41.467 -14.662   5.451  1.00  0.00     0.238 C 
HETATM    7  O   UNL     1      40.675 -15.283   6.142  1.00  0.00    -0.272 OA
HETATM    8  C   UNL     1      41.160 -13.349   2.516  1.00  0.00     0.250 A 
HETATM    9  C   UNL     1      41.731 -12.549   1.295  1.00  0.00     0.264 A 
HETATM   10  O   UNL     1      41.934 -11.347   1.259  1.00  0.00    -0.270 OA
HETATM   11  N   UNL     1      41.890 -13.438   0.249  1.00  0.00    -0.324 N 
HETATM   12  C   UNL     1      41.482 -14.715   0.600  1.00  0.00     0.044 A 
HETATM   13  C   UNL     1      41.020 -14.738   1.921  1.00  0.00     0.015 A 
HETATM   14  C   UNL     1      41.478 -15.825  -0.216  1.00  0.00     0.030 A 
HETATM   15  C   UNL     1      40.970 -17.010   0.316  1.00  0.00     0.002 A 
HETATM   16  C   UNL     1      40.479 -17.051   1.631  1.00  0.00     0.001 A 
HETATM   17  C   UNL     1      40.495 -15.912   2.443  1.00  0.00     0.012 A 
HETATM   18  N   UNL     1      39.785 -12.853   3.002  1.00  0.00    -0.043 N 
HETATM   19  H   UNL     1      39.057 -13.391   2.505  1.00  0.00     0.282 HD
HETATM   20  C   UNL     1      39.701 -13.126   4.503  1.00  0.00     0.204 C 
HETATM   21  C   UNL     1      39.452 -11.391   2.805  1.00  0.00     0.237 C 
HETATM   22  C   UNL     1      38.403 -11.171   3.873  1.00  0.00     0.030 C 
HETATM   23  C   UNL     1      38.993 -11.893   5.074  1.00  0.00     0.036 C 
HETATM   24  H   UNL     1      42.260 -13.174  -0.658  1.00  0.00     0.169 HD
ENDROOT
BRANCH   1  25
HETATM   25  C   UNL     1      43.463 -16.157   5.379  1.00  0.00     0.048 A 
HETATM   26  C   UNL     1      43.508 -17.313   4.583  1.00  0.00     0.066 A 
HETATM   27  C   UNL     1      44.273 -18.434   4.936  1.00  0.00     0.070 A 
HETATM   28  C   UNL     1      44.994 -18.423   6.122  1.00  0.00     0.037 A 
HETATM   29  C   UNL     1      44.966 -17.289   6.933  1.00  0.00     0.005 A 
HETATM   30  C   UNL     1      44.219 -16.165   6.560  1.00  0.00     0.030 A 
BRANCH  27  31
HETATM   31  O   UNL     1      44.230 -19.456   4.028  1.00  0.00    -0.356 OA
HETATM   32  C   UNL     1      43.552 -19.207   2.802  1.00  0.00     0.210 C 
ENDBRANCH  27  31
ENDBRANCH   1  25
TORSDOF 2
ENDMDL
MODEL 4
REMARK VINA RESULT:      -8.7      2.332      6.452
REMARK  2 active torsions:
REMARK  status: ('A' for Active; 'I' for Inactive)
REMARK    1  A    between atoms: O_2  and  C_3 
REMARK    2  A    between atoms: C_5  and  N_6 
ROOT
HETATM    1  N   UNL     1      41.946 -15.259   2.340  1.00  0.00    -0.252 N 
HETATM    2  C   UNL     1      42.877 -14.551   3.074  1.00  0.00     0.239 C 
HETATM    3  O   UNL     1      43.267 -13.400   2.960  1.00  0.00    -0.272 OA
HETATM    4  C   UNL     1      43.310 -15.379   4.237  1.00  0.00     0.145 C 
HETATM    5  C   UNL     1      42.729 -16.746   3.961  1.00  0.00     0.126 C 
HETATM    6  C   UNL     1      41.653 -16.459   2.953  1.00  0.00     0.238 C 
HETATM    7  O   UNL     1      40.712 -17.223   2.802  1.00  0.00    -0.272 OA
HETATM    8  C   UNL     1      42.738 -14.909   5.570  1.00  0.00     0.250 A 
HETATM    9  C   UNL     1      43.745 -13.942   6.283  1.00  0.00     0.264 A 
HETATM   10  O   UNL     1      44.900 -14.202   6.579  1.00  0.00    -0.270 OA
HETATM   11  N   UNL     1      43.066 -12.776   6.583  1.00  0.00    -0.324 N 
HETATM   12  C   UNL     1      41.740 -12.844   6.186  1.00  0.00     0.044 A 
HETATM   13  C   UNL     1      41.466 -14.082   5.596  1.00  0.00     0.015 A 
HETATM   14  C   UNL     1      40.784 -11.868   6.364  1.00  0.00     0.030 A 
HETATM   15  C   UNL     1      39.486 -12.159   5.942  1.00  0.00     0.002 A 
HETATM   16  C   UNL     1      39.182 -13.403   5.368  1.00  0.00     0.001 A 
HETATM   17  C   UNL     1      40.170 -14.378   5.195  1.00  0.00     0.012 A 
HETATM   18  N   UNL     1      42.508 -16.236   6.318  1.00  0.00    -0.043 N 
HETATM   19  H   UNL     1      41.702 -16.111   6.950  1.00  0.00     0.282 HD
HETATM   20  C   UNL     1      42.188 -17.303   5.271  1.00  0.00     0.204 C 
HETATM   21  C   UNL     1      43.641 -16.776   7.161  1.00  0.00     0.237 C 
HETATM   22  C   UNL     1      43.308 -18.252   7.209  1.00  0.00     0.030 C 
HETATM   23  C   UNL     1      42.922 -18.554   5.769  1.00  0.00     0.036 C 
HETATM   24  H   UNL     1      43.498 -11.979   7.038  1.00  0.00     0.169 HD
ENDROOT
BRANCH   1  25
HETATM   25  C   UNL     1      41.289 -14.740   1.182  1.00  0.00     0.048 A 
HETATM   26  C   UNL     1      41.538 -15.285  -0.089  1.00  0.00     0.066 A 
HETATM   27  C   UNL     1      40.876 -14.829  -1.239  1.00  0.00     0.070 A 
HETATM   28  C   UNL     1      39.962 -13.789  -1.135  1.00  0.00     0.037 A 
HETATM   29  C   UNL     1      39.698 -13.229   0.115  1.00  0.00     0.005 A 
HETATM   30  C   UNL     1      40.345 -13.708   1.261  1.00  0.00     0.030 A 
BRANCH  27  31
HETATM   31  O   UNL     1      41.213 -15.495  -2.385  1.00  0.00    -0.356 OA
HETATM   32  C   UNL     1      40.153 -15.843  -3.268  1.00  0.00     0.210 C 
ENDBRANCH  27  31
ENDBRANCH   1  25
TORSDOF 2
ENDMDL
MODEL 5
REMARK VINA RESULT:      -8.5      2.506      4.871
REMARK  2 active torsions:
REMARK  status: ('A' for Active; 'I' for Inactive)
REMARK    1  A    between atoms: O_2  and  C_3 
REMARK    2  A    between atoms: C_5  and  N_6 
ROOT
HETATM    1  N   UNL     1      41.957 -13.535   4.517  1.00  0.00    -0.252 N 
HETATM    2  C   UNL     1      42.474 -13.209   3.279  1.00  0.00     0.239 C 
HETATM    3  O   UNL     1      43.521 -13.538   2.746  1.00  0.00    -0.272 OA
HETATM    4  C   UNL     1      41.453 -12.436   2.514  1.00  0.00     0.145 C 
HETATM    5  C   UNL     1      40.381 -12.122   3.531  1.00  0.00     0.126 C 
HETATM    6  C   UNL     1      40.645 -13.122   4.621  1.00  0.00     0.238 C 
HETATM    7  O   UNL     1      39.764 -13.452   5.399  1.00  0.00    -0.272 OA
HETATM    8  C   UNL     1      40.791 -13.235   1.397  1.00  0.00     0.250 A 
HETATM    9  C   UNL     1      41.536 -12.992   0.040  1.00  0.00     0.264 A 
HETATM   10  O   UNL     1      41.717 -11.910  -0.494  1.00  0.00    -0.270 OA
HETATM   11  N   UNL     1      41.880 -14.226  -0.477  1.00  0.00    -0.324 N 
HETATM   12  C   UNL     1      41.447 -15.258   0.341  1.00  0.00     0.044 A 
HETATM   13  C   UNL     1      40.778 -14.751   1.460  1.00  0.00     0.015 A 
HETATM   14  C   UNL     1      41.599 -16.607   0.104  1.00  0.00     0.030 A 
HETATM   15  C   UNL     1      41.036 -17.487   1.028  1.00  0.00     0.002 A 
HETATM   16  C   UNL     1      40.340 -17.002   2.146  1.00  0.00     0.001 A 
HETATM   17  C   UNL     1      40.200 -15.627   2.368  1.00  0.00     0.012 A 
HETATM   18  N   UNL     1      39.345 -12.703   1.421  1.00  0.00    -0.043 N 
HETATM   19  H   UNL     1      38.719 -13.466   1.118  1.00  0.00     0.282 HD
HETATM   20  C   UNL     1      39.025 -12.310   2.863  1.00  0.00     0.204 C 
HETATM   21  C   UNL     1      39.019 -11.505   0.559  1.00  0.00     0.237 C 
HETATM   22  C   UNL     1      37.806 -10.941   1.266  1.00  0.00     0.030 C 
HETATM   23  C   UNL     1      38.208 -11.019   2.731  1.00  0.00     0.036 C 
HETATM   24  H   UNL     1      42.387 -14.347  -1.347  1.00  0.00     0.169 HD
ENDROOT
BRANCH   1  25
HETATM   25  C   UNL     1      42.657 -14.316   5.488  1.00  0.00     0.048 A 
HETATM   26  C   UNL     1      42.414 -15.694   5.611  1.00  0.00     0.066 A 
HETATM   27  C   UNL     1      43.116 -16.497   6.522  1.00  0.00     0.070 A 
HETATM   28  C   UNL     1      44.065 -15.917   7.354  1.00  0.00     0.037 A 
HETATM   29  C   UNL     1      44.324 -14.551   7.254  1.00  0.00     0.005 A 
HETATM   30  C   UNL     1      43.636 -13.762   6.323  1.00  0.00     0.030 A 
BRANCH  27  31
HETATM   31  O   UNL     1      42.779 -17.821   6.484  1.00  0.00    -0.356 OA
HETATM   32  C   UNL     1      42.338 -18.343   5.236  1.00  0.00     0.210 C 
ENDBRANCH  27  31
ENDBRANCH   1  25
TORSDOF 2
ENDMDL
MODEL 6
REMARK VINA RESULT:      -8.3      1.637      2.214
REMARK  2 active torsions:
REMARK  status: ('A' for Active; 'I' for Inactive)
REMARK    1  A    between atoms: O_2  and  C_3 
REMARK    2  A    between atoms: C_5  and  N_6 
ROOT
HETATM    1  N   UNL     1      41.865 -17.140   2.770  1.00  0.00    -0.252 N 
HETATM    2  C   UNL     1      41.070 -16.695   3.807  1.00  0.00     0.239 C 
HETATM    3  O   UNL     1      40.990 -17.074   4.964  1.00  0.00    -0.272 OA
HETATM    4  C   UNL     1      40.329 -15.479   3.362  1.00  0.00     0.145 C 
HETATM    5  C   UNL     1      40.578 -15.410   1.874  1.00  0.00     0.126 C 
HETATM    6  C   UNL     1      41.789 -16.281   1.693  1.00  0.00     0.238 C 
HETATM    7  O   UNL     1      42.521 -16.149   0.726  1.00  0.00    -0.272 OA
HETATM    8  C   UNL     1      40.861 -14.184   3.966  1.00  0.00     0.250 A 
HETATM    9  C   UNL     1      40.058 -13.817   5.261  1.00  0.00     0.264 A 
HETATM   10  O   UNL     1      38.850 -13.656   5.334  1.00  0.00    -0.270 OA
HETATM   11  N   UNL     1      40.969 -13.638   6.284  1.00  0.00    -0.324 N 
HETATM   12  C   UNL     1      42.271 -13.813   5.841  1.00  0.00     0.044 A 
HETATM   13  C   UNL     1      42.288 -14.120   4.476  1.00  0.00     0.015 A 
HETATM   14  C   UNL     1      43.416 -13.676   6.595  1.00  0.00     0.030 A 
HETATM   15  C   UNL     1      44.637 -13.839   5.941  1.00  0.00     0.002 A 
HETATM   16  C   UNL     1      44.680 -14.124   4.567  1.00  0.00     0.001 A 
HETATM   17  C   UNL     1      43.504 -14.261   3.821  1.00  0.00     0.012 A 
HETATM   18  N   UNL     1      40.678 -13.180   2.812  1.00  0.00    -0.043 N 
HETATM   19  H   UNL     1      41.421 -12.468   2.886  1.00  0.00     0.282 HD
HETATM   20  C   UNL     1      40.828 -13.955   1.502  1.00  0.00     0.204 C 
HETATM   21  C   UNL     1      39.367 -12.432   2.728  1.00  0.00     0.237 C 
HETATM   22  C   UNL     1      39.318 -12.066   1.261  1.00  0.00     0.030 C 
HETATM   23  C   UNL     1      39.762 -13.352   0.581  1.00  0.00     0.036 C 
HETATM   24  H   UNL     1      40.705 -13.406   7.235  1.00  0.00     0.169 HD
ENDROOT
BRANCH   1  25
HETATM   25  C   UNL     1      42.745 -18.262   2.871  1.00  0.00     0.048 A 
HETATM   26  C   UNL     1      43.574 -18.426   3.993  1.00  0.00     0.066 A 
HETATM   27  C   UNL     1      44.415 -19.538   4.144  1.00  0.00     0.070 A 
HETATM   28  C   UNL     1      44.457 -20.503   3.146  1.00  0.00     0.037 A 
HETATM   29  C   UNL     1      43.646 -20.365   2.020  1.00  0.00     0.005 A 
HETATM   30  C   UNL     1      42.791 -19.263   1.891  1.00  0.00     0.030 A 
BRANCH  27  31
HETATM   31  O   UNL     1      45.125 -19.555   5.312  1.00  0.00    -0.356 OA
HETATM   32  C   UNL     1      45.142 -18.356   6.078  1.00  0.00     0.210 C 
ENDBRANCH  27  31
ENDBRANCH   1  25
TORSDOF 2
ENDMDL
MODEL 7
REMARK VINA RESULT:      -7.9      2.735      6.599
REMARK  2 active torsions:
REMARK  status: ('A' for Active; 'I' for Inactive)
REMARK    1  A    between atoms: O_2  and  C_3 
REMARK    2  A    between atoms: C_5  and  N_6 
ROOT
HETATM    1  N   UNL     1      40.031 -13.710   0.705  1.00  0.00    -0.252 N 
HETATM    2  C   UNL     1      39.455 -14.311   1.806  1.00  0.00     0.239 C 
HETATM    3  O   UNL     1      38.922 -15.402   1.926  1.00  0.00    -0.272 OA
HETATM    4  C   UNL     1      39.693 -13.457   3.006  1.00  0.00     0.145 C 
HETATM    5  C   UNL     1      40.246 -12.168   2.444  1.00  0.00     0.126 C 
HETATM    6  C   UNL     1      40.710 -12.567   1.072  1.00  0.00     0.238 C 
HETATM    7  O   UNL     1      41.565 -11.923   0.484  1.00  0.00    -0.272 OA
HETATM    8  C   UNL     1      40.745 -14.018   3.957  1.00  0.00     0.250 A 
HETATM    9  C   UNL     1      40.060 -14.865   5.085  1.00  0.00     0.264 A 
HETATM   10  O   UNL     1      39.202 -14.469   5.857  1.00  0.00    -0.270 OA
HETATM   11  N   UNL     1      40.657 -16.111   5.094  1.00  0.00    -0.324 N 
HETATM   12  C   UNL     1      41.659 -16.201   4.142  1.00  0.00     0.044 A 
HETATM   13  C   UNL     1      41.783 -14.996   3.442  1.00  0.00     0.015 A 
HETATM   14  C   UNL     1      42.470 -17.291   3.909  1.00  0.00     0.030 A 
HETATM   15  C   UNL     1      43.462 -17.157   2.939  1.00  0.00     0.002 A 
HETATM   16  C   UNL     1      43.621 -15.949   2.240  1.00  0.00     0.001 A 
HETATM   17  C   UNL     1      42.784 -14.856   2.491  1.00  0.00     0.012 A 
HETATM   18  N   UNL     1      41.443 -12.743   4.468  1.00  0.00    -0.043 N 
HETATM   19  H   UNL     1      42.426 -12.979   4.676  1.00  0.00     0.282 HD
HETATM   20  C   UNL     1      41.381 -11.705   3.348  1.00  0.00     0.204 C 
HETATM   21  C   UNL     1      40.885 -12.082   5.708  1.00  0.00     0.237 C 
HETATM   22  C   UNL     1      41.376 -10.660   5.543  1.00  0.00     0.030 C 
HETATM   23  C   UNL     1      41.105 -10.383   4.072  1.00  0.00     0.036 C 
HETATM   24  H   UNL     1      40.385 -16.857   5.725  1.00  0.00     0.169 HD
ENDROOT
BRANCH   1  25
HETATM   25  C   UNL     1      40.029 -14.285  -0.604  1.00  0.00     0.048 A 
HETATM   26  C   UNL     1      39.052 -13.924  -1.545  1.00  0.00     0.066 A 
HETATM   27  C   UNL     1      39.048 -14.435  -2.851  1.00  0.00     0.070 A 
HETATM   28  C   UNL     1      40.023 -15.349  -3.230  1.00  0.00     0.037 A 
HETATM   29  C   UNL     1      41.004 -15.727  -2.315  1.00  0.00     0.005 A 
HETATM   30  C   UNL     1      41.014 -15.192  -1.021  1.00  0.00     0.030 A 
BRANCH  27  31
HETATM   31  O   UNL     1      38.046 -13.949  -3.645  1.00  0.00    -0.356 OA
HETATM   32  C   UNL     1      36.997 -14.846  -3.988  1.00  0.00     0.210 C 
ENDBRANCH  27  31
ENDBRANCH   1  25
TORSDOF 2
ENDMDL
MODEL 8
REMARK VINA RESULT:      -7.7      2.196      6.432
REMARK  2 active torsions:
REMARK  status: ('A' for Active; 'I' for Inactive)
REMARK    1  A    between atoms: O_2  and  C_3 
REMARK    2  A    between atoms: C_5  and  N_6 
ROOT
HETATM    1  N   UNL     1      42.549 -16.355   1.835  1.00  0.00    -0.252 N 
HETATM    2  C   UNL     1      43.575 -16.347   2.757  1.00  0.00     0.239 C 
HETATM    3  O   UNL     1      43.991 -15.451   3.474  1.00  0.00    -0.272 OA
HETATM    4  C   UNL     1      44.100 -17.735   2.911  1.00  0.00     0.145 C 
HETATM    5  C   UNL     1      43.446 -18.510   1.791  1.00  0.00     0.126 C 
HETATM    6  C   UNL     1      42.280 -17.641   1.414  1.00  0.00     0.238 C 
HETATM    7  O   UNL     1      41.303 -18.108   0.851  1.00  0.00    -0.272 OA
HETATM    8  C   UNL     1      43.689 -18.404   4.218  1.00  0.00     0.250 A 
HETATM    9  C   UNL     1      44.798 -18.199   5.306  1.00  0.00     0.264 A 
HETATM   10  O   UNL     1      45.968 -18.531   5.208  1.00  0.00    -0.270 OA
HETATM   11  N   UNL     1      44.196 -17.647   6.421  1.00  0.00    -0.324 N 
HETATM   12  C   UNL     1      42.834 -17.477   6.231  1.00  0.00     0.044 A 
HETATM   13  C   UNL     1      42.456 -17.919   4.958  1.00  0.00     0.015 A 
HETATM   14  C   UNL     1      41.936 -16.983   7.151  1.00  0.00     0.030 A 
HETATM   15  C   UNL     1      40.592 -16.947   6.780  1.00  0.00     0.002 A 
HETATM   16  C   UNL     1      40.186 -17.407   5.517  1.00  0.00     0.001 A 
HETATM   17  C   UNL     1      41.116 -17.903   4.597  1.00  0.00     0.012 A 
HETATM   18  N   UNL     1      43.493 -19.871   3.792  1.00  0.00    -0.043 N 
HETATM   19  H   UNL     1      42.763 -20.284   4.394  1.00  0.00     0.282 HD
HETATM   20  C   UNL     1      43.028 -19.869   2.336  1.00  0.00     0.204 C 
HETATM   21  C   UNL     1      44.689 -20.793   3.867  1.00  0.00     0.237 C 
HETATM   22  C   UNL     1      44.312 -21.863   2.865  1.00  0.00     0.030 C 
HETATM   23  C   UNL     1      43.766 -21.052   1.701  1.00  0.00     0.036 C 
HETATM   24  H   UNL     1      44.700 -17.403   7.266  1.00  0.00     0.169 HD
ENDROOT
BRANCH   1  25
HETATM   25  C   UNL     1      41.791 -15.195   1.482  1.00  0.00     0.048 A 
HETATM   26  C   UNL     1      41.872 -14.650   0.190  1.00  0.00     0.066 A 
HETATM   27  C   UNL     1      41.108 -13.541  -0.202  1.00  0.00     0.070 A 
HETATM   28  C   UNL     1      40.259 -12.937   0.717  1.00  0.00     0.037 A 
HETATM   29  C   UNL     1      40.162 -13.456   2.007  1.00  0.00     0.005 A 
HETATM   30  C   UNL     1      40.909 -14.579   2.381  1.00  0.00     0.030 A 
BRANCH  27  31
HETATM   31  O   UNL     1      41.284 -13.166  -1.505  1.00  0.00    -0.356 OA
HETATM   32  C   UNL     1      41.241 -14.194  -2.488  1.00  0.00     0.210 C 
ENDBRANCH  27  31
ENDBRANCH   1  25
TORSDOF 2
ENDMDL
MODEL 9
REMARK VINA RESULT:      -7.7      2.899      7.040
REMARK  2 active torsions:
REMARK  status: ('A' for Active; 'I' for Inactive)
REMARK    1  A    between atoms: O_2  and  C_3 
REMARK    2  A    between atoms: C_5  and  N_6 
ROOT
HETATM    1  N   UNL     1      41.787 -13.681  -0.484  1.00  0.00    -0.252 N 
HETATM    2  C   UNL     1      42.116 -13.006   0.675  1.00  0.00     0.239 C 
HETATM    3  O   UNL     1      42.284 -11.814   0.877  1.00  0.00    -0.272 OA
HETATM    4  C   UNL     1      42.112 -13.968   1.815  1.00  0.00     0.145 C 
HETATM    5  C   UNL     1      42.000 -15.325   1.160  1.00  0.00     0.126 C 
HETATM    6  C   UNL     1      41.480 -14.998  -0.211  1.00  0.00     0.238 C 
HETATM    7  O   UNL     1      40.884 -15.832  -0.874  1.00  0.00    -0.272 OA
HETATM    8  C   UNL     1      40.909 -13.816   2.740  1.00  0.00     0.250 A 
HETATM    9  C   UNL     1      41.264 -12.876   3.943  1.00  0.00     0.264 A 
HETATM   10  O   UNL     1      42.176 -13.041   4.736  1.00  0.00    -0.270 OA
HETATM   11  N   UNL     1      40.313 -11.874   3.986  1.00  0.00    -0.324 N 
HETATM   12  C   UNL     1      39.363 -12.032   2.990  1.00  0.00     0.044 A 
HETATM   13  C   UNL     1      39.638 -13.169   2.224  1.00  0.00     0.015 A 
HETATM   14  C   UNL     1      38.265 -11.228   2.774  1.00  0.00     0.030 A 
HETATM   15  C   UNL     1      37.394 -11.595   1.749  1.00  0.00     0.002 A 
HETATM   16  C   UNL     1      37.636 -12.745   0.981  1.00  0.00     0.001 A 
HETATM   17  C   UNL     1      38.759 -13.546   1.217  1.00  0.00     0.012 A 
HETATM   18  N   UNL     1      40.620 -15.273   3.148  1.00  0.00    -0.043 N 
HETATM   19  H   UNL     1      39.605 -15.362   3.318  1.00  0.00     0.282 HD
HETATM   20  C   UNL     1      41.033 -16.169   1.981  1.00  0.00     0.204 C 
HETATM   21  C   UNL     1      41.313 -15.812   4.379  1.00  0.00     0.237 C 
HETATM   22  C   UNL     1      41.287 -17.302   4.115  1.00  0.00     0.030 C 
HETATM   23  C   UNL     1      41.678 -17.388   2.648  1.00  0.00     0.036 C 
HETATM   24  H   UNL     1      40.323 -11.124   4.668  1.00  0.00     0.169 HD
ENDROOT
BRANCH   1  25
HETATM   25  C   UNL     1      41.655 -13.049  -1.759  1.00  0.00     0.048 A 
HETATM   26  C   UNL     1      40.386 -12.769  -2.293  1.00  0.00     0.066 A 
HETATM   27  C   UNL     1      40.222 -12.109  -3.520  1.00  0.00     0.070 A 
HETATM   28  C   UNL     1      41.342 -11.740  -4.253  1.00  0.00     0.037 A 
HETATM   29  C   UNL     1      42.613 -12.008  -3.747  1.00  0.00     0.005 A 
HETATM   30  C   UNL     1      42.767 -12.644  -2.509  1.00  0.00     0.030 A 
BRANCH  27  31
HETATM   31  O   UNL     1      38.919 -11.886  -3.871  1.00  0.00    -0.356 OA
HETATM   32  C   UNL     1      37.917 -12.331  -2.964  1.00  0.00     0.210 C 
ENDBRANCH  27  31
ENDBRANCH   1  25
TORSDOF 2
ENDMDL
MODEL 10
REMARK VINA RESULT:      -7.6      2.488      6.369
REMARK  2 active torsions:
REMARK  status: ('A' for Active; 'I' for Inactive)
REMARK    1  A    between atoms: O_2  and  C_3 
REMARK    2  A    between atoms: C_5  and  N_6 
ROOT
HETATM    1  N   UNL     1      41.259 -15.338   0.998  1.00  0.00    -0.252 N 
HETATM    2  C   UNL     1      42.219 -14.566   1.621  1.00  0.00     0.239 C 
HETATM    3  O   UNL     1      42.768 -13.538   1.258  1.00  0.00    -0.272 OA
HETATM    4  C   UNL     1      42.450 -15.094   2.997  1.00  0.00     0.145 C 
HETATM    5  C   UNL     1      41.712 -16.412   3.021  1.00  0.00     0.126 C 
HETATM    6  C   UNL     1      40.762 -16.290   1.864  1.00  0.00     0.238 C 
HETATM    7  O   UNL     1      39.741 -16.958   1.814  1.00  0.00    -0.272 OA
HETATM    8  C   UNL     1      41.848 -14.224   4.095  1.00  0.00     0.250 A 
HETATM    9  C   UNL     1      42.920 -13.218   4.640  1.00  0.00     0.264 A 
HETATM   10  O   UNL     1      44.005 -13.515   5.114  1.00  0.00    -0.270 OA
HETATM   11  N   UNL     1      42.385 -11.947   4.555  1.00  0.00    -0.324 N 
HETATM   12  C   UNL     1      41.095 -11.972   4.049  1.00  0.00     0.044 A 
HETATM   13  C   UNL     1      40.701 -13.286   3.771  1.00  0.00     0.015 A 
HETATM   14  C   UNL     1      40.268 -10.885   3.867  1.00  0.00     0.030 A 
HETATM   15  C   UNL     1      38.978 -11.133   3.397  1.00  0.00     0.002 A 
HETATM   16  C   UNL     1      38.553 -12.445   3.133  1.00  0.00     0.001 A 
HETATM   17  C   UNL     1      39.411 -13.533   3.324  1.00  0.00     0.012 A 
HETATM   18  N   UNL     1      41.387 -15.268   5.130  1.00  0.00    -0.043 N 
HETATM   19  H   UNL     1      40.561 -14.890   5.619  1.00  0.00     0.282 HD
HETATM   20  C   UNL     1      41.005 -16.535   4.364  1.00  0.00     0.204 C 
HETATM   21  C   UNL     1      42.371 -15.684   6.200  1.00  0.00     0.237 C 
HETATM   22  C   UNL     1      41.840 -17.046   6.589  1.00  0.00     0.030 C 
HETATM   23  C   UNL     1      41.524 -17.679   5.243  1.00  0.00     0.036 C 
HETATM   24  H   UNL     1      42.885 -11.110   4.833  1.00  0.00     0.169 HD
ENDROOT
BRANCH   1  25
HETATM   25  C   UNL     1      40.765 -15.080  -0.318  1.00  0.00     0.048 A 
HETATM   26  C   UNL     1      39.786 -14.097  -0.538  1.00  0.00     0.066 A 
HETATM   27  C   UNL     1      39.313 -13.788  -1.822  1.00  0.00     0.070 A 
HETATM   28  C   UNL     1      39.802 -14.488  -2.917  1.00  0.00     0.037 A 
HETATM   29  C   UNL     1      40.773 -15.470  -2.727  1.00  0.00     0.005 A 
HETATM   30  C   UNL     1      41.258 -15.754  -1.444  1.00  0.00     0.030 A 
BRANCH  27  31
HETATM   31  O   UNL     1      38.388 -12.782  -1.856  1.00  0.00    -0.356 OA
HETATM   32  C   UNL     1      37.795 -12.403  -0.619  1.00  0.00     0.210 C 
ENDBRANCH  27  31
ENDBRANCH   1  25
TORSDOF 2
ENDMDL
