MODEL 1
REMARK VINA RESULT:      -9.0      0.000      0.000
REMARK  8 active torsions:
REMARK  status: ('A' for Active; 'I' for Inactive)
REMARK    1  A    between atoms: C_7  and  S_8 
REMARK    2  A    between atoms: S_8  and  C_9 
REMARK    3  A    between atoms: C_9  and  C_10 
REMARK    4  A    between atoms: C_10  and  N_11 
REMARK       I    between atoms: N_11  and  C_12 
REMARK       I    between atoms: C_12  and  N_13 
REMARK    5  A    between atoms: N_13  and  C_14 
REMARK    6  A    between atoms: C_14  and  C_15 
REMARK    7  A    between atoms: C_17  and  O_18 
REMARK    8  A    between atoms: C_20  and  O_21 
ROOT
HETATM    1  N   UNL     1      44.430 -15.222   6.736  1.00  0.00    -0.342 N 
HETATM    2  C   UNL     1      44.976 -14.041   7.122  1.00  0.00     0.316 C 
HETATM    3  N   UNL     1      44.589 -13.556   8.326  1.00  0.00    -0.339 N 
HETATM    4  O   UNL     1      45.790 -13.490   6.388  1.00  0.00    -0.248 OA
HETATM    5  H   UNL     1      44.883 -15.566   5.896  1.00  0.00     0.164 HD
HETATM    6  H   UNL     1      43.817 -13.979   8.810  1.00  0.00     0.164 HD
ENDROOT
BRANCH   1   7
HETATM    7  C   UNL     1      43.604 -16.137   7.512  1.00  0.00     0.139 C 
BRANCH   7   8
HETATM    8  C   UNL     1      43.064 -17.265   6.656  1.00  0.00     0.165 C 
BRANCH   8   9
HETATM    9  S   UNL     1      44.338 -18.470   6.379  1.00  0.00     0.179 S 
HETATM   10  O   UNL     1      44.021 -19.681   7.107  1.00  0.00    -0.222 OA
HETATM   11  O   UNL     1      45.630 -17.825   6.495  1.00  0.00    -0.222 OA
BRANCH   9  12
HETATM   12  C   UNL     1      44.152 -18.864   4.701  1.00  0.00     0.093 A 
HETATM   13  C   UNL     1      43.745 -18.008   3.688  1.00  0.00     0.028 A 
HETATM   14  C   UNL     1      43.400 -16.562   3.689  1.00  0.00     0.070 C 
HETATM   15  N   UNL     1      43.706 -18.747   2.531  1.00  0.00    -0.358 N 
HETATM   16  H   UNL     1      43.462 -18.388   1.618  1.00  0.00     0.166 HD
HETATM   17  C   UNL     1      44.033 -20.060   2.780  1.00  0.00     0.044 A 
HETATM   18  C   UNL     1      44.327 -20.167   4.141  1.00  0.00     0.014 A 
HETATM   19  C   UNL     1      44.091 -21.148   1.901  1.00  0.00     0.030 A 
HETATM   20  C   UNL     1      44.700 -21.435   4.640  1.00  0.00     0.015 A 
HETATM   21  C   UNL     1      44.762 -22.534   3.774  1.00  0.00     0.001 A 
HETATM   22  C   UNL     1      44.461 -22.390   2.424  1.00  0.00     0.002 A 
ENDBRANCH   9  12
ENDBRANCH   8   9
ENDBRANCH   7   8
ENDBRANCH   1   7
BRANCH   3  23
HETATM   23  C   UNL     1      45.061 -12.287   8.830  1.00  0.00     0.163 C 
BRANCH  23  24
HETATM   24  C   UNL     1      44.132 -11.774   9.897  1.00  0.00    -0.038 A 
HETATM   25  C   UNL     1      43.205 -10.767   9.585  1.00  0.00     0.048 A 
HETATM   26  C   UNL     1      42.346 -10.251  10.561  1.00  0.00     0.102 A 
HETATM   27  C   UNL     1      42.416 -10.746  11.878  1.00  0.00     0.101 A 
HETATM   28  C   UNL     1      43.344 -11.746  12.191  1.00  0.00     0.040 A 
HETATM   29  C   UNL     1      44.198 -12.254  11.208  1.00  0.00     0.012 A 
BRANCH  26  30
HETATM   30  O   UNL     1      41.413  -9.269  10.332  1.00  0.00    -0.353 OA
HETATM   31  C   UNL     1      40.381  -9.548   9.398  1.00  0.00     0.210 C 
ENDBRANCH  26  30
BRANCH  27  32
HETATM   32  O   UNL     1      41.541 -10.190  12.780  1.00  0.00    -0.353 OA
HETATM   33  C   UNL     1      41.838 -10.331  14.161  1.00  0.00     0.210 C 
ENDBRANCH  27  32
ENDBRANCH  23  24
ENDBRANCH   3  23
TORSDOF 8
ENDMDL
MODEL 2
REMARK VINA RESULT:      -8.9      0.914      2.221
REMARK  8 active torsions:
REMARK  status: ('A' for Active; 'I' for Inactive)
REMARK    1  A    between atoms: C_7  and  S_8 
REMARK    2  A    between atoms: S_8  and  C_9 
REMARK    3  A    between atoms: C_9  and  C_10 
REMARK    4  A    between atoms: C_10  and  N_11 
REMARK       I    between atoms: N_11  and  C_12 
REMARK       I    between atoms: C_12  and  N_13 
REMARK    5  A    between atoms: N_13  and  C_14 
REMARK    6  A    between atoms: C_14  and  C_15 
REMARK    7  A    between atoms: C_17  and  O_18 
REMARK    8  A    between atoms: C_20  and  O_21 
ROOT
HETATM    1  N   UNL     1      44.365 -15.315   6.607  1.00  0.00    -0.342 N 
HETATM    2  C   UNL     1      44.934 -14.140   6.979  1.00  0.00     0.316 C 
HETATM    3  N   UNL     1      44.559 -13.636   8.180  1.00  0.00    -0.339 N 
HETATM    4  O   UNL     1      45.754 -13.610   6.237  1.00  0.00    -0.248 OA
HETATM    5  H   UNL     1      44.809 -15.676   5.769  1.00  0.00     0.164 HD
HETATM    6  H   UNL     1      43.781 -14.040   8.670  1.00  0.00     0.164 HD
ENDROOT
BRANCH   1   7
HETATM    7  C   UNL     1      43.526 -16.207   7.396  1.00  0.00     0.139 C 
BRANCH   7   8
HETATM    8  C   UNL     1      43.019 -17.372   6.570  1.00  0.00     0.165 C 
BRANCH   8   9
HETATM    9  S   UNL     1      44.245 -18.655   6.526  1.00  0.00     0.179 S 
HETATM   10  O   UNL     1      43.793 -19.778   7.322  1.00  0.00    -0.222 OA
HETATM   11  O   UNL     1      45.554 -18.063   6.713  1.00  0.00    -0.222 OA
BRANCH   9  12
HETATM   12  C   UNL     1      44.197 -19.194   4.879  1.00  0.00     0.093 A 
HETATM   13  C   UNL     1      44.522 -20.459   4.410  1.00  0.00     0.028 A 
HETATM   14  C   UNL     1      44.944 -21.700   5.112  1.00  0.00     0.070 C 
HETATM   15  N   UNL     1      44.374 -20.430   3.045  1.00  0.00    -0.358 N 
HETATM   16  H   UNL     1      44.522 -21.216   2.427  1.00  0.00     0.166 HD
HETATM   17  C   UNL     1      44.008 -19.173   2.621  1.00  0.00     0.044 A 
HETATM   18  C   UNL     1      43.881 -18.369   3.756  1.00  0.00     0.014 A 
HETATM   19  C   UNL     1      43.780 -18.700   1.323  1.00  0.00     0.030 A 
HETATM   20  C   UNL     1      43.503 -17.020   3.572  1.00  0.00     0.015 A 
HETATM   21  C   UNL     1      43.272 -16.532   2.281  1.00  0.00     0.001 A 
HETATM   22  C   UNL     1      43.410 -17.361   1.173  1.00  0.00     0.002 A 
ENDBRANCH   9  12
ENDBRANCH   8   9
ENDBRANCH   7   8
ENDBRANCH   1   7
BRANCH   3  23
HETATM   23  C   UNL     1      45.055 -12.370   8.668  1.00  0.00     0.163 C 
BRANCH  23  24
HETATM   24  C   UNL     1      44.144 -11.836   9.742  1.00  0.00    -0.038 A 
HETATM   25  C   UNL     1      43.122 -10.936   9.400  1.00  0.00     0.048 A 
HETATM   26  C   UNL     1      42.276 -10.401  10.377  1.00  0.00     0.102 A 
HETATM   27  C   UNL     1      42.457 -10.767  11.726  1.00  0.00     0.101 A 
HETATM   28  C   UNL     1      43.479 -11.659  12.067  1.00  0.00     0.040 A 
HETATM   29  C   UNL     1      44.319 -12.187  11.083  1.00  0.00     0.012 A 
BRANCH  26  30
HETATM   30  O   UNL     1      41.255  -9.520  10.121  1.00  0.00    -0.353 OA
HETATM   31  C   UNL     1      41.184  -8.957   8.818  1.00  0.00     0.210 C 
ENDBRANCH  26  30
BRANCH  27  32
HETATM   32  O   UNL     1      41.588 -10.200  12.626  1.00  0.00    -0.353 OA
HETATM   33  C   UNL     1      40.638 -11.051  13.251  1.00  0.00     0.210 C 
ENDBRANCH  27  32
ENDBRANCH  23  24
ENDBRANCH   3  23
TORSDOF 8
ENDMDL
MODEL 3
REMARK VINA RESULT:      -8.7      1.824      2.246
REMARK  8 active torsions:
REMARK  status: ('A' for Active; 'I' for Inactive)
REMARK    1  A    between atoms: C_7  and  S_8 
REMARK    2  A    between atoms: S_8  and  C_9 
REMARK    3  A    between atoms: C_9  and  C_10 
REMARK    4  A    between atoms: C_10  and  N_11 
REMARK       I    between atoms: N_11  and  C_12 
REMARK       I    between atoms: C_12  and  N_13 
REMARK    5  A    between atoms: N_13  and  C_14 
REMARK    6  A    between atoms: C_14  and  C_15 
REMARK    7  A    between atoms: C_17  and  O_18 
REMARK    8  A    between atoms: C_20  and  O_21 
ROOT
HETATM    1  N   UNL     1      44.132 -14.156   5.926  1.00  0.00    -0.342 N 
HETATM    2  C   UNL     1      44.953 -13.544   6.817  1.00  0.00     0.316 C 
HETATM    3  N   UNL     1      44.386 -13.114   7.971  1.00  0.00    -0.339 N 
HETATM    4  O   UNL     1      46.144 -13.427   6.552  1.00  0.00    -0.248 OA
HETATM    5  H   UNL     1      44.669 -14.561   5.167  1.00  0.00     0.164 HD
HETATM    6  H   UNL     1      43.386 -13.110   8.066  1.00  0.00     0.164 HD
ENDROOT
BRANCH   1   7
HETATM    7  C   UNL     1      42.747 -14.571   6.105  1.00  0.00     0.139 C 
BRANCH   7   8
HETATM    8  C   UNL     1      42.606 -16.080   6.064  1.00  0.00     0.165 C 
BRANCH   8   9
HETATM    9  S   UNL     1      42.705 -16.646   4.385  1.00  0.00     0.179 S 
HETATM   10  O   UNL     1      43.511 -15.723   3.613  1.00  0.00    -0.222 OA
HETATM   11  O   UNL     1      41.387 -17.060   3.949  1.00  0.00    -0.222 OA
BRANCH   9  12
HETATM   12  C   UNL     1      43.642 -18.099   4.511  1.00  0.00     0.093 A 
HETATM   13  C   UNL     1      44.556 -18.413   5.507  1.00  0.00     0.028 A 
HETATM   14  C   UNL     1      44.976 -17.686   6.734  1.00  0.00     0.070 C 
HETATM   15  N   UNL     1      45.085 -19.641   5.192  1.00  0.00    -0.358 N 
HETATM   16  H   UNL     1      45.768 -20.141   5.746  1.00  0.00     0.166 HD
HETATM   17  C   UNL     1      44.572 -20.102   4.002  1.00  0.00     0.044 A 
HETATM   18  C   UNL     1      43.651 -19.155   3.548  1.00  0.00     0.014 A 
HETATM   19  C   UNL     1      44.854 -21.284   3.306  1.00  0.00     0.030 A 
HETATM   20  C   UNL     1      42.980 -19.414   2.332  1.00  0.00     0.015 A 
HETATM   21  C   UNL     1      43.252 -20.591   1.624  1.00  0.00     0.001 A 
HETATM   22  C   UNL     1      44.177 -21.511   2.105  1.00  0.00     0.002 A 
ENDBRANCH   9  12
ENDBRANCH   8   9
ENDBRANCH   7   8
ENDBRANCH   1   7
BRANCH   3  23
HETATM   23  C   UNL     1      45.142 -12.407   8.979  1.00  0.00     0.163 C 
BRANCH  23  24
HETATM   24  C   UNL     1      44.248 -11.450   9.721  1.00  0.00    -0.038 A 
HETATM   25  C   UNL     1      43.063 -10.997   9.118  1.00  0.00     0.048 A 
HETATM   26  C   UNL     1      42.224 -10.087   9.770  1.00  0.00     0.102 A 
HETATM   27  C   UNL     1      42.577  -9.614  11.049  1.00  0.00     0.101 A 
HETATM   28  C   UNL     1      43.760 -10.061  11.648  1.00  0.00     0.040 A 
HETATM   29  C   UNL     1      44.591 -10.969  10.987  1.00  0.00     0.012 A 
BRANCH  26  30
HETATM   30  O   UNL     1      41.052  -9.601   9.246  1.00  0.00    -0.353 OA
HETATM   31  C   UNL     1      41.143  -8.718   8.138  1.00  0.00     0.210 C 
ENDBRANCH  26  30
BRANCH  27  32
HETATM   32  O   UNL     1      41.704  -8.723  11.625  1.00  0.00    -0.353 OA
HETATM   33  C   UNL     1      40.958  -9.164  12.750  1.00  0.00     0.210 C 
ENDBRANCH  27  32
ENDBRANCH  23  24
ENDBRANCH   3  23
TORSDOF 8
ENDMDL
MODEL 4
REMARK VINA RESULT:      -8.7      1.845      2.854
REMARK  8 active torsions:
REMARK  status: ('A' for Active; 'I' for Inactive)
REMARK    1  A    between atoms: C_7  and  S_8 
REMARK    2  A    between atoms: S_8  and  C_9 
REMARK    3  A    between atoms: C_9  and  C_10 
REMARK    4  A    between atoms: C_10  and  N_11 
REMARK       I    between atoms: N_11  and  C_12 
REMARK       I    between atoms: C_12  and  N_13 
REMARK    5  A    between atoms: N_13  and  C_14 
REMARK    6  A    between atoms: C_14  and  C_15 
REMARK    7  A    between atoms: C_17  and  O_18 
REMARK    8  A    between atoms: C_20  and  O_21 
ROOT
HETATM    1  N   UNL     1      45.059 -14.036   6.922  1.00  0.00    -0.342 N 
HETATM    2  C   UNL     1      45.406 -13.112   7.854  1.00  0.00     0.316 C 
HETATM    3  N   UNL     1      44.514 -12.885   8.848  1.00  0.00    -0.339 N 
HETATM    4  O   UNL     1      46.493 -12.551   7.766  1.00  0.00    -0.248 OA
HETATM    5  H   UNL     1      45.842 -14.232   6.308  1.00  0.00     0.164 HD
HETATM    6  H   UNL     1      43.587 -13.268   8.784  1.00  0.00     0.164 HD
ENDROOT
BRANCH   1   7
HETATM    7  C   UNL     1      43.926 -14.950   6.929  1.00  0.00     0.139 C 
BRANCH   7   8
HETATM    8  C   UNL     1      43.593 -15.438   5.533  1.00  0.00     0.165 C 
BRANCH   8   9
HETATM    9  S   UNL     1      42.346 -16.697   5.618  1.00  0.00     0.179 S 
HETATM   10  O   UNL     1      41.497 -16.614   4.448  1.00  0.00    -0.222 OA
HETATM   11  O   UNL     1      41.798 -16.727   6.959  1.00  0.00    -0.222 OA
BRANCH   9  12
HETATM   12  C   UNL     1      43.252 -18.165   5.442  1.00  0.00     0.093 A 
HETATM   13  C   UNL     1      43.978 -18.815   6.429  1.00  0.00     0.028 A 
HETATM   14  C   UNL     1      44.173 -18.522   7.874  1.00  0.00     0.070 C 
HETATM   15  N   UNL     1      44.559 -19.912   5.841  1.00  0.00    -0.358 N 
HETATM   16  H   UNL     1      45.135 -20.592   6.319  1.00  0.00     0.166 HD
HETATM   17  C   UNL     1      44.264 -19.959   4.499  1.00  0.00     0.044 A 
HETATM   18  C   UNL     1      43.434 -18.873   4.214  1.00  0.00     0.014 A 
HETATM   19  C   UNL     1      44.668 -20.883   3.527  1.00  0.00     0.030 A 
HETATM   20  C   UNL     1      42.988 -18.711   2.883  1.00  0.00     0.015 A 
HETATM   21  C   UNL     1      43.384 -19.626   1.900  1.00  0.00     0.001 A 
HETATM   22  C   UNL     1      44.214 -20.695   2.220  1.00  0.00     0.002 A 
ENDBRANCH   9  12
ENDBRANCH   8   9
ENDBRANCH   7   8
ENDBRANCH   1   7
BRANCH   3  23
HETATM   23  C   UNL     1      44.744 -11.894   9.874  1.00  0.00     0.163 C 
BRANCH  23  24
HETATM   24  C   UNL     1      43.433 -11.328  10.351  1.00  0.00    -0.038 A 
HETATM   25  C   UNL     1      43.083 -11.434  11.706  1.00  0.00     0.048 A 
HETATM   26  C   UNL     1      41.861 -10.941  12.176  1.00  0.00     0.102 A 
HETATM   27  C   UNL     1      40.965 -10.335  11.272  1.00  0.00     0.101 A 
HETATM   28  C   UNL     1      41.312 -10.233   9.921  1.00  0.00     0.040 A 
HETATM   29  C   UNL     1      42.535 -10.730   9.462  1.00  0.00     0.012 A 
BRANCH  26  30
HETATM   30  O   UNL     1      41.450 -11.007  13.484  1.00  0.00    -0.353 OA
HETATM   31  C   UNL     1      42.174 -10.245  14.439  1.00  0.00     0.210 C 
ENDBRANCH  26  30
BRANCH  27  32
HETATM   32  O   UNL     1      39.786  -9.876  11.808  1.00  0.00    -0.353 OA
HETATM   33  C   UNL     1      38.793  -9.403  10.910  1.00  0.00     0.210 C 
ENDBRANCH  27  32
ENDBRANCH  23  24
ENDBRANCH   3  23
TORSDOF 8
ENDMDL
MODEL 5
REMARK VINA RESULT:      -8.6      1.756      2.159
REMARK  8 active torsions:
REMARK  status: ('A' for Active; 'I' for Inactive)
REMARK    1  A    between atoms: C_7  and  S_8 
REMARK    2  A    between atoms: S_8  and  C_9 
REMARK    3  A    between atoms: C_9  and  C_10 
REMARK    4  A    between atoms: C_10  and  N_11 
REMARK       I    between atoms: N_11  and  C_12 
REMARK       I    between atoms: C_12  and  N_13 
REMARK    5  A    between atoms: N_13  and  C_14 
REMARK    6  A    between atoms: C_14  and  C_15 
REMARK    7  A    between atoms: C_17  and  O_18 
REMARK    8  A    between atoms: C_20  and  O_21 
ROOT
HETATM    1  N   UNL     1      44.707 -14.786   6.609  1.00  0.00    -0.342 N 
HETATM    2  C   UNL     1      45.362 -13.692   7.073  1.00  0.00     0.316 C 
HETATM    3  N   UNL     1      44.959 -13.205   8.272  1.00  0.00    -0.339 N 
HETATM    4  O   UNL     1      46.278 -13.216   6.412  1.00  0.00    -0.248 OA
HETATM    5  H   UNL     1      45.169 -15.153   5.783  1.00  0.00     0.164 HD
HETATM    6  H   UNL     1      44.114 -13.550   8.693  1.00  0.00     0.164 HD
ENDROOT
BRANCH   1   7
HETATM    7  C   UNL     1      43.734 -15.623   7.298  1.00  0.00     0.139 C 
BRANCH   7   8
HETATM    8  C   UNL     1      43.312 -16.804   6.448  1.00  0.00     0.165 C 
BRANCH   8   9
HETATM    9  S   UNL     1      41.872 -16.378   5.502  1.00  0.00     0.179 S 
HETATM   10  O   UNL     1      41.917 -14.970   5.164  1.00  0.00    -0.222 OA
HETATM   11  O   UNL     1      40.707 -16.978   6.120  1.00  0.00    -0.222 OA
BRANCH   9  12
HETATM   12  C   UNL     1      42.111 -17.230   4.011  1.00  0.00     0.093 A 
HETATM   13  C   UNL     1      41.435 -17.018   2.818  1.00  0.00     0.028 A 
HETATM   14  C   UNL     1      40.390 -16.034   2.429  1.00  0.00     0.070 C 
HETATM   15  N   UNL     1      41.919 -17.934   1.916  1.00  0.00    -0.358 N 
HETATM   16  H   UNL     1      41.629 -18.011   0.951  1.00  0.00     0.166 HD
HETATM   17  C   UNL     1      42.850 -18.755   2.508  1.00  0.00     0.044 A 
HETATM   18  C   UNL     1      43.000 -18.333   3.831  1.00  0.00     0.014 A 
HETATM   19  C   UNL     1      43.566 -19.830   1.966  1.00  0.00     0.030 A 
HETATM   20  C   UNL     1      43.920 -19.028   4.648  1.00  0.00     0.015 A 
HETATM   21  C   UNL     1      44.643 -20.106   4.121  1.00  0.00     0.001 A 
HETATM   22  C   UNL     1      44.466 -20.500   2.799  1.00  0.00     0.002 A 
ENDBRANCH   9  12
ENDBRANCH   8   9
ENDBRANCH   7   8
ENDBRANCH   1   7
BRANCH   3  23
HETATM   23  C   UNL     1      45.543 -12.018   8.853  1.00  0.00     0.163 C 
BRANCH  23  24
HETATM   24  C   UNL     1      44.525 -11.300   9.698  1.00  0.00    -0.038 A 
HETATM   25  C   UNL     1      43.292 -10.932   9.136  1.00  0.00     0.048 A 
HETATM   26  C   UNL     1      42.335 -10.240   9.887  1.00  0.00     0.102 A 
HETATM   27  C   UNL     1      42.617  -9.903  11.226  1.00  0.00     0.101 A 
HETATM   28  C   UNL     1      43.848 -10.265  11.785  1.00  0.00     0.040 A 
HETATM   29  C   UNL     1      44.796 -10.955  11.025  1.00  0.00     0.012 A 
BRANCH  26  30
HETATM   30  O   UNL     1      41.109  -9.849   9.409  1.00  0.00    -0.353 OA
HETATM   31  C   UNL     1      40.312 -10.831   8.762  1.00  0.00     0.210 C 
ENDBRANCH  26  30
BRANCH  27  32
HETATM   32  O   UNL     1      41.629  -9.225  11.898  1.00  0.00    -0.353 OA
HETATM   33  C   UNL     1      41.871  -8.880  13.254  1.00  0.00     0.210 C 
ENDBRANCH  27  32
ENDBRANCH  23  24
ENDBRANCH   3  23
TORSDOF 8
ENDMDL
MODEL 6
REMARK VINA RESULT:      -8.6      5.792      8.928
REMARK  8 active torsions:
REMARK  status: ('A' for Active; 'I' for Inactive)
REMARK    1  A    between atoms: C_7  and  S_8 
REMARK    2  A    between atoms: S_8  and  C_9 
REMARK    3  A    between atoms: C_9  and  C_10 
REMARK    4  A    between atoms: C_10  and  N_11 
REMARK       I    between atoms: N_11  and  C_12 
REMARK       I    between atoms: C_12  and  N_13 
REMARK    5  A    between atoms: N_13  and  C_14 
REMARK    6  A    between atoms: C_14  and  C_15 
REMARK    7  A    between atoms: C_17  and  O_18 
REMARK    8  A    between atoms: C_20  and  O_21 
ROOT
HETATM    1  N   UNL     1      40.371 -15.763   4.120  1.00  0.00    -0.342 N 
HETATM    2  C   UNL     1      40.469 -14.696   3.286  1.00  0.00     0.316 C 
HETATM    3  N   UNL     1      41.351 -14.802   2.263  1.00  0.00    -0.339 N 
HETATM    4  O   UNL     1      39.758 -13.716   3.482  1.00  0.00    -0.248 OA
HETATM    5  H   UNL     1      39.594 -15.643   4.761  1.00  0.00     0.164 HD
HETATM    6  H   UNL     1      42.002 -15.567   2.242  1.00  0.00     0.164 HD
ENDROOT
BRANCH   1   7
HETATM    7  C   UNL     1      40.963 -17.086   3.974  1.00  0.00     0.139 C 
BRANCH   7   8
HETATM    8  C   UNL     1      41.864 -17.426   5.145  1.00  0.00     0.165 C 
BRANCH   8   9
HETATM    9  S   UNL     1      43.559 -17.159   4.694  1.00  0.00     0.179 S 
HETATM   10  O   UNL     1      44.392 -17.254   5.876  1.00  0.00    -0.222 OA
HETATM   11  O   UNL     1      43.635 -16.027   3.794  1.00  0.00    -0.222 OA
BRANCH   9  12
HETATM   12  C   UNL     1      43.939 -18.554   3.737  1.00  0.00     0.093 A 
HETATM   13  C   UNL     1      43.972 -18.626   2.352  1.00  0.00     0.028 A 
HETATM   14  C   UNL     1      43.756 -17.598   1.299  1.00  0.00     0.070 C 
HETATM   15  N   UNL     1      44.284 -19.923   2.025  1.00  0.00    -0.358 N 
HETATM   16  H   UNL     1      44.399 -20.275   1.085  1.00  0.00     0.166 HD
HETATM   17  C   UNL     1      44.407 -20.694   3.157  1.00  0.00     0.044 A 
HETATM   18  C   UNL     1      44.201 -19.859   4.257  1.00  0.00     0.014 A 
HETATM   19  C   UNL     1      44.687 -22.061   3.281  1.00  0.00     0.030 A 
HETATM   20  C   UNL     1      44.285 -20.430   5.547  1.00  0.00     0.015 A 
HETATM   21  C   UNL     1      44.563 -21.795   5.687  1.00  0.00     0.001 A 
HETATM   22  C   UNL     1      44.760 -22.597   4.569  1.00  0.00     0.002 A 
ENDBRANCH   9  12
ENDBRANCH   8   9
ENDBRANCH   7   8
ENDBRANCH   1   7
BRANCH   3  23
HETATM   23  C   UNL     1      41.582 -13.720   1.335  1.00  0.00     0.163 C 
BRANCH  23  24
HETATM   24  C   UNL     1      41.252 -14.159  -0.067  1.00  0.00    -0.038 A 
HETATM   25  C   UNL     1      40.856 -13.205  -1.018  1.00  0.00     0.048 A 
HETATM   26  C   UNL     1      40.517 -13.585  -2.322  1.00  0.00     0.102 A 
HETATM   27  C   UNL     1      40.570 -14.946  -2.682  1.00  0.00     0.101 A 
HETATM   28  C   UNL     1      40.960 -15.897  -1.733  1.00  0.00     0.040 A 
HETATM   29  C   UNL     1      41.295 -15.507  -0.434  1.00  0.00     0.012 A 
BRANCH  26  30
HETATM   30  O   UNL     1      40.123 -12.712  -3.305  1.00  0.00    -0.353 OA
HETATM   31  C   UNL     1      41.127 -11.914  -3.917  1.00  0.00     0.210 C 
ENDBRANCH  26  30
BRANCH  27  32
HETATM   32  O   UNL     1      40.224 -15.240  -3.979  1.00  0.00    -0.353 OA
HETATM   33  C   UNL     1      39.032 -15.983  -4.191  1.00  0.00     0.210 C 
ENDBRANCH  27  32
ENDBRANCH  23  24
ENDBRANCH   3  23
TORSDOF 8
ENDMDL
MODEL 7
REMARK VINA RESULT:      -8.6      2.786      3.726
REMARK  8 active torsions:
REMARK  status: ('A' for Active; 'I' for Inactive)
REMARK    1  A    between atoms: C_7  and  S_8 
REMARK    2  A    between atoms: S_8  and  C_9 
REMARK    3  A    between atoms: C_9  and  C_10 
REMARK    4  A    between atoms: C_10  and  N_11 
REMARK       I    between atoms: N_11  and  C_12 
REMARK       I    between atoms: C_12  and  N_13 
REMARK    5  A    between atoms: N_13  and  C_14 
REMARK    6  A    between atoms: C_14  and  C_15 
REMARK    7  A    between atoms: C_17  and  O_18 
REMARK    8  A    between atoms: C_20  and  O_21 
ROOT
HETATM    1  N   UNL     1      40.631 -13.427   5.371  1.00  0.00    -0.342 N 
HETATM    2  C   UNL     1      39.958 -12.570   6.181  1.00  0.00     0.316 C 
HETATM    3  N   UNL     1      40.704 -11.831   7.038  1.00  0.00    -0.339 N 
HETATM    4  O   UNL     1      38.738 -12.494   6.090  1.00  0.00    -0.248 OA
HETATM    5  H   UNL     1      40.006 -13.826   4.679  1.00  0.00     0.164 HD
HETATM    6  H   UNL     1      41.678 -12.044   7.164  1.00  0.00     0.164 HD
ENDROOT
BRANCH   1   7
HETATM    7  C   UNL     1      42.069 -13.547   5.171  1.00  0.00     0.139 C 
BRANCH   7   8
HETATM    8  C   UNL     1      42.615 -14.816   5.792  1.00  0.00     0.165 C 
BRANCH   8   9
HETATM    9  S   UNL     1      41.603 -16.197   5.325  1.00  0.00     0.179 S 
HETATM   10  O   UNL     1      41.290 -16.108   3.914  1.00  0.00    -0.222 OA
HETATM   11  O   UNL     1      40.573 -16.386   6.326  1.00  0.00    -0.222 OA
BRANCH   9  12
HETATM   12  C   UNL     1      42.677 -17.549   5.486  1.00  0.00     0.093 A 
HETATM   13  C   UNL     1      43.324 -17.961   6.642  1.00  0.00     0.028 A 
HETATM   14  C   UNL     1      43.283 -17.451   8.039  1.00  0.00     0.070 C 
HETATM   15  N   UNL     1      44.095 -19.045   6.304  1.00  0.00    -0.358 N 
HETATM   16  H   UNL     1      44.669 -19.575   6.947  1.00  0.00     0.166 HD
HETATM   17  C   UNL     1      43.997 -19.313   4.959  1.00  0.00     0.044 A 
HETATM   18  C   UNL     1      43.103 -18.389   4.412  1.00  0.00     0.014 A 
HETATM   19  C   UNL     1      44.630 -20.302   4.196  1.00  0.00     0.030 A 
HETATM   20  C   UNL     1      42.833 -18.468   3.028  1.00  0.00     0.015 A 
HETATM   21  C   UNL     1      43.459 -19.452   2.252  1.00  0.00     0.001 A 
HETATM   22  C   UNL     1      44.345 -20.353   2.830  1.00  0.00     0.002 A 
ENDBRANCH   9  12
ENDBRANCH   8   9
ENDBRANCH   7   8
ENDBRANCH   1   7
BRANCH   3  23
HETATM   23  C   UNL     1      40.105 -10.918   7.984  1.00  0.00     0.163 C 
BRANCH  23  24
HETATM   24  C   UNL     1      40.947 -10.836   9.230  1.00  0.00    -0.038 A 
HETATM   25  C   UNL     1      42.333 -10.644   9.119  1.00  0.00     0.048 A 
HETATM   26  C   UNL     1      43.146 -10.590  10.256  1.00  0.00     0.102 A 
HETATM   27  C   UNL     1      42.565 -10.737  11.531  1.00  0.00     0.101 A 
HETATM   28  C   UNL     1      41.184 -10.933  11.641  1.00  0.00     0.040 A 
HETATM   29  C   UNL     1      40.381 -10.987  10.499  1.00  0.00     0.012 A 
BRANCH  26  30
HETATM   30  O   UNL     1      44.506 -10.404  10.228  1.00  0.00    -0.353 OA
HETATM   31  C   UNL     1      45.284 -11.345   9.504  1.00  0.00     0.210 C 
ENDBRANCH  26  30
BRANCH  27  32
HETATM   32  O   UNL     1      43.427 -10.672  12.598  1.00  0.00    -0.353 OA
HETATM   33  C   UNL     1      43.331  -9.545  13.458  1.00  0.00     0.210 C 
ENDBRANCH  27  32
ENDBRANCH  23  24
ENDBRANCH   3  23
TORSDOF 8
ENDMDL
MODEL 8
REMARK VINA RESULT:      -8.5      1.625      2.545
REMARK  8 active torsions:
REMARK  status: ('A' for Active; 'I' for Inactive)
REMARK    1  A    between atoms: C_7  and  S_8 
REMARK    2  A    between atoms: S_8  and  C_9 
REMARK    3  A    between atoms: C_9  and  C_10 
REMARK    4  A    between atoms: C_10  and  N_11 
REMARK       I    between atoms: N_11  and  C_12 
REMARK       I    between atoms: C_12  and  N_13 
REMARK    5  A    between atoms: N_13  and  C_14 
REMARK    6  A    between atoms: C_14  and  C_15 
REMARK    7  A    between atoms: C_17  and  O_18 
REMARK    8  A    between atoms: C_20  and  O_21 
ROOT
HETATM    1  N   UNL     1      45.027 -13.611   7.001  1.00  0.00    -0.342 N 
HETATM    2  C   UNL     1      45.355 -12.930   8.129  1.00  0.00     0.316 C 
HETATM    3  N   UNL     1      44.404 -12.853   9.091  1.00  0.00    -0.339 N 
HETATM    4  O   UNL     1      46.476 -12.444   8.230  1.00  0.00    -0.248 OA
HETATM    5  H   UNL     1      45.842 -13.732   6.409  1.00  0.00     0.164 HD
HETATM    6  H   UNL     1      43.464 -13.145   8.890  1.00  0.00     0.164 HD
ENDROOT
BRANCH   1   7
HETATM    7  C   UNL     1      43.845 -14.422   6.742  1.00  0.00     0.139 C 
BRANCH   7   8
HETATM    8  C   UNL     1      44.195 -15.890   6.602  1.00  0.00     0.165 C 
BRANCH   8   9
HETATM    9  S   UNL     1      42.708 -16.855   6.516  1.00  0.00     0.179 S 
HETATM   10  O   UNL     1      41.559 -15.974   6.567  1.00  0.00    -0.222 OA
HETATM   11  O   UNL     1      42.836 -17.997   7.397  1.00  0.00    -0.222 OA
BRANCH   9  12
HETATM   12  C   UNL     1      42.742 -17.492   4.904  1.00  0.00     0.093 A 
HETATM   13  C   UNL     1      41.966 -17.077   3.831  1.00  0.00     0.028 A 
HETATM   14  C   UNL     1      40.954 -15.996   3.697  1.00  0.00     0.070 C 
HETATM   15  N   UNL     1      42.298 -17.876   2.764  1.00  0.00    -0.358 N 
HETATM   16  H   UNL     1      41.909 -17.797   1.834  1.00  0.00     0.166 HD
HETATM   17  C   UNL     1      43.228 -18.819   3.132  1.00  0.00     0.044 A 
HETATM   18  C   UNL     1      43.536 -18.601   4.477  1.00  0.00     0.014 A 
HETATM   19  C   UNL     1      43.815 -19.838   2.373  1.00  0.00     0.030 A 
HETATM   20  C   UNL     1      44.485 -19.452   5.086  1.00  0.00     0.015 A 
HETATM   21  C   UNL     1      45.081 -20.477   4.340  1.00  0.00     0.001 A 
HETATM   22  C   UNL     1      44.748 -20.666   3.003  1.00  0.00     0.002 A 
ENDBRANCH   9  12
ENDBRANCH   8   9
ENDBRANCH   7   8
ENDBRANCH   1   7
BRANCH   3  23
HETATM   23  C   UNL     1      44.612 -12.117  10.317  1.00  0.00     0.163 C 
BRANCH  23  24
HETATM   24  C   UNL     1      43.328 -11.462  10.753  1.00  0.00    -0.038 A 
HETATM   25  C   UNL     1      42.990 -11.437  12.115  1.00  0.00     0.048 A 
HETATM   26  C   UNL     1      41.792 -10.859  12.549  1.00  0.00     0.102 A 
HETATM   27  C   UNL     1      40.910 -10.299  11.604  1.00  0.00     0.101 A 
HETATM   28  C   UNL     1      41.245 -10.329  10.246  1.00  0.00     0.040 A 
HETATM   29  C   UNL     1      42.444 -10.909   9.823  1.00  0.00     0.012 A 
BRANCH  26  30
HETATM   30  O   UNL     1      41.393 -10.795  13.861  1.00  0.00    -0.353 OA
HETATM   31  C   UNL     1      42.201 -10.047  14.758  1.00  0.00     0.210 C 
ENDBRANCH  26  30
BRANCH  27  32
HETATM   32  O   UNL     1      39.755  -9.751  12.107  1.00  0.00    -0.353 OA
HETATM   33  C   UNL     1      38.781  -9.297  11.178  1.00  0.00     0.210 C 
ENDBRANCH  27  32
ENDBRANCH  23  24
ENDBRANCH   3  23
TORSDOF 8
ENDMDL
MODEL 9
REMARK VINA RESULT:      -8.5      5.759     10.050
REMARK  8 active torsions:
REMARK  status: ('A' for Active; 'I' for Inactive)
REMARK    1  A    between atoms: C_7  and  S_8 
REMARK    2  A    between atoms: S_8  and  C_9 
REMARK    3  A    between atoms: C_9  and  C_10 
REMARK    4  A    between atoms: C_10  and  N_11 
REMARK       I    between atoms: N_11  and  C_12 
REMARK       I    between atoms: C_12  and  N_13 
REMARK    5  A    between atoms: N_13  and  C_14 
REMARK    6  A    between atoms: C_14  and  C_15 
REMARK    7  A    between atoms: C_17  and  O_18 
REMARK    8  A    between atoms: C_20  and  O_21 
ROOT
HETATM    1  N   UNL     1      39.548 -14.810   3.130  1.00  0.00    -0.342 N 
HETATM    2  C   UNL     1      40.663 -14.956   3.891  1.00  0.00     0.316 C 
HETATM    3  N   UNL     1      41.616 -15.795   3.420  1.00  0.00    -0.339 N 
HETATM    4  O   UNL     1      40.760 -14.322   4.937  1.00  0.00    -0.248 OA
HETATM    5  H   UNL     1      38.964 -14.064   3.493  1.00  0.00     0.164 HD
HETATM    6  H   UNL     1      41.415 -16.390   2.636  1.00  0.00     0.164 HD
ENDROOT
BRANCH   1   7
HETATM    7  C   UNL     1      39.299 -15.303   1.782  1.00  0.00     0.139 C 
BRANCH   7   8
HETATM    8  C   UNL     1      39.810 -14.338   0.731  1.00  0.00     0.165 C 
BRANCH   8   9
HETATM    9  S   UNL     1      41.358 -14.919   0.085  1.00  0.00     0.179 S 
HETATM   10  O   UNL     1      41.248 -16.327  -0.234  1.00  0.00    -0.222 OA
HETATM   11  O   UNL     1      42.434 -14.403   0.905  1.00  0.00    -0.222 OA
BRANCH   9  12
HETATM   12  C   UNL     1      41.485 -14.099  -1.437  1.00  0.00     0.093 A 
HETATM   13  C   UNL     1      41.154 -14.609  -2.684  1.00  0.00     0.028 A 
HETATM   14  C   UNL     1      40.579 -15.915  -3.102  1.00  0.00     0.070 C 
HETATM   15  N   UNL     1      41.444 -13.632  -3.606  1.00  0.00    -0.358 N 
HETATM   16  H   UNL     1      41.290 -13.708  -4.602  1.00  0.00     0.166 HD
HETATM   17  C   UNL     1      41.993 -12.531  -2.992  1.00  0.00     0.044 A 
HETATM   18  C   UNL     1      42.027 -12.789  -1.620  1.00  0.00     0.014 A 
HETATM   19  C   UNL     1      42.453 -11.333  -3.553  1.00  0.00     0.030 A 
HETATM   20  C   UNL     1      42.549 -11.789  -0.770  1.00  0.00     0.015 A 
HETATM   21  C   UNL     1      43.014 -10.586  -1.316  1.00  0.00     0.001 A 
HETATM   22  C   UNL     1      42.967 -10.364  -2.687  1.00  0.00     0.002 A 
ENDBRANCH   9  12
ENDBRANCH   8   9
ENDBRANCH   7   8
ENDBRANCH   1   7
BRANCH   3  23
HETATM   23  C   UNL     1      42.827 -16.072   4.158  1.00  0.00     0.163 C 
BRANCH  23  24
HETATM   24  C   UNL     1      43.335 -17.449   3.824  1.00  0.00    -0.038 A 
HETATM   25  C   UNL     1      43.715 -18.319   4.858  1.00  0.00     0.048 A 
HETATM   26  C   UNL     1      44.216 -19.595   4.579  1.00  0.00     0.102 A 
HETATM   27  C   UNL     1      44.345 -20.011   3.239  1.00  0.00     0.101 A 
HETATM   28  C   UNL     1      43.971 -19.142   2.208  1.00  0.00     0.040 A 
HETATM   29  C   UNL     1      43.473 -17.869   2.498  1.00  0.00     0.012 A 
BRANCH  26  30
HETATM   30  O   UNL     1      44.606 -20.501   5.535  1.00  0.00    -0.353 OA
HETATM   31  C   UNL     1      43.799 -20.618   6.698  1.00  0.00     0.210 C 
ENDBRANCH  26  30
BRANCH  27  32
HETATM   32  O   UNL     1      44.844 -21.276   3.046  1.00  0.00    -0.353 OA
HETATM   33  C   UNL     1      44.419 -21.984   1.890  1.00  0.00     0.210 C 
ENDBRANCH  27  32
ENDBRANCH  23  24
ENDBRANCH   3  23
TORSDOF 8
ENDMDL
MODEL 10
REMARK VINA RESULT:      -8.4      4.526      8.037
REMARK  8 active torsions:
REMARK  status: ('A' for Active; 'I' for Inactive)
REMARK    1  A    between atoms: C_7  and  S_8 
REMARK    2  A    between atoms: S_8  and  C_9 
REMARK    3  A    between atoms: C_9  and  C_10 
REMARK    4  A    between atoms: C_10  and  N_11 
REMARK       I    between atoms: N_11  and  C_12 
REMARK       I    between atoms: C_12  and  N_13 
REMARK    5  A    between atoms: N_13  and  C_14 
REMARK    6  A    between atoms: C_14  and  C_15 
REMARK    7  A    between atoms: C_17  and  O_18 
REMARK    8  A    between atoms: C_20  and  O_21 
ROOT
HETATM    1  N   UNL     1      41.196 -14.036   6.023  1.00  0.00    -0.342 N 
HETATM    2  C   UNL     1      41.434 -13.076   5.093  1.00  0.00     0.316 C 
HETATM    3  N   UNL     1      41.196 -13.408   3.801  1.00  0.00    -0.339 N 
HETATM    4  O   UNL     1      41.826 -11.973   5.459  1.00  0.00    -0.248 OA
HETATM    5  H   UNL     1      41.269 -13.652   6.958  1.00  0.00     0.164 HD
HETATM    6  H   UNL     1      41.015 -14.365   3.556  1.00  0.00     0.164 HD
ENDROOT
BRANCH   1   7
HETATM    7  C   UNL     1      40.556 -15.333   5.845  1.00  0.00     0.139 C 
BRANCH   7   8
HETATM    8  C   UNL     1      41.447 -16.464   6.319  1.00  0.00     0.165 C 
BRANCH   8   9
HETATM    9  S   UNL     1      43.042 -16.333   5.553  1.00  0.00     0.179 S 
HETATM   10  O   UNL     1      43.930 -15.582   6.416  1.00  0.00    -0.222 OA
HETATM   11  O   UNL     1      42.868 -15.994   4.155  1.00  0.00    -0.222 OA
BRANCH   9  12
HETATM   12  C   UNL     1      43.629 -17.964   5.577  1.00  0.00     0.093 A 
HETATM   13  C   UNL     1      44.014 -18.691   6.694  1.00  0.00     0.028 A 
HETATM   14  C   UNL     1      44.010 -18.359   8.144  1.00  0.00     0.070 C 
HETATM   15  N   UNL     1      44.440 -19.918   6.247  1.00  0.00    -0.358 N 
HETATM   16  H   UNL     1      44.764 -20.672   6.837  1.00  0.00     0.166 HD
HETATM   17  C   UNL     1      44.382 -19.983   4.874  1.00  0.00     0.044 A 
HETATM   18  C   UNL     1      43.868 -18.767   4.419  1.00  0.00     0.014 A 
HETATM   19  C   UNL     1      44.743 -21.027   4.014  1.00  0.00     0.030 A 
HETATM   20  C   UNL     1      43.708 -18.596   3.026  1.00  0.00     0.015 A 
HETATM   21  C   UNL     1      44.065 -19.630   2.152  1.00  0.00     0.001 A 
HETATM   22  C   UNL     1      44.576 -20.827   2.641  1.00  0.00     0.002 A 
ENDBRANCH   9  12
ENDBRANCH   8   9
ENDBRANCH   7   8
ENDBRANCH   1   7
BRANCH   3  23
HETATM   23  C   UNL     1      41.453 -12.491   2.715  1.00  0.00     0.163 C 
BRANCH  23  24
HETATM   24  C   UNL     1      41.365 -13.212   1.396  1.00  0.00    -0.038 A 
HETATM   25  C   UNL     1      41.340 -14.616   1.373  1.00  0.00     0.048 A 
HETATM   26  C   UNL     1      41.285 -15.316   0.163  1.00  0.00     0.102 A 
HETATM   27  C   UNL     1      41.259 -14.600  -1.051  1.00  0.00     0.101 A 
HETATM   28  C   UNL     1      41.288 -13.202  -1.028  1.00  0.00     0.040 A 
HETATM   29  C   UNL     1      41.345 -12.513   0.186  1.00  0.00     0.012 A 
BRANCH  26  30
HETATM   30  O   UNL     1      41.256 -16.684   0.060  1.00  0.00    -0.353 OA
HETATM   31  C   UNL     1      40.900 -17.424   1.219  1.00  0.00     0.210 C 
ENDBRANCH  26  30
BRANCH  27  32
HETATM   32  O   UNL     1      41.204 -15.357  -2.196  1.00  0.00    -0.353 OA
HETATM   33  C   UNL     1      40.171 -15.072  -3.127  1.00  0.00     0.210 C 
ENDBRANCH  27  32
ENDBRANCH  23  24
ENDBRANCH   3  23
TORSDOF 8
ENDMDL
