MODEL 1
REMARK VINA RESULT:     -10.6      0.000      0.000
REMARK  8 active torsions:
REMARK  status: ('A' for Active; 'I' for Inactive)
REMARK    1  A    between atoms: C_3  and  N_4 
REMARK       I    between atoms: N_4  and  C_5 
REMARK    2  A    between atoms: C_5  and  C_6 
REMARK    3  A    between atoms: C_6  and  N_7 
REMARK    4  A    between atoms: N_11  and  C_12 
REMARK    5  A    between atoms: C_14  and  N_15 
REMARK    6  A    between atoms: N_15  and  C_16 
REMARK    7  A    between atoms: C_23  and  N_24 
REMARK    8  A    between atoms: N_24  and  C_25 
ROOT
HETATM    1  C   UNL     1      41.861 -16.173   3.771  1.00  0.00     0.756 A 
HETATM    2  N   UNL     1      41.141 -15.838   2.710  1.00  0.00     0.131 NA
HETATM    3  C   UNL     1      41.506 -16.368   1.548  1.00  0.00     0.758 A 
HETATM    4  N   UNL     1      42.471 -17.264   1.433  1.00  0.00     0.131 NA
HETATM    5  C   UNL     1      43.112 -17.596   2.542  1.00  0.00     0.758 A 
HETATM    6  N   UNL     1      42.837 -17.068   3.732  1.00  0.00     0.131 NA
ENDROOT
BRANCH   1   7
HETATM    7  N   UNL     1      41.560 -15.550   4.988  1.00  0.00    -0.210 N 
HETATM    8  C   UNL     1      41.698 -14.085   5.013  1.00  0.00     0.169 C 
HETATM    9  C   UNL     1      43.165 -13.673   5.273  1.00  0.00     0.256 C 
HETATM   10  N   UNL     1      43.659 -14.354   6.566  1.00  0.00    -0.060 N 
HETATM   11  H   UNL     1      42.996 -14.076   7.299  1.00  0.00     0.280 HD
HETATM   12  C   UNL     1      43.542 -15.879   6.443  1.00  0.00     0.256 C 
HETATM   13  C   UNL     1      42.063 -16.250   6.179  1.00  0.00     0.169 C 
BRANCH  10  14
HETATM   14  C   UNL     1      45.032 -13.883   7.037  1.00  0.00     0.337 C 
BRANCH  14  15
HETATM   15  C   UNL     1      45.066 -12.832   8.158  1.00  0.00     0.248 C 
HETATM   16  N   UNL     1      43.799 -12.511   8.615  1.00  0.00    -0.325 N 
HETATM   17  H   UNL     1      43.021 -12.882   8.078  1.00  0.00     0.169 HD
HETATM   18  O   UNL     1      46.131 -12.347   8.511  1.00  0.00    -0.271 OA
BRANCH  16  19
HETATM   19  C   UNL     1      43.398 -11.544   9.575  1.00  0.00     0.042 A 
HETATM   20  C   UNL     1      43.753 -11.478  10.935  1.00  0.00    -0.035 A 
HETATM   21  C   UNL     1      44.542 -12.511  11.690  1.00  0.00     0.050 C 
HETATM   22  C   UNL     1      43.317 -10.370  11.701  1.00  0.00     0.011 A 
HETATM   23  C   UNL     1      42.496  -9.383  11.162  1.00  0.00     0.024 A 
HETATM   24  C   UNL     1      42.092  -9.491   9.844  1.00  0.00     0.036 A 
HETATM   25  C   UNL     1      42.532 -10.557   9.060  1.00  0.00     0.053 A 
HETATM   26 CL   UNL     1      41.055  -8.301   9.160  1.00  0.00    -0.084 Cl
ENDBRANCH  16  19
ENDBRANCH  14  15
ENDBRANCH  10  14
ENDBRANCH   1   7
BRANCH   3  27
HETATM   27  N   UNL     1      40.764 -15.967   0.439  1.00  0.00    -0.187 N 
HETATM   28  H   UNL     1      39.777 -15.997   0.645  1.00  0.00     0.184 HD
BRANCH  27  29
HETATM   29  C   UNL     1      41.102 -15.175  -0.670  1.00  0.00     0.049 A 
HETATM   30  C   UNL     1      40.903 -15.702  -1.956  1.00  0.00     0.030 A 
HETATM   31  C   UNL     1      41.249 -14.977  -3.099  1.00  0.00     0.002 A 
HETATM   32  C   UNL     1      41.809 -13.708  -2.975  1.00  0.00     0.000 A 
HETATM   33  C   UNL     1      42.033 -13.177  -1.709  1.00  0.00     0.002 A 
HETATM   34  C   UNL     1      41.694 -13.911  -0.568  1.00  0.00     0.030 A 
ENDBRANCH  27  29
ENDBRANCH   3  27
BRANCH   5  35
HETATM   35  N   UNL     1      44.078 -18.583   2.369  1.00  0.00    -0.187 N 
HETATM   36  H   UNL     1      44.792 -18.233   1.741  1.00  0.00     0.184 HD
BRANCH  35  37
HETATM   37  C   UNL     1      44.317 -19.840   2.929  1.00  0.00     0.049 A 
HETATM   38  C   UNL     1      44.687 -20.045   4.261  1.00  0.00     0.030 A 
HETATM   39  C   UNL     1      44.880 -21.335   4.768  1.00  0.00     0.002 A 
HETATM   40  C   UNL     1      44.697 -22.445   3.948  1.00  0.00     0.000 A 
HETATM   41  C   UNL     1      44.320 -22.266   2.622  1.00  0.00     0.002 A 
HETATM   42  C   UNL     1      44.129 -20.975   2.122  1.00  0.00     0.030 A 
ENDBRANCH  35  37
ENDBRANCH   5  35
TORSDOF 8
ENDMDL
MODEL 2
REMARK VINA RESULT:     -10.6      1.579      5.605
REMARK  8 active torsions:
REMARK  status: ('A' for Active; 'I' for Inactive)
REMARK    1  A    between atoms: C_3  and  N_4 
REMARK       I    between atoms: N_4  and  C_5 
REMARK    2  A    between atoms: C_5  and  C_6 
REMARK    3  A    between atoms: C_6  and  N_7 
REMARK    4  A    between atoms: N_11  and  C_12 
REMARK    5  A    between atoms: C_14  and  N_15 
REMARK    6  A    between atoms: N_15  and  C_16 
REMARK    7  A    between atoms: C_23  and  N_24 
REMARK    8  A    between atoms: N_24  and  C_25 
ROOT
HETATM    1  C   UNL     1      41.394 -16.162   3.818  1.00  0.00     0.756 A 
HETATM    2  N   UNL     1      42.476 -16.924   3.754  1.00  0.00     0.131 NA
HETATM    3  C   UNL     1      42.828 -17.364   2.551  1.00  0.00     0.758 A 
HETATM    4  N   UNL     1      42.210 -17.001   1.440  1.00  0.00     0.131 NA
HETATM    5  C   UNL     1      41.171 -16.193   1.571  1.00  0.00     0.758 A 
HETATM    6  N   UNL     1      40.730 -15.754   2.746  1.00  0.00     0.131 NA
ENDROOT
BRANCH   1   7
HETATM    7  N   UNL     1      40.946 -15.770   5.085  1.00  0.00    -0.210 N 
HETATM    8  C   UNL     1      39.867 -14.768   5.105  1.00  0.00     0.169 C 
HETATM    9  C   UNL     1      40.439 -13.338   4.967  1.00  0.00     0.256 C 
HETATM   10  N   UNL     1      41.502 -13.112   6.063  1.00  0.00    -0.060 N 
HETATM   11  H   UNL     1      41.029 -13.304   6.953  1.00  0.00     0.280 HD
HETATM   12  C   UNL     1      42.622 -14.154   5.941  1.00  0.00     0.256 C 
HETATM   13  C   UNL     1      42.011 -15.568   6.079  1.00  0.00     0.169 C 
BRANCH  10  14
HETATM   14  C   UNL     1      42.010 -11.676   6.154  1.00  0.00     0.337 C 
BRANCH  14  15
HETATM   15  C   UNL     1      41.850 -10.961   7.505  1.00  0.00     0.248 C 
HETATM   16  N   UNL     1      42.813 -11.350   8.422  1.00  0.00    -0.325 N 
HETATM   17  H   UNL     1      43.397 -12.136   8.153  1.00  0.00     0.169 HD
HETATM   18  O   UNL     1      40.919 -10.190   7.685  1.00  0.00    -0.271 OA
BRANCH  16  19
HETATM   19  C   UNL     1      42.966 -10.986   9.787  1.00  0.00     0.042 A 
HETATM   20  C   UNL     1      44.161 -10.725  10.483  1.00  0.00    -0.035 A 
HETATM   21  C   UNL     1      45.552 -10.906   9.943  1.00  0.00     0.050 C 
HETATM   22  C   UNL     1      44.086 -10.283  11.825  1.00  0.00     0.011 A 
HETATM   23  C   UNL     1      42.868 -10.164  12.491  1.00  0.00     0.024 A 
HETATM   24  C   UNL     1      41.702 -10.490  11.824  1.00  0.00     0.036 A 
HETATM   25  C   UNL     1      41.748 -10.900  10.491  1.00  0.00     0.053 A 
HETATM   26 CL   UNL     1      40.187 -10.379  12.630  1.00  0.00    -0.084 Cl
ENDBRANCH  16  19
ENDBRANCH  14  15
ENDBRANCH  10  14
ENDBRANCH   1   7
BRANCH   3  27
HETATM   27  N   UNL     1      43.941 -18.200   2.511  1.00  0.00    -0.187 N 
HETATM   28  H   UNL     1      44.787 -17.669   2.661  1.00  0.00     0.184 HD
BRANCH  27  29
HETATM   29  C   UNL     1      44.078 -19.580   2.728  1.00  0.00     0.049 A 
HETATM   30  C   UNL     1      44.637 -20.016   3.941  1.00  0.00     0.030 A 
HETATM   31  C   UNL     1      44.830 -21.375   4.204  1.00  0.00     0.002 A 
HETATM   32  C   UNL     1      44.472 -22.325   3.252  1.00  0.00     0.000 A 
HETATM   33  C   UNL     1      43.935 -21.912   2.036  1.00  0.00     0.002 A 
HETATM   34  C   UNL     1      43.753 -20.551   1.774  1.00  0.00     0.030 A 
ENDBRANCH  27  29
ENDBRANCH   3  27
BRANCH   5  35
HETATM   35  N   UNL     1      40.597 -15.801   0.365  1.00  0.00    -0.187 N 
HETATM   36  H   UNL     1      39.622 -16.074   0.364  1.00  0.00     0.184 HD
BRANCH  35  37
HETATM   37  C   UNL     1      41.026 -15.057  -0.737  1.00  0.00     0.049 A 
HETATM   38  C   UNL     1      41.669 -13.820  -0.643  1.00  0.00     0.030 A 
HETATM   39  C   UNL     1      42.102 -13.141  -1.787  1.00  0.00     0.002 A 
HETATM   40  C   UNL     1      41.907 -13.696  -3.048  1.00  0.00     0.000 A 
HETATM   41  C   UNL     1      41.279 -14.931  -3.166  1.00  0.00     0.002 A 
HETATM   42  C   UNL     1      40.848 -15.604  -2.019  1.00  0.00     0.030 A 
ENDBRANCH  35  37
ENDBRANCH   5  35
TORSDOF 8
ENDMDL
MODEL 3
REMARK VINA RESULT:     -10.6      0.368      5.304
REMARK  8 active torsions:
REMARK  status: ('A' for Active; 'I' for Inactive)
REMARK    1  A    between atoms: C_3  and  N_4 
REMARK       I    between atoms: N_4  and  C_5 
REMARK    2  A    between atoms: C_5  and  C_6 
REMARK    3  A    between atoms: C_6  and  N_7 
REMARK    4  A    between atoms: N_11  and  C_12 
REMARK    5  A    between atoms: C_14  and  N_15 
REMARK    6  A    between atoms: N_15  and  C_16 
REMARK    7  A    between atoms: C_23  and  N_24 
REMARK    8  A    between atoms: N_24  and  C_25 
ROOT
HETATM    1  C   UNL     1      41.867 -16.045   3.920  1.00  0.00     0.756 A 
HETATM    2  N   UNL     1      42.892 -16.866   3.736  1.00  0.00     0.131 NA
HETATM    3  C   UNL     1      43.073 -17.330   2.505  1.00  0.00     0.758 A 
HETATM    4  N   UNL     1      42.348 -16.939   1.471  1.00  0.00     0.131 NA
HETATM    5  C   UNL     1      41.377 -16.074   1.715  1.00  0.00     0.758 A 
HETATM    6  N   UNL     1      41.104 -15.606   2.930  1.00  0.00     0.131 NA
ENDROOT
BRANCH   1   7
HETATM    7  N   UNL     1      41.596 -15.623   5.226  1.00  0.00    -0.210 N 
HETATM    8  C   UNL     1      41.511 -14.167   5.428  1.00  0.00     0.169 C 
HETATM    9  C   UNL     1      42.918 -13.554   5.622  1.00  0.00     0.256 C 
HETATM   10  N   UNL     1      43.634 -14.289   6.775  1.00  0.00    -0.060 N 
HETATM   11  H   UNL     1      43.011 -14.208   7.587  1.00  0.00     0.280 HD
HETATM   12  C   UNL     1      43.738 -15.788   6.466  1.00  0.00     0.256 C 
HETATM   13  C   UNL     1      42.315 -16.363   6.275  1.00  0.00     0.169 C 
BRANCH  10  14
HETATM   14  C   UNL     1      44.959 -13.657   7.191  1.00  0.00     0.337 C 
BRANCH  14  15
HETATM   15  C   UNL     1      44.947 -12.770   8.447  1.00  0.00     0.248 C 
HETATM   16  N   UNL     1      43.677 -12.311   8.753  1.00  0.00    -0.325 N 
HETATM   17  H   UNL     1      42.957 -12.486   8.060  1.00  0.00     0.169 HD
HETATM   18  O   UNL     1      45.994 -12.506   9.020  1.00  0.00    -0.271 OA
BRANCH  16  19
HETATM   19  C   UNL     1      43.257 -11.417   9.775  1.00  0.00     0.042 A 
HETATM   20  C   UNL     1      43.530 -11.492  11.154  1.00  0.00    -0.035 A 
HETATM   21  C   UNL     1      44.226 -12.625  11.854  1.00  0.00     0.050 C 
HETATM   22  C   UNL     1      43.092 -10.439  11.993  1.00  0.00     0.011 A 
HETATM   23  C   UNL     1      42.347  -9.370  11.502  1.00  0.00     0.024 A 
HETATM   24  C   UNL     1      42.022  -9.339  10.158  1.00  0.00     0.036 A 
HETATM   25  C   UNL     1      42.466 -10.349   9.305  1.00  0.00     0.053 A 
HETATM   26 CL   UNL     1      41.080  -8.044   9.529  1.00  0.00    -0.084 Cl
ENDBRANCH  16  19
ENDBRANCH  14  15
ENDBRANCH  10  14
ENDBRANCH   1   7
BRANCH   3  27
HETATM   27  N   UNL     1      44.127 -18.226   2.343  1.00  0.00    -0.187 N 
HETATM   28  H   UNL     1      45.002 -17.731   2.264  1.00  0.00     0.184 HD
BRANCH  27  29
HETATM   29  C   UNL     1      44.257 -19.583   2.682  1.00  0.00     0.049 A 
HETATM   30  C   UNL     1      43.832 -20.549   1.755  1.00  0.00     0.030 A 
HETATM   31  C   UNL     1      43.904 -21.914   2.046  1.00  0.00     0.002 A 
HETATM   32  C   UNL     1      44.397 -22.338   3.276  1.00  0.00     0.000 A 
HETATM   33  C   UNL     1      44.804 -21.395   4.216  1.00  0.00     0.002 A 
HETATM   34  C   UNL     1      44.721 -20.030   3.924  1.00  0.00     0.030 A 
ENDBRANCH  27  29
ENDBRANCH   3  27
BRANCH   5  35
HETATM   35  N   UNL     1      40.685 -15.657   0.582  1.00  0.00    -0.187 N 
HETATM   36  H   UNL     1      39.691 -15.720   0.765  1.00  0.00     0.184 HD
BRANCH  35  37
HETATM   37  C   UNL     1      41.048 -15.098  -0.646  1.00  0.00     0.049 A 
HETATM   38  C   UNL     1      40.860 -15.731  -1.878  1.00  0.00     0.030 A 
HETATM   39  C   UNL     1      41.218 -15.101  -3.076  1.00  0.00     0.002 A 
HETATM   40  C   UNL     1      41.761 -13.820  -3.060  1.00  0.00     0.000 A 
HETATM   41  C   UNL     1      41.948 -13.168  -1.846  1.00  0.00     0.002 A 
HETATM   42  C   UNL     1      41.590 -13.802  -0.653  1.00  0.00     0.030 A 
ENDBRANCH  35  37
ENDBRANCH   5  35
TORSDOF 8
ENDMDL
MODEL 4
REMARK VINA RESULT:     -10.5      1.586      1.826
REMARK  8 active torsions:
REMARK  status: ('A' for Active; 'I' for Inactive)
REMARK    1  A    between atoms: C_3  and  N_4 
REMARK       I    between atoms: N_4  and  C_5 
REMARK    2  A    between atoms: C_5  and  C_6 
REMARK    3  A    between atoms: C_6  and  N_7 
REMARK    4  A    between atoms: N_11  and  C_12 
REMARK    5  A    between atoms: C_14  and  N_15 
REMARK    6  A    between atoms: N_15  and  C_16 
REMARK    7  A    between atoms: C_23  and  N_24 
REMARK    8  A    between atoms: N_24  and  C_25 
ROOT
HETATM    1  C   UNL     1      41.326 -16.178   3.832  1.00  0.00     0.756 A 
HETATM    2  N   UNL     1      40.664 -15.729   2.775  1.00  0.00     0.131 NA
HETATM    3  C   UNL     1      41.151 -16.051   1.582  1.00  0.00     0.758 A 
HETATM    4  N   UNL     1      42.185 -16.858   1.417  1.00  0.00     0.131 NA
HETATM    5  C   UNL     1      42.765 -17.316   2.515  1.00  0.00     0.758 A 
HETATM    6  N   UNL     1      42.365 -16.996   3.742  1.00  0.00     0.131 NA
ENDROOT
BRANCH   1   7
HETATM    7  N   UNL     1      40.891 -15.769   5.097  1.00  0.00    -0.210 N 
HETATM    8  C   UNL     1      39.834 -14.744   5.115  1.00  0.00     0.169 C 
HETATM    9  C   UNL     1      40.435 -13.328   4.968  1.00  0.00     0.256 C 
HETATM   10  N   UNL     1      41.506 -13.118   6.058  1.00  0.00    -0.060 N 
HETATM   11  H   UNL     1      41.033 -13.295   6.952  1.00  0.00     0.280 HD
HETATM   12  C   UNL     1      42.604 -14.184   5.939  1.00  0.00     0.256 C 
HETATM   13  C   UNL     1      41.963 -15.585   6.087  1.00  0.00     0.169 C 
BRANCH  10  14
HETATM   14  C   UNL     1      42.045 -11.693   6.140  1.00  0.00     0.337 C 
BRANCH  14  15
HETATM   15  C   UNL     1      41.888 -10.961   7.482  1.00  0.00     0.248 C 
HETATM   16  N   UNL     1      42.835 -11.360   8.411  1.00  0.00    -0.325 N 
HETATM   17  H   UNL     1      43.404 -12.160   8.157  1.00  0.00     0.169 HD
HETATM   18  O   UNL     1      40.972 -10.168   7.644  1.00  0.00    -0.271 OA
BRANCH  16  19
HETATM   19  C   UNL     1      42.983 -10.985   9.774  1.00  0.00     0.042 A 
HETATM   20  C   UNL     1      44.175 -10.716  10.472  1.00  0.00    -0.035 A 
HETATM   21  C   UNL     1      45.568 -10.900   9.937  1.00  0.00     0.050 C 
HETATM   22  C   UNL     1      44.095 -10.263  11.810  1.00  0.00     0.011 A 
HETATM   23  C   UNL     1      42.875 -10.140  12.471  1.00  0.00     0.024 A 
HETATM   24  C   UNL     1      41.711 -10.474  11.803  1.00  0.00     0.036 A 
HETATM   25  C   UNL     1      41.762 -10.895  10.474  1.00  0.00     0.053 A 
HETATM   26 CL   UNL     1      40.193 -10.358  12.603  1.00  0.00    -0.084 Cl
ENDBRANCH  16  19
ENDBRANCH  14  15
ENDBRANCH  10  14
ENDBRANCH   1   7
BRANCH   3  27
HETATM   27  N   UNL     1      40.466 -15.531   0.486  1.00  0.00    -0.187 N 
HETATM   28  H   UNL     1      39.515 -15.306   0.738  1.00  0.00     0.184 HD
BRANCH  27  29
HETATM   29  C   UNL     1      40.921 -14.899  -0.682  1.00  0.00     0.049 A 
HETATM   30  C   UNL     1      40.853 -15.603  -1.895  1.00  0.00     0.030 A 
HETATM   31  C   UNL     1      41.320 -15.042  -3.087  1.00  0.00     0.002 A 
HETATM   32  C   UNL     1      41.873 -13.764  -3.085  1.00  0.00     0.000 A 
HETATM   33  C   UNL     1      41.968 -13.059  -1.889  1.00  0.00     0.002 A 
HETATM   34  C   UNL     1      41.509 -13.629  -0.697  1.00  0.00     0.030 A 
ENDBRANCH  27  29
ENDBRANCH   3  27
BRANCH   5  35
HETATM   35  N   UNL     1      43.811 -18.204   2.279  1.00  0.00    -0.187 N 
HETATM   36  H   UNL     1      44.564 -17.705   1.821  1.00  0.00     0.184 HD
BRANCH  35  37
HETATM   37  C   UNL     1      44.073 -19.534   2.617  1.00  0.00     0.049 A 
HETATM   38  C   UNL     1      44.613 -19.937   3.842  1.00  0.00     0.030 A 
HETATM   39  C   UNL     1      44.821 -21.290   4.130  1.00  0.00     0.002 A 
HETATM   40  C   UNL     1      44.482 -22.266   3.197  1.00  0.00     0.000 A 
HETATM   41  C   UNL     1      43.935 -21.889   1.976  1.00  0.00     0.002 A 
HETATM   42  C   UNL     1      43.730 -20.536   1.694  1.00  0.00     0.030 A 
ENDBRANCH  35  37
ENDBRANCH   5  35
TORSDOF 8
ENDMDL
MODEL 5
REMARK VINA RESULT:     -10.3      1.547      2.335
REMARK  8 active torsions:
REMARK  status: ('A' for Active; 'I' for Inactive)
REMARK    1  A    between atoms: C_3  and  N_4 
REMARK       I    between atoms: N_4  and  C_5 
REMARK    2  A    between atoms: C_5  and  C_6 
REMARK    3  A    between atoms: C_6  and  N_7 
REMARK    4  A    between atoms: N_11  and  C_12 
REMARK    5  A    between atoms: C_14  and  N_15 
REMARK    6  A    between atoms: N_15  and  C_16 
REMARK    7  A    between atoms: C_23  and  N_24 
REMARK    8  A    between atoms: N_24  and  C_25 
ROOT
HETATM    1  C   UNL     1      42.397 -16.089   4.327  1.00  0.00     0.756 A 
HETATM    2  N   UNL     1      41.900 -15.395   3.313  1.00  0.00     0.131 NA
HETATM    3  C   UNL     1      42.319 -15.728   2.098  1.00  0.00     0.758 A 
HETATM    4  N   UNL     1      43.114 -16.758   1.864  1.00  0.00     0.131 NA
HETATM    5  C   UNL     1      43.527 -17.444   2.917  1.00  0.00     0.758 A 
HETATM    6  N   UNL     1      43.192 -17.138   4.167  1.00  0.00     0.131 NA
ENDROOT
BRANCH   1   7
HETATM    7  N   UNL     1      42.049 -15.692   5.623  1.00  0.00    -0.210 N 
HETATM    8  C   UNL     1      41.828 -14.250   5.818  1.00  0.00     0.169 C 
HETATM    9  C   UNL     1      43.167 -13.513   6.052  1.00  0.00     0.256 C 
HETATM   10  N   UNL     1      43.912 -14.180   7.227  1.00  0.00    -0.060 N 
HETATM   11  H   UNL     1      43.260 -14.154   8.020  1.00  0.00     0.280 HD
HETATM   12  C   UNL     1      44.159 -15.664   6.927  1.00  0.00     0.256 C 
HETATM   13  C   UNL     1      42.800 -16.364   6.695  1.00  0.00     0.169 C 
BRANCH  10  14
HETATM   14  C   UNL     1      45.161 -13.431   7.682  1.00  0.00     0.337 C 
BRANCH  14  15
HETATM   15  C   UNL     1      44.950 -12.147   8.498  1.00  0.00     0.248 C 
HETATM   16  N   UNL     1      43.631 -11.982   8.886  1.00  0.00    -0.325 N 
HETATM   17  H   UNL     1      42.960 -12.625   8.478  1.00  0.00     0.169 HD
HETATM   18  O   UNL     1      45.885 -11.384   8.693  1.00  0.00    -0.271 OA
BRANCH  16  19
HETATM   19  C   UNL     1      43.016 -10.904   9.578  1.00  0.00     0.042 A 
HETATM   20  C   UNL     1      42.048 -10.005   9.093  1.00  0.00    -0.035 A 
HETATM   21  C   UNL     1      41.554  -9.925   7.675  1.00  0.00     0.050 C 
HETATM   22  C   UNL     1      41.493  -9.055   9.982  1.00  0.00     0.011 A 
HETATM   23  C   UNL     1      41.925  -8.944  11.302  1.00  0.00     0.024 A 
HETATM   24  C   UNL     1      42.927  -9.783  11.753  1.00  0.00     0.036 A 
HETATM   25  C   UNL     1      43.470 -10.748  10.904  1.00  0.00     0.053 A 
HETATM   26 CL   UNL     1      43.500  -9.651  13.369  1.00  0.00    -0.084 Cl
ENDBRANCH  16  19
ENDBRANCH  14  15
ENDBRANCH  10  14
ENDBRANCH   1   7
BRANCH   3  27
HETATM   27  N   UNL     1      41.820 -14.956   1.051  1.00  0.00    -0.187 N 
HETATM   28  H   UNL     1      42.463 -14.958   0.274  1.00  0.00     0.184 HD
BRANCH  27  29
HETATM   29  C   UNL     1      40.511 -14.570   0.720  1.00  0.00     0.049 A 
HETATM   30  C   UNL     1      39.471 -14.898   1.605  1.00  0.00     0.030 A 
HETATM   31  C   UNL     1      38.143 -14.572   1.318  1.00  0.00     0.002 A 
HETATM   32  C   UNL     1      37.830 -13.916   0.131  1.00  0.00     0.000 A 
HETATM   33  C   UNL     1      38.844 -13.600  -0.769  1.00  0.00     0.002 A 
HETATM   34  C   UNL     1      40.170 -13.938  -0.481  1.00  0.00     0.030 A 
ENDBRANCH  27  29
ENDBRANCH   3  27
BRANCH   5  35
HETATM   35  N   UNL     1      44.315 -18.549   2.605  1.00  0.00    -0.187 N 
HETATM   36  H   UNL     1      45.031 -18.263   1.948  1.00  0.00     0.184 HD
BRANCH  35  37
HETATM   37  C   UNL     1      44.391 -19.867   3.061  1.00  0.00     0.049 A 
HETATM   38  C   UNL     1      44.188 -20.987   2.250  1.00  0.00     0.030 A 
HETATM   39  C   UNL     1      44.311 -22.283   2.764  1.00  0.00     0.002 A 
HETATM   40  C   UNL     1      44.651 -22.479   4.100  1.00  0.00     0.000 A 
HETATM   41  C   UNL     1      44.868 -21.379   4.922  1.00  0.00     0.002 A 
HETATM   42  C   UNL     1      44.743 -20.087   4.404  1.00  0.00     0.030 A 
ENDBRANCH  35  37
ENDBRANCH   5  35
TORSDOF 8
ENDMDL
MODEL 6
REMARK VINA RESULT:      -9.8      4.161      6.548
REMARK  8 active torsions:
REMARK  status: ('A' for Active; 'I' for Inactive)
REMARK    1  A    between atoms: C_3  and  N_4 
REMARK       I    between atoms: N_4  and  C_5 
REMARK    2  A    between atoms: C_5  and  C_6 
REMARK    3  A    between atoms: C_6  and  N_7 
REMARK    4  A    between atoms: N_11  and  C_12 
REMARK    5  A    between atoms: C_14  and  N_15 
REMARK    6  A    between atoms: N_15  and  C_16 
REMARK    7  A    between atoms: C_23  and  N_24 
REMARK    8  A    between atoms: N_24  and  C_25 
ROOT
HETATM    1  C   UNL     1      41.986 -15.744   3.453  1.00  0.00     0.756 A 
HETATM    2  N   UNL     1      41.233 -15.503   2.389  1.00  0.00     0.131 NA
HETATM    3  C   UNL     1      41.568 -16.125   1.265  1.00  0.00     0.758 A 
HETATM    4  N   UNL     1      42.537 -17.021   1.196  1.00  0.00     0.131 NA
HETATM    5  C   UNL     1      43.213 -17.256   2.309  1.00  0.00     0.758 A 
HETATM    6  N   UNL     1      42.968 -16.633   3.459  1.00  0.00     0.131 NA
ENDROOT
BRANCH   1   7
HETATM    7  N   UNL     1      41.714 -15.024   4.622  1.00  0.00    -0.210 N 
HETATM    8  C   UNL     1      40.291 -14.844   4.952  1.00  0.00     0.169 C 
HETATM    9  C   UNL     1      39.694 -13.642   4.185  1.00  0.00     0.256 C 
HETATM   10  N   UNL     1      40.548 -12.388   4.467  1.00  0.00    -0.060 N 
HETATM   11  H   UNL     1      40.563 -12.285   5.488  1.00  0.00     0.280 HD
HETATM   12  C   UNL     1      42.003 -12.629   4.042  1.00  0.00     0.256 C 
HETATM   13  C   UNL     1      42.562 -13.840   4.826  1.00  0.00     0.169 C 
BRANCH  10  14
HETATM   14  C   UNL     1      39.957 -11.093   3.919  1.00  0.00     0.337 C 
BRANCH  14  15
HETATM   15  C   UNL     1      38.997 -11.211   2.725  1.00  0.00     0.248 C 
HETATM   16  N   UNL     1      39.625 -11.700   1.592  1.00  0.00    -0.325 N 
HETATM   17  H   UNL     1      40.636 -11.781   1.639  1.00  0.00     0.169 HD
HETATM   18  O   UNL     1      37.836 -10.844   2.834  1.00  0.00    -0.271 OA
BRANCH  16  19
HETATM   19  C   UNL     1      39.114 -11.883   0.279  1.00  0.00     0.042 A 
HETATM   20  C   UNL     1      38.226 -12.877  -0.172  1.00  0.00    -0.035 A 
HETATM   21  C   UNL     1      37.729 -14.044   0.633  1.00  0.00     0.050 C 
HETATM   22  C   UNL     1      37.765 -12.824  -1.510  1.00  0.00     0.011 A 
HETATM   23  C   UNL     1      38.218 -11.856  -2.404  1.00  0.00     0.024 A 
HETATM   24  C   UNL     1      39.145 -10.925  -1.974  1.00  0.00     0.036 A 
HETATM   25  C   UNL     1      39.592 -10.938  -0.653  1.00  0.00     0.053 A 
HETATM   26 CL   UNL     1      39.742  -9.736  -3.064  1.00  0.00    -0.084 Cl
ENDBRANCH  16  19
ENDBRANCH  14  15
ENDBRANCH  10  14
ENDBRANCH   1   7
BRANCH   3  27
HETATM   27  N   UNL     1      40.791 -15.823   0.149  1.00  0.00    -0.187 N 
HETATM   28  H   UNL     1      39.810 -15.908   0.368  1.00  0.00     0.184 HD
BRANCH  27  29
HETATM   29  C   UNL     1      41.065 -15.059  -0.997  1.00  0.00     0.049 A 
HETATM   30  C   UNL     1      41.869 -13.915  -0.863  1.00  0.00     0.030 A 
HETATM   31  C   UNL     1      42.152 -13.094  -1.959  1.00  0.00     0.002 A 
HETATM   32  C   UNL     1      41.627 -13.401  -3.211  1.00  0.00     0.000 A 
HETATM   33  C   UNL     1      40.812 -14.519  -3.360  1.00  0.00     0.002 A 
HETATM   34  C   UNL     1      40.523 -15.331  -2.259  1.00  0.00     0.030 A 
ENDBRANCH  27  29
ENDBRANCH   3  27
BRANCH   5  35
HETATM   35  N   UNL     1      44.182 -18.248   2.190  1.00  0.00    -0.187 N 
HETATM   36  H   UNL     1      45.010 -17.845   1.768  1.00  0.00     0.184 HD
BRANCH  35  37
HETATM   37  C   UNL     1      44.290 -19.578   2.603  1.00  0.00     0.049 A 
HETATM   38  C   UNL     1      44.758 -19.970   3.860  1.00  0.00     0.030 A 
HETATM   39  C   UNL     1      44.811 -21.321   4.223  1.00  0.00     0.002 A 
HETATM   40  C   UNL     1      44.386 -22.303   3.333  1.00  0.00     0.000 A 
HETATM   41  C   UNL     1      43.908 -21.936   2.080  1.00  0.00     0.002 A 
HETATM   42  C   UNL     1      43.858 -20.585   1.724  1.00  0.00     0.030 A 
ENDBRANCH  35  37
ENDBRANCH   5  35
TORSDOF 8
ENDMDL
MODEL 7
REMARK VINA RESULT:      -9.7      2.830      4.020
REMARK  8 active torsions:
REMARK  status: ('A' for Active; 'I' for Inactive)
REMARK    1  A    between atoms: C_3  and  N_4 
REMARK       I    between atoms: N_4  and  C_5 
REMARK    2  A    between atoms: C_5  and  C_6 
REMARK    3  A    between atoms: C_6  and  N_7 
REMARK    4  A    between atoms: N_11  and  C_12 
REMARK    5  A    between atoms: C_14  and  N_15 
REMARK    6  A    between atoms: N_15  and  C_16 
REMARK    7  A    between atoms: C_23  and  N_24 
REMARK    8  A    between atoms: N_24  and  C_25 
ROOT
HETATM    1  C   UNL     1      40.525 -12.981   3.474  1.00  0.00     0.756 A 
HETATM    2  N   UNL     1      40.795 -12.165   2.465  1.00  0.00     0.131 NA
HETATM    3  C   UNL     1      41.970 -12.321   1.867  1.00  0.00     0.758 A 
HETATM    4  N   UNL     1      42.813 -13.294   2.171  1.00  0.00     0.131 NA
HETATM    5  C   UNL     1      42.455 -14.109   3.150  1.00  0.00     0.758 A 
HETATM    6  N   UNL     1      41.319 -13.982   3.829  1.00  0.00     0.131 NA
ENDROOT
BRANCH   1   7
HETATM    7  N   UNL     1      39.338 -12.771   4.185  1.00  0.00    -0.210 N 
HETATM    8  C   UNL     1      38.745 -11.429   4.067  1.00  0.00     0.169 C 
HETATM    9  C   UNL     1      39.404 -10.445   5.061  1.00  0.00     0.256 C 
HETATM   10  N   UNL     1      39.311 -11.029   6.486  1.00  0.00    -0.060 N 
HETATM   11  H   UNL     1      38.314 -11.206   6.650  1.00  0.00     0.280 HD
HETATM   12  C   UNL     1      40.002 -12.398   6.546  1.00  0.00     0.256 C 
HETATM   13  C   UNL     1      39.319 -13.351   5.536  1.00  0.00     0.169 C 
BRANCH  10  14
HETATM   14  C   UNL     1      39.758 -10.071   7.585  1.00  0.00     0.337 C 
BRANCH  14  15
HETATM   15  C   UNL     1      41.268  -9.974   7.859  1.00  0.00     0.248 C 
HETATM   16  N   UNL     1      41.649 -10.713   8.966  1.00  0.00    -0.325 N 
HETATM   17  H   UNL     1      40.897 -11.097   9.530  1.00  0.00     0.169 HD
HETATM   18  O   UNL     1      41.973  -9.260   7.161  1.00  0.00    -0.271 OA
BRANCH  16  19
HETATM   19  C   UNL     1      42.921 -10.826   9.588  1.00  0.00     0.042 A 
HETATM   20  C   UNL     1      43.308 -10.352  10.856  1.00  0.00    -0.035 A 
HETATM   21  C   UNL     1      42.472  -9.503  11.771  1.00  0.00     0.050 C 
HETATM   22  C   UNL     1      44.608 -10.654  11.329  1.00  0.00     0.011 A 
HETATM   23  C   UNL     1      45.530 -11.348  10.549  1.00  0.00     0.024 A 
HETATM   24  C   UNL     1      45.167 -11.749   9.277  1.00  0.00     0.036 A 
HETATM   25  C   UNL     1      43.883 -11.490   8.799  1.00  0.00     0.053 A 
HETATM   26 CL   UNL     1      46.295 -12.584   8.282  1.00  0.00    -0.084 Cl
ENDBRANCH  16  19
ENDBRANCH  14  15
ENDBRANCH  10  14
ENDBRANCH   1   7
BRANCH   3  27
HETATM   27  N   UNL     1      42.253 -11.424   0.839  1.00  0.00    -0.187 N 
HETATM   28  H   UNL     1      42.762 -10.629   1.196  1.00  0.00     0.184 HD
BRANCH  27  29
HETATM   29  C   UNL     1      42.350 -11.600  -0.550  1.00  0.00     0.049 A 
HETATM   30  C   UNL     1      42.633 -10.481  -1.349  1.00  0.00     0.030 A 
HETATM   31  C   UNL     1      42.710 -10.583  -2.741  1.00  0.00     0.002 A 
HETATM   32  C   UNL     1      42.498 -11.812  -3.360  1.00  0.00     0.000 A 
HETATM   33  C   UNL     1      42.196 -12.929  -2.587  1.00  0.00     0.002 A 
HETATM   34  C   UNL     1      42.110 -12.819  -1.196  1.00  0.00     0.030 A 
ENDBRANCH  27  29
ENDBRANCH   3  27
BRANCH   5  35
HETATM   35  N   UNL     1      43.354 -15.145   3.387  1.00  0.00    -0.187 N 
HETATM   36  H   UNL     1      44.003 -14.855   4.109  1.00  0.00     0.184 HD
BRANCH  35  37
HETATM   37  C   UNL     1      43.479 -16.464   2.945  1.00  0.00     0.049 A 
HETATM   38  C   UNL     1      43.594 -16.830   1.601  1.00  0.00     0.030 A 
HETATM   39  C   UNL     1      43.749 -18.170   1.227  1.00  0.00     0.002 A 
HETATM   40  C   UNL     1      43.801 -19.167   2.197  1.00  0.00     0.000 A 
HETATM   41  C   UNL     1      43.698 -18.825   3.540  1.00  0.00     0.002 A 
HETATM   42  C   UNL     1      43.544 -17.486   3.907  1.00  0.00     0.030 A 
ENDBRANCH  35  37
ENDBRANCH   5  35
TORSDOF 8
ENDMDL
MODEL 8
REMARK VINA RESULT:      -9.7      2.831      6.282
REMARK  8 active torsions:
REMARK  status: ('A' for Active; 'I' for Inactive)
REMARK    1  A    between atoms: C_3  and  N_4 
REMARK       I    between atoms: N_4  and  C_5 
REMARK    2  A    between atoms: C_5  and  C_6 
REMARK    3  A    between atoms: C_6  and  N_7 
REMARK    4  A    between atoms: N_11  and  C_12 
REMARK    5  A    between atoms: C_14  and  N_15 
REMARK    6  A    between atoms: N_15  and  C_16 
REMARK    7  A    between atoms: C_23  and  N_24 
REMARK    8  A    between atoms: N_24  and  C_25 
ROOT
HETATM    1  C   UNL     1      40.587 -12.933   3.467  1.00  0.00     0.756 A 
HETATM    2  N   UNL     1      41.429 -13.897   3.809  1.00  0.00     0.131 NA
HETATM    3  C   UNL     1      42.498 -14.061   3.038  1.00  0.00     0.758 A 
HETATM    4  N   UNL     1      42.790 -13.258   2.029  1.00  0.00     0.131 NA
HETATM    5  C   UNL     1      41.936 -12.280   1.776  1.00  0.00     0.758 A 
HETATM    6  N   UNL     1      40.819 -12.087   2.473  1.00  0.00     0.131 NA
ENDROOT
BRANCH   1   7
HETATM    7  N   UNL     1      39.404 -12.806   4.204  1.00  0.00    -0.210 N 
HETATM    8  C   UNL     1      38.722 -11.505   4.109  1.00  0.00     0.169 C 
HETATM    9  C   UNL     1      39.336 -10.486   5.097  1.00  0.00     0.256 C 
HETATM   10  N   UNL     1      39.313 -11.085   6.519  1.00  0.00    -0.060 N 
HETATM   11  H   UNL     1      38.333 -11.328   6.703  1.00  0.00     0.280 HD
HETATM   12  C   UNL     1      40.093 -12.406   6.554  1.00  0.00     0.256 C 
HETATM   13  C   UNL     1      39.453 -13.395   5.551  1.00  0.00     0.169 C 
BRANCH  10  14
HETATM   14  C   UNL     1      39.719 -10.106   7.617  1.00  0.00     0.337 C 
BRANCH  14  15
HETATM   15  C   UNL     1      41.222  -9.961   7.904  1.00  0.00     0.248 C 
HETATM   16  N   UNL     1      41.627 -10.728   8.983  1.00  0.00    -0.325 N 
HETATM   17  H   UNL     1      40.888 -11.163   9.526  1.00  0.00     0.169 HD
HETATM   18  O   UNL     1      41.902  -9.193   7.238  1.00  0.00    -0.271 OA
BRANCH  16  19
HETATM   19  C   UNL     1      42.900 -10.814   9.609  1.00  0.00     0.042 A 
HETATM   20  C   UNL     1      43.279 -10.317  10.869  1.00  0.00    -0.035 A 
HETATM   21  C   UNL     1      42.430  -9.464  11.770  1.00  0.00     0.050 C 
HETATM   22  C   UNL     1      44.581 -10.594  11.349  1.00  0.00     0.011 A 
HETATM   23  C   UNL     1      45.513 -11.289  10.581  1.00  0.00     0.024 A 
HETATM   24  C   UNL     1      45.158 -11.714   9.314  1.00  0.00     0.036 A 
HETATM   25  C   UNL     1      43.871 -11.478   8.831  1.00  0.00     0.053 A 
HETATM   26 CL   UNL     1      46.298 -12.549   8.334  1.00  0.00    -0.084 Cl
ENDBRANCH  16  19
ENDBRANCH  14  15
ENDBRANCH  10  14
ENDBRANCH   1   7
BRANCH   3  27
HETATM   27  N   UNL     1      43.346 -15.108   3.389  1.00  0.00    -0.187 N 
HETATM   28  H   UNL     1      43.714 -14.968   4.318  1.00  0.00     0.184 HD
BRANCH  27  29
HETATM   29  C   UNL     1      43.436 -16.430   2.922  1.00  0.00     0.049 A 
HETATM   30  C   UNL     1      43.466 -17.472   3.863  1.00  0.00     0.030 A 
HETATM   31  C   UNL     1      43.587 -18.806   3.465  1.00  0.00     0.002 A 
HETATM   32  C   UNL     1      43.688 -19.121   2.113  1.00  0.00     0.000 A 
HETATM   33  C   UNL     1      43.681 -18.101   1.166  1.00  0.00     0.002 A 
HETATM   34  C   UNL     1      43.570 -16.767   1.570  1.00  0.00     0.030 A 
ENDBRANCH  27  29
ENDBRANCH   3  27
BRANCH   5  35
HETATM   35  N   UNL     1      42.324 -11.435   0.740  1.00  0.00    -0.187 N 
HETATM   36  H   UNL     1      42.751 -10.607   1.138  1.00  0.00     0.184 HD
BRANCH  35  37
HETATM   37  C   UNL     1      42.350 -11.529  -0.653  1.00  0.00     0.049 A 
HETATM   38  C   UNL     1      42.642 -10.459  -1.503  1.00  0.00     0.030 A 
HETATM   39  C   UNL     1      42.682 -10.628  -2.892  1.00  0.00     0.002 A 
HETATM   40  C   UNL     1      42.438 -11.878  -3.453  1.00  0.00     0.000 A 
HETATM   41  C   UNL     1      42.154 -12.959  -2.626  1.00  0.00     0.002 A 
HETATM   42  C   UNL     1      42.115 -12.784  -1.241  1.00  0.00     0.030 A 
ENDBRANCH  35  37
ENDBRANCH   5  35
TORSDOF 8
ENDMDL
MODEL 9
REMARK VINA RESULT:      -9.6      3.557      9.187
REMARK  8 active torsions:
REMARK  status: ('A' for Active; 'I' for Inactive)
REMARK    1  A    between atoms: C_3  and  N_4 
REMARK       I    between atoms: N_4  and  C_5 
REMARK    2  A    between atoms: C_5  and  C_6 
REMARK    3  A    between atoms: C_6  and  N_7 
REMARK    4  A    between atoms: N_11  and  C_12 
REMARK    5  A    between atoms: C_14  and  N_15 
REMARK    6  A    between atoms: N_15  and  C_16 
REMARK    7  A    between atoms: C_23  and  N_24 
REMARK    8  A    between atoms: N_24  and  C_25 
ROOT
HETATM    1  C   UNL     1      41.993 -15.934   4.407  1.00  0.00     0.756 A 
HETATM    2  N   UNL     1      42.303 -15.066   5.359  1.00  0.00     0.131 NA
HETATM    3  C   UNL     1      43.252 -15.429   6.215  1.00  0.00     0.758 A 
HETATM    4  N   UNL     1      43.941 -16.551   6.095  1.00  0.00     0.131 NA
HETATM    5  C   UNL     1      43.619 -17.346   5.088  1.00  0.00     0.758 A 
HETATM    6  N   UNL     1      42.646 -17.072   4.223  1.00  0.00     0.131 NA
ENDROOT
BRANCH   1   7
HETATM    7  N   UNL     1      40.928 -15.616   3.555  1.00  0.00    -0.210 N 
HETATM    8  C   UNL     1      40.872 -16.363   2.288  1.00  0.00     0.169 C 
HETATM    9  C   UNL     1      41.791 -15.718   1.225  1.00  0.00     0.256 C 
HETATM   10  N   UNL     1      41.418 -14.228   1.073  1.00  0.00    -0.060 N 
HETATM   11  H   UNL     1      40.417 -14.214   0.844  1.00  0.00     0.280 HD
HETATM   12  C   UNL     1      41.558 -13.503   2.418  1.00  0.00     0.256 C 
HETATM   13  C   UNL     1      40.629 -14.180   3.453  1.00  0.00     0.169 C 
BRANCH  10  14
HETATM   14  C   UNL     1      42.126 -13.521  -0.079  1.00  0.00     0.337 C 
BRANCH  14  15
HETATM   15  C   UNL     1      41.387 -13.464  -1.426  1.00  0.00     0.248 C 
HETATM   16  N   UNL     1      40.074 -13.893  -1.323  1.00  0.00    -0.325 N 
HETATM   17  H   UNL     1      39.808 -14.316  -0.439  1.00  0.00     0.169 HD
HETATM   18  O   UNL     1      41.980 -13.117  -2.436  1.00  0.00    -0.271 OA
BRANCH  16  19
HETATM   19  C   UNL     1      39.093 -14.063  -2.336  1.00  0.00     0.042 A 
HETATM   20  C   UNL     1      38.964 -15.129  -3.246  1.00  0.00    -0.035 A 
HETATM   21  C   UNL     1      39.936 -16.263  -3.415  1.00  0.00     0.050 C 
HETATM   22  C   UNL     1      37.851 -15.150  -4.119  1.00  0.00     0.011 A 
HETATM   23  C   UNL     1      36.919 -14.115  -4.146  1.00  0.00     0.024 A 
HETATM   24  C   UNL     1      37.090 -13.035  -3.299  1.00  0.00     0.036 A 
HETATM   25  C   UNL     1      38.163 -13.005  -2.408  1.00  0.00     0.053 A 
HETATM   26 CL   UNL     1      35.970 -11.730  -3.330  1.00  0.00    -0.084 Cl
ENDBRANCH  16  19
ENDBRANCH  14  15
ENDBRANCH  10  14
ENDBRANCH   1   7
BRANCH   3  27
HETATM   27  N   UNL     1      43.530 -14.522   7.234  1.00  0.00    -0.187 N 
HETATM   28  H   UNL     1      42.967 -14.722   8.048  1.00  0.00     0.184 HD
BRANCH  27  29
HETATM   29  C   UNL     1      44.659 -13.727   7.491  1.00  0.00     0.049 A 
HETATM   30  C   UNL     1      44.640 -12.878   8.609  1.00  0.00     0.030 A 
HETATM   31  C   UNL     1      45.718 -12.038   8.901  1.00  0.00     0.002 A 
HETATM   32  C   UNL     1      46.836 -12.028   8.071  1.00  0.00     0.000 A 
HETATM   33  C   UNL     1      46.865 -12.847   6.946  1.00  0.00     0.002 A 
HETATM   34  C   UNL     1      45.779 -13.678   6.653  1.00  0.00     0.030 A 
ENDBRANCH  27  29
ENDBRANCH   3  27
BRANCH   5  35
HETATM   35  N   UNL     1      44.415 -18.482   4.980  1.00  0.00    -0.187 N 
HETATM   36  H   UNL     1      45.129 -18.449   5.698  1.00  0.00     0.184 HD
BRANCH  35  37
HETATM   37  C   UNL     1      44.377 -19.645   4.207  1.00  0.00     0.049 A 
HETATM   38  C   UNL     1      44.028 -19.673   2.854  1.00  0.00     0.030 A 
HETATM   39  C   UNL     1      44.041 -20.870   2.128  1.00  0.00     0.002 A 
HETATM   40  C   UNL     1      44.414 -22.060   2.746  1.00  0.00     0.000 A 
HETATM   41  C   UNL     1      44.774 -22.054   4.088  1.00  0.00     0.002 A 
HETATM   42  C   UNL     1      44.759 -20.857   4.807  1.00  0.00     0.030 A 
ENDBRANCH  35  37
ENDBRANCH   5  35
TORSDOF 8
ENDMDL
MODEL 10
REMARK VINA RESULT:      -9.6      2.983      6.057
REMARK  8 active torsions:
REMARK  status: ('A' for Active; 'I' for Inactive)
REMARK    1  A    between atoms: C_3  and  N_4 
REMARK       I    between atoms: N_4  and  C_5 
REMARK    2  A    between atoms: C_5  and  C_6 
REMARK    3  A    between atoms: C_6  and  N_7 
REMARK    4  A    between atoms: N_11  and  C_12 
REMARK    5  A    between atoms: C_14  and  N_15 
REMARK    6  A    between atoms: N_15  and  C_16 
REMARK    7  A    between atoms: C_23  and  N_24 
REMARK    8  A    between atoms: N_24  and  C_25 
ROOT
HETATM    1  C   UNL     1      41.411 -13.915   4.862  1.00  0.00     0.756 A 
HETATM    2  N   UNL     1      41.750 -14.762   3.899  1.00  0.00     0.131 NA
HETATM    3  C   UNL     1      42.937 -15.347   4.007  1.00  0.00     0.758 A 
HETATM    4  N   UNL     1      43.727 -15.192   5.055  1.00  0.00     0.131 NA
HETATM    5  C   UNL     1      43.303 -14.377   6.007  1.00  0.00     0.758 A 
HETATM    6  N   UNL     1      42.150 -13.717   5.944  1.00  0.00     0.131 NA
ENDROOT
BRANCH   1   7
HETATM    7  N   UNL     1      40.210 -13.210   4.720  1.00  0.00    -0.210 N 
HETATM    8  C   UNL     1      40.301 -11.918   4.022  1.00  0.00     0.169 C 
HETATM    9  C   UNL     1      40.736 -10.795   4.991  1.00  0.00     0.256 C 
HETATM   10  N   UNL     1      39.775 -10.770   6.199  1.00  0.00    -0.060 N 
HETATM   11  H   UNL     1      38.834 -10.659   5.804  1.00  0.00     0.280 HD
HETATM   12  C   UNL     1      39.780 -12.129   6.911  1.00  0.00     0.256 C 
HETATM   13  C   UNL     1      39.345 -13.224   5.909  1.00  0.00     0.169 C 
BRANCH  10  14
HETATM   14  C   UNL     1      39.983  -9.587   7.139  1.00  0.00     0.337 C 
BRANCH  14  15
HETATM   15  C   UNL     1      41.193  -9.647   8.085  1.00  0.00     0.248 C 
HETATM   16  N   UNL     1      40.816  -9.770   9.412  1.00  0.00    -0.325 N 
HETATM   17  H   UNL     1      39.826  -9.661   9.609  1.00  0.00     0.169 HD
HETATM   18  O   UNL     1      42.326  -9.540   7.638  1.00  0.00    -0.271 OA
BRANCH  16  19
HETATM   19  C   UNL     1      41.617  -9.782  10.585  1.00  0.00     0.042 A 
HETATM   20  C   UNL     1      41.826  -8.733  11.501  1.00  0.00    -0.035 A 
HETATM   21  C   UNL     1      41.334  -7.321  11.348  1.00  0.00     0.050 C 
HETATM   22  C   UNL     1      42.592  -8.986  12.664  1.00  0.00     0.011 A 
HETATM   23  C   UNL     1      43.195 -10.220  12.891  1.00  0.00     0.024 A 
HETATM   24  C   UNL     1      43.045 -11.225  11.953  1.00  0.00     0.036 A 
HETATM   25  C   UNL     1      42.271 -11.010  10.813  1.00  0.00     0.053 A 
HETATM   26 CL   UNL     1      43.802 -12.750  12.195  1.00  0.00    -0.084 Cl
ENDBRANCH  16  19
ENDBRANCH  14  15
ENDBRANCH  10  14
ENDBRANCH   1   7
BRANCH   3  27
HETATM   27  N   UNL     1      43.291 -16.197   2.962  1.00  0.00    -0.187 N 
HETATM   28  H   UNL     1      43.697 -15.672   2.202  1.00  0.00     0.184 HD
BRANCH  27  29
HETATM   29  C   UNL     1      43.579 -17.571   2.937  1.00  0.00     0.049 A 
HETATM   30  C   UNL     1      43.293 -18.294   1.767  1.00  0.00     0.030 A 
HETATM   31  C   UNL     1      43.526 -19.670   1.689  1.00  0.00     0.002 A 
HETATM   32  C   UNL     1      44.043 -20.351   2.787  1.00  0.00     0.000 A 
HETATM   33  C   UNL     1      44.314 -19.656   3.963  1.00  0.00     0.002 A 
HETATM   34  C   UNL     1      44.070 -18.281   4.039  1.00  0.00     0.030 A 
ENDBRANCH  27  29
ENDBRANCH   3  27
BRANCH   5  35
HETATM   35  N   UNL     1      44.149 -14.298   7.110  1.00  0.00    -0.187 N 
HETATM   36  H   UNL     1      44.201 -15.210   7.546  1.00  0.00     0.184 HD
BRANCH  35  37
HETATM   37  C   UNL     1      44.980 -13.312   7.648  1.00  0.00     0.049 A 
HETATM   38  C   UNL     1      44.634 -12.508   8.737  1.00  0.00     0.030 A 
HETATM   39  C   UNL     1      45.528 -11.559   9.248  1.00  0.00     0.002 A 
HETATM   40  C   UNL     1      46.789 -11.407   8.680  1.00  0.00     0.000 A 
HETATM   41  C   UNL     1      47.158 -12.203   7.602  1.00  0.00     0.002 A 
HETATM   42  C   UNL     1      46.262 -13.148   7.096  1.00  0.00     0.030 A 
ENDBRANCH  35  37
ENDBRANCH   5  35
TORSDOF 8
ENDMDL
