MODEL 1
REMARK VINA RESULT:      -8.7      0.000      0.000
REMARK  8 active torsions:
REMARK  status: ('A' for Active; 'I' for Inactive)
REMARK       I    between atoms: C_2  and  N_3 
REMARK    1  A    between atoms: N_3  and  C_4 
REMARK    2  A    between atoms: C_6  and  N_7 
REMARK    3  A    between atoms: N_7  and  C_8 
REMARK    4  A    between atoms: C_8  and  C_9 
REMARK       I    between atoms: C_9  and  N_10 
REMARK    5  A    between atoms: N_10  and  C_11 
REMARK    6  A    between atoms: C_12  and  C_13 
REMARK       I    between atoms: C_13  and  N_14 
REMARK    7  A    between atoms: N_14  and  C_15 
REMARK    8  A    between atoms: C_24  and  O_25 
ROOT
HETATM    1  C   UNL     1      42.043 -17.667   3.711  1.00  0.00     0.235 C 
HETATM    2  N   UNL     1      42.988 -18.271   2.895  1.00  0.00    -0.325 N 
HETATM    3  O   UNL     1      41.477 -18.178   4.671  1.00  0.00    -0.272 OA
HETATM    4  H   UNL     1      43.516 -17.644   2.300  1.00  0.00     0.169 HD
ENDROOT
BRANCH   1   5
HETATM    5  C   UNL     1      41.829 -16.184   3.357  1.00  0.00     0.195 C 
BRANCH   5   6
HETATM    6  N   UNL     1      42.626 -15.739   2.212  1.00  0.00    -0.282 NA
HETATM    7  H   UNL     1      43.482 -15.276   2.535  1.00  0.00     0.128 HD
BRANCH   6   8
HETATM    8  C   UNL     1      42.052 -14.951   1.199  1.00  0.00     0.044 A 
HETATM    9  C   UNL     1      41.356 -15.504   0.111  1.00  0.00     0.055 A 
HETATM   10  C   UNL     1      40.671 -14.710  -0.816  1.00  0.00     0.036 A 
HETATM   11  C   UNL     1      40.719 -13.321  -0.687  1.00  0.00     0.032 A 
HETATM   12  C   UNL     1      41.401 -12.743   0.381  1.00  0.00     0.041 A 
HETATM   13  C   UNL     1      42.065 -13.546   1.312  1.00  0.00     0.089 A 
BRANCH  10  14
HETATM   14  N   UNL     1      39.891 -15.239  -1.869  1.00  0.00    -0.327 N 
HETATM   15  C   UNL     1      40.317 -15.539  -3.152  1.00  0.00     0.218 C 
HETATM   16  C   UNL     1      39.236 -16.166  -3.997  1.00  0.00     0.117 C 
HETATM   17  O   UNL     1      41.452 -15.398  -3.601  1.00  0.00    -0.274 OA
HETATM   18  H   UNL     1      38.962 -15.550  -1.611  1.00  0.00     0.169 HD
ENDBRANCH  10  14
BRANCH  13  19
HETATM   19  O   UNL     1      42.668 -12.861   2.340  1.00  0.00    -0.354 OA
HETATM   20  C   UNL     1      41.751 -12.448   3.352  1.00  0.00     0.210 C 
ENDBRANCH  13  19
ENDBRANCH   6   8
ENDBRANCH   5   6
ENDBRANCH   1   5
BRANCH   2  21
HETATM   21  C   UNL     1      43.528 -19.574   3.011  1.00  0.00     0.050 A 
HETATM   22  C   UNL     1      44.247 -20.117   4.086  1.00  0.00     0.058 A 
HETATM   23  C   UNL     1      44.812 -21.406   3.963  1.00  0.00     0.019 A 
HETATM   24  C   UNL     1      44.635 -22.169   2.812  1.00  0.00     0.001 A 
HETATM   25  C   UNL     1      43.873 -21.661   1.770  1.00  0.00     0.002 A 
HETATM   26  C   UNL     1      43.321 -20.382   1.873  1.00  0.00     0.030 A 
BRANCH  22  27
HETATM   27  C   UNL     1      44.389 -19.539   5.444  1.00  0.00     0.254 C 
HETATM   28  N   UNL     1      44.710 -18.193   5.512  1.00  0.00    -0.352 N 
HETATM   29  H   UNL     1      44.899 -17.677   4.655  1.00  0.00     0.163 HD
HETATM   30  O   UNL     1      44.068 -20.219   6.417  1.00  0.00    -0.268 OA
BRANCH  28  31
HETATM   31  C   UNL     1      44.691 -17.503   6.766  1.00  0.00     0.084 A 
HETATM   32  C   UNL     1      44.305 -16.052   6.828  1.00  0.00     0.027 A 
HETATM   33  C   UNL     1      43.410 -17.093   7.432  1.00  0.00     0.027 A 
ENDBRANCH  28  31
ENDBRANCH  22  27
ENDBRANCH   2  21
TORSDOF 8
ENDMDL
MODEL 2
REMARK VINA RESULT:      -8.7      2.524      4.415
REMARK  8 active torsions:
REMARK  status: ('A' for Active; 'I' for Inactive)
REMARK       I    between atoms: C_2  and  N_3 
REMARK    1  A    between atoms: N_3  and  C_4 
REMARK    2  A    between atoms: C_6  and  N_7 
REMARK    3  A    between atoms: N_7  and  C_8 
REMARK    4  A    between atoms: C_8  and  C_9 
REMARK       I    between atoms: C_9  and  N_10 
REMARK    5  A    between atoms: N_10  and  C_11 
REMARK    6  A    between atoms: C_12  and  C_13 
REMARK       I    between atoms: C_13  and  N_14 
REMARK    7  A    between atoms: N_14  and  C_15 
REMARK    8  A    between atoms: C_24  and  O_25 
ROOT
HETATM    1  C   UNL     1      42.730 -17.559   1.139  1.00  0.00     0.235 C 
HETATM    2  N   UNL     1      42.358 -18.680   1.869  1.00  0.00    -0.325 N 
HETATM    3  O   UNL     1      43.875 -17.203   0.887  1.00  0.00    -0.272 OA
HETATM    4  H   UNL     1      41.386 -18.950   1.788  1.00  0.00     0.169 HD
ENDROOT
BRANCH   1   5
HETATM    5  C   UNL     1      41.516 -16.820   0.548  1.00  0.00     0.195 C 
BRANCH   5   6
HETATM    6  N   UNL     1      40.386 -16.722   1.474  1.00  0.00    -0.282 NA
HETATM    7  H   UNL     1      39.502 -16.718   0.954  1.00  0.00     0.128 HD
BRANCH   6   8
HETATM    8  C   UNL     1      40.336 -15.705   2.442  1.00  0.00     0.044 A 
HETATM    9  C   UNL     1      41.211 -15.660   3.541  1.00  0.00     0.055 A 
HETATM   10  C   UNL     1      41.245 -14.572   4.422  1.00  0.00     0.036 A 
HETATM   11  C   UNL     1      40.349 -13.519   4.235  1.00  0.00     0.032 A 
HETATM   12  C   UNL     1      39.469 -13.534   3.154  1.00  0.00     0.041 A 
HETATM   13  C   UNL     1      39.457 -14.616   2.270  1.00  0.00     0.089 A 
BRANCH  10  14
HETATM   14  N   UNL     1      42.171 -14.458   5.483  1.00  0.00    -0.327 N 
HETATM   15  C   UNL     1      43.482 -14.020   5.401  1.00  0.00     0.218 C 
HETATM   16  C   UNL     1      44.161 -13.948   6.746  1.00  0.00     0.117 C 
HETATM   17  O   UNL     1      44.071 -13.651   4.387  1.00  0.00    -0.274 OA
HETATM   18  H   UNL     1      41.789 -14.586   6.412  1.00  0.00     0.169 HD
ENDBRANCH  10  14
BRANCH  13  19
HETATM   19  O   UNL     1      38.573 -14.497   1.225  1.00  0.00    -0.354 OA
HETATM   20  C   UNL     1      37.956 -13.212   1.156  1.00  0.00     0.210 C 
ENDBRANCH  13  19
ENDBRANCH   6   8
ENDBRANCH   5   6
ENDBRANCH   1   5
BRANCH   2  21
HETATM   21  C   UNL     1      43.202 -19.660   2.441  1.00  0.00     0.050 A 
HETATM   22  C   UNL     1      44.002 -19.547   3.588  1.00  0.00     0.058 A 
HETATM   23  C   UNL     1      44.874 -20.603   3.934  1.00  0.00     0.019 A 
HETATM   24  C   UNL     1      44.928 -21.775   3.183  1.00  0.00     0.001 A 
HETATM   25  C   UNL     1      44.096 -21.916   2.083  1.00  0.00     0.002 A 
HETATM   26  C   UNL     1      43.238 -20.874   1.723  1.00  0.00     0.030 A 
BRANCH  22  27
HETATM   27  C   UNL     1      43.954 -18.467   4.603  1.00  0.00     0.254 C 
HETATM   28  N   UNL     1      44.031 -18.860   5.929  1.00  0.00    -0.352 N 
HETATM   29  H   UNL     1      44.049 -19.852   6.159  1.00  0.00     0.163 HD
HETATM   30  O   UNL     1      44.008 -17.296   4.230  1.00  0.00    -0.268 OA
BRANCH  28  31
HETATM   31  C   UNL     1      44.175 -17.889   6.969  1.00  0.00     0.084 A 
HETATM   32  C   UNL     1      42.973 -17.413   7.736  1.00  0.00     0.027 A 
HETATM   33  C   UNL     1      44.018 -18.245   8.420  1.00  0.00     0.027 A 
ENDBRANCH  28  31
ENDBRANCH  22  27
ENDBRANCH   2  21
TORSDOF 8
ENDMDL
MODEL 3
REMARK VINA RESULT:      -8.3      2.077      3.885
REMARK  8 active torsions:
REMARK  status: ('A' for Active; 'I' for Inactive)
REMARK       I    between atoms: C_2  and  N_3 
REMARK    1  A    between atoms: N_3  and  C_4 
REMARK    2  A    between atoms: C_6  and  N_7 
REMARK    3  A    between atoms: N_7  and  C_8 
REMARK    4  A    between atoms: C_8  and  C_9 
REMARK       I    between atoms: C_9  and  N_10 
REMARK    5  A    between atoms: N_10  and  C_11 
REMARK    6  A    between atoms: C_12  and  C_13 
REMARK       I    between atoms: C_13  and  N_14 
REMARK    7  A    between atoms: N_14  and  C_15 
REMARK    8  A    between atoms: C_24  and  O_25 
ROOT
HETATM    1  C   UNL     1      42.010 -16.394   1.875  1.00  0.00     0.235 C 
HETATM    2  N   UNL     1      41.833 -17.731   2.202  1.00  0.00    -0.325 N 
HETATM    3  O   UNL     1      43.011 -15.720   2.085  1.00  0.00    -0.272 OA
HETATM    4  H   UNL     1      41.047 -18.189   1.757  1.00  0.00     0.169 HD
ENDROOT
BRANCH   1   5
HETATM    5  C   UNL     1      40.817 -15.825   1.084  1.00  0.00     0.195 C 
BRANCH   5   6
HETATM    6  N   UNL     1      40.883 -16.106  -0.351  1.00  0.00    -0.282 NA
HETATM    7  H   UNL     1      41.542 -16.871  -0.533  1.00  0.00     0.128 HD
BRANCH   6   8
HETATM    8  C   UNL     1      41.134 -15.077  -1.275  1.00  0.00     0.044 A 
HETATM    9  C   UNL     1      41.838 -13.909  -0.936  1.00  0.00     0.055 A 
HETATM   10  C   UNL     1      42.202 -12.954  -1.893  1.00  0.00     0.036 A 
HETATM   11  C   UNL     1      41.813 -13.141  -3.220  1.00  0.00     0.032 A 
HETATM   12  C   UNL     1      41.114 -14.290  -3.587  1.00  0.00     0.041 A 
HETATM   13  C   UNL     1      40.773 -15.245  -2.627  1.00  0.00     0.089 A 
BRANCH  10  14
HETATM   14  N   UNL     1      42.984 -11.815  -1.598  1.00  0.00    -0.327 N 
HETATM   15  C   UNL     1      42.523 -10.558  -1.244  1.00  0.00     0.218 C 
HETATM   16  C   UNL     1      43.639  -9.595  -0.920  1.00  0.00     0.117 C 
HETATM   17  O   UNL     1      41.350 -10.212  -1.123  1.00  0.00    -0.274 OA
HETATM   18  H   UNL     1      43.980 -11.979  -1.511  1.00  0.00     0.169 HD
ENDBRANCH  10  14
BRANCH  13  19
HETATM   19  O   UNL     1      40.118 -16.349  -3.118  1.00  0.00    -0.354 OA
HETATM   20  C   UNL     1      39.118 -16.025  -4.084  1.00  0.00     0.210 C 
ENDBRANCH  13  19
ENDBRANCH   6   8
ENDBRANCH   5   6
ENDBRANCH   1   5
BRANCH   2  21
HETATM   21  C   UNL     1      42.767 -18.606   2.806  1.00  0.00     0.050 A 
HETATM   22  C   UNL     1      43.361 -18.493   4.071  1.00  0.00     0.058 A 
HETATM   23  C   UNL     1      44.368 -19.408   4.450  1.00  0.00     0.019 A 
HETATM   24  C   UNL     1      44.757 -20.449   3.609  1.00  0.00     0.001 A 
HETATM   25  C   UNL     1      44.130 -20.601   2.382  1.00  0.00     0.002 A 
HETATM   26  C   UNL     1      43.141 -19.695   1.990  1.00  0.00     0.030 A 
BRANCH  22  27
HETATM   27  C   UNL     1      42.960 -17.574   5.164  1.00  0.00     0.254 C 
HETATM   28  N   UNL     1      43.965 -16.800   5.720  1.00  0.00    -0.352 N 
HETATM   29  H   UNL     1      44.928 -16.933   5.418  1.00  0.00     0.163 HD
HETATM   30  O   UNL     1      41.764 -17.427   5.409  1.00  0.00    -0.268 OA
BRANCH  28  31
HETATM   31  C   UNL     1      43.652 -15.758   6.650  1.00  0.00     0.084 A 
HETATM   32  C   UNL     1      44.648 -14.669   6.934  1.00  0.00     0.027 A 
HETATM   33  C   UNL     1      43.375 -14.350   6.207  1.00  0.00     0.027 A 
ENDBRANCH  28  31
ENDBRANCH  22  27
ENDBRANCH   2  21
TORSDOF 8
ENDMDL
MODEL 4
REMARK VINA RESULT:      -8.2      2.238      2.645
REMARK  8 active torsions:
REMARK  status: ('A' for Active; 'I' for Inactive)
REMARK       I    between atoms: C_2  and  N_3 
REMARK    1  A    between atoms: N_3  and  C_4 
REMARK    2  A    between atoms: C_6  and  N_7 
REMARK    3  A    between atoms: N_7  and  C_8 
REMARK    4  A    between atoms: C_8  and  C_9 
REMARK       I    between atoms: C_9  and  N_10 
REMARK    5  A    between atoms: N_10  and  C_11 
REMARK    6  A    between atoms: C_12  and  C_13 
REMARK       I    between atoms: C_13  and  N_14 
REMARK    7  A    between atoms: N_14  and  C_15 
REMARK    8  A    between atoms: C_24  and  O_25 
ROOT
HETATM    1  C   UNL     1      42.881 -17.142   1.330  1.00  0.00     0.235 C 
HETATM    2  N   UNL     1      42.508 -18.393   1.803  1.00  0.00    -0.325 N 
HETATM    3  O   UNL     1      43.896 -16.525   1.630  1.00  0.00    -0.272 OA
HETATM    4  H   UNL     1      41.769 -18.851   1.285  1.00  0.00     0.169 HD
ENDROOT
BRANCH   1   5
HETATM    5  C   UNL     1      41.914 -16.613   0.255  1.00  0.00     0.195 C 
BRANCH   5   6
HETATM    6  N   UNL     1      41.654 -15.176   0.362  1.00  0.00    -0.282 NA
HETATM    7  H   UNL     1      42.109 -14.795   1.199  1.00  0.00     0.128 HD
BRANCH   6   8
HETATM    8  C   UNL     1      40.342 -14.676   0.305  1.00  0.00     0.044 A 
HETATM    9  C   UNL     1      39.787 -14.136  -0.867  1.00  0.00     0.055 A 
HETATM   10  C   UNL     1      38.439 -13.768  -0.952  1.00  0.00     0.036 A 
HETATM   11  C   UNL     1      37.628 -13.895   0.177  1.00  0.00     0.032 A 
HETATM   12  C   UNL     1      38.150 -14.427   1.355  1.00  0.00     0.041 A 
HETATM   13  C   UNL     1      39.492 -14.808   1.422  1.00  0.00     0.089 A 
BRANCH  10  14
HETATM   14  N   UNL     1      37.831 -13.305  -2.141  1.00  0.00    -0.327 N 
HETATM   15  C   UNL     1      37.399 -14.073  -3.209  1.00  0.00     0.218 C 
HETATM   16  C   UNL     1      36.721 -13.256  -4.281  1.00  0.00     0.117 C 
HETATM   17  O   UNL     1      37.469 -15.295  -3.311  1.00  0.00    -0.274 OA
HETATM   18  H   UNL     1      37.569 -12.326  -2.145  1.00  0.00     0.169 HD
ENDBRANCH  10  14
BRANCH  13  19
HETATM   19  O   UNL     1      39.878 -15.353   2.623  1.00  0.00    -0.354 OA
HETATM   20  C   UNL     1      39.987 -14.387   3.668  1.00  0.00     0.210 C 
ENDBRANCH  13  19
ENDBRANCH   6   8
ENDBRANCH   5   6
ENDBRANCH   1   5
BRANCH   2  21
HETATM   21  C   UNL     1      43.222 -19.232   2.690  1.00  0.00     0.050 A 
HETATM   22  C   UNL     1      43.504 -19.012   4.046  1.00  0.00     0.058 A 
HETATM   23  C   UNL     1      44.341 -19.917   4.737  1.00  0.00     0.019 A 
HETATM   24  C   UNL     1      44.861 -21.048   4.111  1.00  0.00     0.001 A 
HETATM   25  C   UNL     1      44.536 -21.301   2.787  1.00  0.00     0.002 A 
HETATM   26  C   UNL     1      43.720 -20.408   2.089  1.00  0.00     0.030 A 
BRANCH  22  27
HETATM   27  C   UNL     1      42.906 -17.977   4.922  1.00  0.00     0.254 C 
HETATM   28  N   UNL     1      43.780 -17.277   5.737  1.00  0.00    -0.352 N 
HETATM   29  H   UNL     1      44.765 -17.534   5.757  1.00  0.00     0.163 HD
HETATM   30  O   UNL     1      41.720 -17.685   4.775  1.00  0.00    -0.268 OA
BRANCH  28  31
HETATM   31  C   UNL     1      43.329 -16.141   6.482  1.00  0.00     0.084 A 
HETATM   32  C   UNL     1      44.314 -15.123   6.985  1.00  0.00     0.027 A 
HETATM   33  C   UNL     1      43.339 -14.754   5.907  1.00  0.00     0.027 A 
ENDBRANCH  28  31
ENDBRANCH  22  27
ENDBRANCH   2  21
TORSDOF 8
ENDMDL
MODEL 5
REMARK VINA RESULT:      -8.2      2.215      2.696
REMARK  8 active torsions:
REMARK  status: ('A' for Active; 'I' for Inactive)
REMARK       I    between atoms: C_2  and  N_3 
REMARK    1  A    between atoms: N_3  and  C_4 
REMARK    2  A    between atoms: C_6  and  N_7 
REMARK    3  A    between atoms: N_7  and  C_8 
REMARK    4  A    between atoms: C_8  and  C_9 
REMARK       I    between atoms: C_9  and  N_10 
REMARK    5  A    between atoms: N_10  and  C_11 
REMARK    6  A    between atoms: C_12  and  C_13 
REMARK       I    between atoms: C_13  and  N_14 
REMARK    7  A    between atoms: N_14  and  C_15 
REMARK    8  A    between atoms: C_24  and  O_25 
ROOT
HETATM    1  C   UNL     1      42.836 -17.881   1.907  1.00  0.00     0.235 C 
HETATM    2  N   UNL     1      43.962 -18.693   1.943  1.00  0.00    -0.325 N 
HETATM    3  O   UNL     1      41.811 -18.030   2.561  1.00  0.00    -0.272 OA
HETATM    4  H   UNL     1      44.794 -18.303   1.519  1.00  0.00     0.169 HD
ENDROOT
BRANCH   1   5
HETATM    5  C   UNL     1      43.036 -16.649   1.006  1.00  0.00     0.195 C 
BRANCH   5   6
HETATM    6  N   UNL     1      41.844 -16.293   0.233  1.00  0.00    -0.282 NA
HETATM    7  H   UNL     1      41.946 -16.608  -0.739  1.00  0.00     0.128 HD
BRANCH   6   8
HETATM    8  C   UNL     1      41.359 -14.974   0.223  1.00  0.00     0.044 A 
HETATM    9  C   UNL     1      41.775 -14.020  -0.721  1.00  0.00     0.055 A 
HETATM   10  C   UNL     1      41.187 -12.753  -0.808  1.00  0.00     0.036 A 
HETATM   11  C   UNL     1      40.187 -12.405   0.101  1.00  0.00     0.032 A 
HETATM   12  C   UNL     1      39.753 -13.329   1.049  1.00  0.00     0.041 A 
HETATM   13  C   UNL     1      40.334 -14.598   1.115  1.00  0.00     0.089 A 
BRANCH  10  14
HETATM   14  N   UNL     1      41.523 -11.805  -1.801  1.00  0.00    -0.327 N 
HETATM   15  C   UNL     1      42.660 -11.017  -1.848  1.00  0.00     0.218 C 
HETATM   16  C   UNL     1      42.735 -10.171  -3.095  1.00  0.00     0.117 C 
HETATM   17  O   UNL     1      43.579 -11.004  -1.033  1.00  0.00    -0.274 OA
HETATM   18  H   UNL     1      40.931 -11.805  -2.623  1.00  0.00     0.169 HD
ENDBRANCH  10  14
BRANCH  13  19
HETATM   19  O   UNL     1      39.795 -15.432   2.065  1.00  0.00    -0.354 OA
HETATM   20  C   UNL     1      40.188 -15.094   3.395  1.00  0.00     0.210 C 
ENDBRANCH  13  19
ENDBRANCH   6   8
ENDBRANCH   5   6
ENDBRANCH   1   5
BRANCH   2  21
HETATM   21  C   UNL     1      44.185 -19.829   2.755  1.00  0.00     0.050 A 
HETATM   22  C   UNL     1      44.533 -19.862   4.114  1.00  0.00     0.058 A 
HETATM   23  C   UNL     1      44.833 -21.101   4.723  1.00  0.00     0.019 A 
HETATM   24  C   UNL     1      44.751 -22.298   4.015  1.00  0.00     0.001 A 
HETATM   25  C   UNL     1      44.349 -22.276   2.688  1.00  0.00     0.002 A 
HETATM   26  C   UNL     1      44.062 -21.056   2.070  1.00  0.00     0.030 A 
BRANCH  22  27
HETATM   27  C   UNL     1      44.500 -18.729   5.069  1.00  0.00     0.254 C 
HETATM   28  N   UNL     1      43.284 -18.083   5.220  1.00  0.00    -0.352 N 
HETATM   29  H   UNL     1      42.494 -18.355   4.638  1.00  0.00     0.163 HD
HETATM   30  O   UNL     1      45.481 -18.521   5.781  1.00  0.00    -0.268 OA
BRANCH  28  31
HETATM   31  C   UNL     1      43.103 -17.100   6.244  1.00  0.00     0.084 A 
HETATM   32  C   UNL     1      41.735 -16.827   6.802  1.00  0.00     0.027 A 
HETATM   33  C   UNL     1      42.780 -17.475   7.662  1.00  0.00     0.027 A 
ENDBRANCH  28  31
ENDBRANCH  22  27
ENDBRANCH   2  21
TORSDOF 8
ENDMDL
MODEL 6
REMARK VINA RESULT:      -8.1      1.946      4.183
REMARK  8 active torsions:
REMARK  status: ('A' for Active; 'I' for Inactive)
REMARK       I    between atoms: C_2  and  N_3 
REMARK    1  A    between atoms: N_3  and  C_4 
REMARK    2  A    between atoms: C_6  and  N_7 
REMARK    3  A    between atoms: N_7  and  C_8 
REMARK    4  A    between atoms: C_8  and  C_9 
REMARK       I    between atoms: C_9  and  N_10 
REMARK    5  A    between atoms: N_10  and  C_11 
REMARK    6  A    between atoms: C_12  and  C_13 
REMARK       I    between atoms: C_13  and  N_14 
REMARK    7  A    between atoms: N_14  and  C_15 
REMARK    8  A    between atoms: C_24  and  O_25 
ROOT
HETATM    1  C   UNL     1      42.939 -14.150   3.091  1.00  0.00     0.235 C 
HETATM    2  N   UNL     1      42.549 -15.358   3.653  1.00  0.00    -0.325 N 
HETATM    3  O   UNL     1      43.992 -13.559   3.298  1.00  0.00    -0.272 OA
HETATM    4  H   UNL     1      41.764 -15.814   3.205  1.00  0.00     0.169 HD
ENDROOT
BRANCH   1   5
HETATM    5  C   UNL     1      41.929 -13.641   2.047  1.00  0.00     0.195 C 
BRANCH   5   6
HETATM    6  N   UNL     1      42.454 -12.561   1.209  1.00  0.00    -0.282 NA
HETATM    7  H   UNL     1      42.272 -11.652   1.648  1.00  0.00     0.128 HD
BRANCH   6   8
HETATM    8  C   UNL     1      42.109 -12.473  -0.151  1.00  0.00     0.044 A 
HETATM    9  C   UNL     1      41.079 -13.239  -0.723  1.00  0.00     0.055 A 
HETATM   10  C   UNL     1      40.651 -13.045  -2.042  1.00  0.00     0.036 A 
HETATM   11  C   UNL     1      41.299 -12.095  -2.833  1.00  0.00     0.032 A 
HETATM   12  C   UNL     1      42.324 -11.320  -2.294  1.00  0.00     0.041 A 
HETATM   13  C   UNL     1      42.729 -11.508  -0.971  1.00  0.00     0.089 A 
BRANCH  10  14
HETATM   14  N   UNL     1      39.563 -13.738  -2.617  1.00  0.00    -0.327 N 
HETATM   15  C   UNL     1      39.626 -14.818  -3.481  1.00  0.00     0.218 C 
HETATM   16  C   UNL     1      38.265 -15.363  -3.838  1.00  0.00     0.117 C 
HETATM   17  O   UNL     1      40.643 -15.366  -3.899  1.00  0.00    -0.274 OA
HETATM   18  H   UNL     1      38.649 -13.497  -2.252  1.00  0.00     0.169 HD
ENDBRANCH  10  14
BRANCH  13  19
HETATM   19  O   UNL     1      43.722 -10.659  -0.544  1.00  0.00    -0.354 OA
HETATM   20  C   UNL     1      43.306  -9.295  -0.486  1.00  0.00     0.210 C 
ENDBRANCH  13  19
ENDBRANCH   6   8
ENDBRANCH   5   6
ENDBRANCH   1   5
BRANCH   2  21
HETATM   21  C   UNL     1      43.283 -16.177   4.543  1.00  0.00     0.050 A 
HETATM   22  C   UNL     1      43.738 -17.487   4.333  1.00  0.00     0.058 A 
HETATM   23  C   UNL     1      44.353 -18.187   5.394  1.00  0.00     0.019 A 
HETATM   24  C   UNL     1      44.556 -17.590   6.636  1.00  0.00     0.001 A 
HETATM   25  C   UNL     1      44.163 -16.275   6.831  1.00  0.00     0.002 A 
HETATM   26  C   UNL     1      43.541 -15.576   5.793  1.00  0.00     0.030 A 
BRANCH  22  27
HETATM   27  C   UNL     1      43.775 -18.220   3.044  1.00  0.00     0.254 C 
HETATM   28  N   UNL     1      44.190 -19.540   3.096  1.00  0.00    -0.352 N 
HETATM   29  H   UNL     1      44.511 -19.932   3.979  1.00  0.00     0.163 HD
HETATM   30  O   UNL     1      43.298 -17.689   2.043  1.00  0.00    -0.268 OA
BRANCH  28  31
HETATM   31  C   UNL     1      44.088 -20.382   1.943  1.00  0.00     0.084 A 
HETATM   32  C   UNL     1      44.428 -21.843   2.036  1.00  0.00     0.027 A 
HETATM   33  C   UNL     1      43.009 -21.416   1.803  1.00  0.00     0.027 A 
ENDBRANCH  28  31
ENDBRANCH  22  27
ENDBRANCH   2  21
TORSDOF 8
ENDMDL
MODEL 7
REMARK VINA RESULT:      -8.1      2.091      5.029
REMARK  8 active torsions:
REMARK  status: ('A' for Active; 'I' for Inactive)
REMARK       I    between atoms: C_2  and  N_3 
REMARK    1  A    between atoms: N_3  and  C_4 
REMARK    2  A    between atoms: C_6  and  N_7 
REMARK    3  A    between atoms: N_7  and  C_8 
REMARK    4  A    between atoms: C_8  and  C_9 
REMARK       I    between atoms: C_9  and  N_10 
REMARK    5  A    between atoms: N_10  and  C_11 
REMARK    6  A    between atoms: C_12  and  C_13 
REMARK       I    between atoms: C_13  and  N_14 
REMARK    7  A    between atoms: N_14  and  C_15 
REMARK    8  A    between atoms: C_24  and  O_25 
ROOT
HETATM    1  C   UNL     1      41.172 -15.566   2.288  1.00  0.00     0.235 C 
HETATM    2  N   UNL     1      40.781 -16.559   3.175  1.00  0.00    -0.325 N 
HETATM    3  O   UNL     1      42.195 -14.895   2.352  1.00  0.00    -0.272 OA
HETATM    4  H   UNL     1      40.035 -17.163   2.852  1.00  0.00     0.169 HD
ENDROOT
BRANCH   1   5
HETATM    5  C   UNL     1      40.212 -15.444   1.090  1.00  0.00     0.195 C 
BRANCH   5   6
HETATM    6  N   UNL     1      40.819 -15.836  -0.184  1.00  0.00    -0.282 NA
HETATM    7  H   UNL     1      41.668 -16.386  -0.018  1.00  0.00     0.128 HD
BRANCH   6   8
HETATM    8  C   UNL     1      41.100 -14.876  -1.172  1.00  0.00     0.044 A 
HETATM    9  C   UNL     1      41.778 -13.677  -0.894  1.00  0.00     0.055 A 
HETATM   10  C   UNL     1      42.174 -12.794  -1.904  1.00  0.00     0.036 A 
HETATM   11  C   UNL     1      41.844 -13.086  -3.229  1.00  0.00     0.032 A 
HETATM   12  C   UNL     1      41.173 -14.267  -3.537  1.00  0.00     0.041 A 
HETATM   13  C   UNL     1      40.799 -15.151  -2.522  1.00  0.00     0.089 A 
BRANCH  10  14
HETATM   14  N   UNL     1      42.932 -11.626  -1.665  1.00  0.00    -0.327 N 
HETATM   15  C   UNL     1      42.602 -10.577  -0.822  1.00  0.00     0.218 C 
HETATM   16  C   UNL     1      43.682  -9.527  -0.745  1.00  0.00     0.117 C 
HETATM   17  O   UNL     1      41.590 -10.479  -0.133  1.00  0.00    -0.274 OA
HETATM   18  H   UNL     1      43.869 -11.626  -2.050  1.00  0.00     0.169 HD
ENDBRANCH  10  14
BRANCH  13  19
HETATM   19  O   UNL     1      40.176 -16.297  -2.954  1.00  0.00    -0.354 OA
HETATM   20  C   UNL     1      39.185 -16.055  -3.952  1.00  0.00     0.210 C 
ENDBRANCH  13  19
ENDBRANCH   6   8
ENDBRANCH   5   6
ENDBRANCH   1   5
BRANCH   2  21
HETATM   21  C   UNL     1      41.482 -17.034   4.308  1.00  0.00     0.050 A 
HETATM   22  C   UNL     1      42.399 -18.093   4.373  1.00  0.00     0.058 A 
HETATM   23  C   UNL     1      42.906 -18.497   5.628  1.00  0.00     0.019 A 
HETATM   24  C   UNL     1      42.548 -17.838   6.802  1.00  0.00     0.001 A 
HETATM   25  C   UNL     1      41.689 -16.751   6.736  1.00  0.00     0.002 A 
HETATM   26  C   UNL     1      41.170 -16.351   5.502  1.00  0.00     0.030 A 
BRANCH  22  27
HETATM   27  C   UNL     1      43.032 -18.793   3.229  1.00  0.00     0.254 C 
HETATM   28  N   UNL     1      43.907 -19.820   3.541  1.00  0.00    -0.352 N 
HETATM   29  H   UNL     1      44.133 -20.010   4.516  1.00  0.00     0.163 HD
HETATM   30  O   UNL     1      42.642 -18.545   2.089  1.00  0.00    -0.268 OA
BRANCH  28  31
HETATM   31  C   UNL     1      44.427 -20.671   2.515  1.00  0.00     0.084 A 
HETATM   32  C   UNL     1      44.539 -22.153   2.740  1.00  0.00     0.027 A 
HETATM   33  C   UNL     1      43.553 -21.618   1.744  1.00  0.00     0.027 A 
ENDBRANCH  28  31
ENDBRANCH  22  27
ENDBRANCH   2  21
TORSDOF 8
ENDMDL
MODEL 8
REMARK VINA RESULT:      -8.1      2.651      4.704
REMARK  8 active torsions:
REMARK  status: ('A' for Active; 'I' for Inactive)
REMARK       I    between atoms: C_2  and  N_3 
REMARK    1  A    between atoms: N_3  and  C_4 
REMARK    2  A    between atoms: C_6  and  N_7 
REMARK    3  A    between atoms: N_7  and  C_8 
REMARK    4  A    between atoms: C_8  and  C_9 
REMARK       I    between atoms: C_9  and  N_10 
REMARK    5  A    between atoms: N_10  and  C_11 
REMARK    6  A    between atoms: C_12  and  C_13 
REMARK       I    between atoms: C_13  and  N_14 
REMARK    7  A    between atoms: N_14  and  C_15 
REMARK    8  A    between atoms: C_24  and  O_25 
ROOT
HETATM    1  C   UNL     1      42.171 -16.790   1.534  1.00  0.00     0.235 C 
HETATM    2  N   UNL     1      41.946 -18.030   2.117  1.00  0.00    -0.325 N 
HETATM    3  O   UNL     1      43.229 -16.172   1.525  1.00  0.00    -0.272 OA
HETATM    4  H   UNL     1      41.092 -18.494   1.836  1.00  0.00     0.169 HD
ENDROOT
BRANCH   1   5
HETATM    5  C   UNL     1      40.941 -16.276   0.764  1.00  0.00     0.195 C 
BRANCH   5   6
HETATM    6  N   UNL     1      39.770 -16.057   1.616  1.00  0.00    -0.282 NA
HETATM    7  H   UNL     1      38.933 -16.453   1.176  1.00  0.00     0.128 HD
BRANCH   6   8
HETATM    8  C   UNL     1      39.456 -14.772   2.090  1.00  0.00     0.044 A 
HETATM    9  C   UNL     1      40.061 -14.215   3.230  1.00  0.00     0.055 A 
HETATM   10  C   UNL     1      39.845 -12.886   3.613  1.00  0.00     0.036 A 
HETATM   11  C   UNL     1      38.963 -12.100   2.870  1.00  0.00     0.032 A 
HETATM   12  C   UNL     1      38.349 -12.624   1.735  1.00  0.00     0.041 A 
HETATM   13  C   UNL     1      38.586 -13.945   1.350  1.00  0.00     0.089 A 
BRANCH  10  14
HETATM   14  N   UNL     1      40.504 -12.273   4.702  1.00  0.00    -0.327 N 
HETATM   15  C   UNL     1      39.997 -12.065   5.974  1.00  0.00     0.218 C 
HETATM   16  C   UNL     1      41.005 -11.453   6.914  1.00  0.00     0.117 C 
HETATM   17  O   UNL     1      38.881 -12.380   6.379  1.00  0.00    -0.274 OA
HETATM   18  H   UNL     1      41.492 -12.090   4.568  1.00  0.00     0.169 HD
ENDBRANCH  10  14
BRANCH  13  19
HETATM   19  O   UNL     1      37.953 -14.333   0.194  1.00  0.00    -0.354 OA
HETATM   20  C   UNL     1      38.020 -13.350  -0.839  1.00  0.00     0.210 C 
ENDBRANCH  13  19
ENDBRANCH   6   8
ENDBRANCH   5   6
ENDBRANCH   1   5
BRANCH   2  21
HETATM   21  C   UNL     1      42.881 -18.855   2.784  1.00  0.00     0.050 A 
HETATM   22  C   UNL     1      43.407 -18.695   4.074  1.00  0.00     0.058 A 
HETATM   23  C   UNL     1      44.428 -19.563   4.521  1.00  0.00     0.019 A 
HETATM   24  C   UNL     1      44.897 -20.604   3.723  1.00  0.00     0.001 A 
HETATM   25  C   UNL     1      44.338 -20.804   2.470  1.00  0.00     0.002 A 
HETATM   26  C   UNL     1      43.337 -19.945   2.011  1.00  0.00     0.030 A 
BRANCH  22  27
HETATM   27  C   UNL     1      42.918 -17.771   5.126  1.00  0.00     0.254 C 
HETATM   28  N   UNL     1      43.870 -16.976   5.742  1.00  0.00    -0.352 N 
HETATM   29  H   UNL     1      44.853 -17.096   5.508  1.00  0.00     0.163 HD
HETATM   30  O   UNL     1      41.705 -17.640   5.287  1.00  0.00    -0.268 OA
BRANCH  28  31
HETATM   31  C   UNL     1      43.477 -15.929   6.635  1.00  0.00     0.084 A 
HETATM   32  C   UNL     1      44.412 -14.789   6.927  1.00  0.00     0.027 A 
HETATM   33  C   UNL     1      43.152 -14.546   6.150  1.00  0.00     0.027 A 
ENDBRANCH  28  31
ENDBRANCH  22  27
ENDBRANCH   2  21
TORSDOF 8
ENDMDL
MODEL 9
REMARK VINA RESULT:      -8.0      1.679      3.670
REMARK  8 active torsions:
REMARK  status: ('A' for Active; 'I' for Inactive)
REMARK       I    between atoms: C_2  and  N_3 
REMARK    1  A    between atoms: N_3  and  C_4 
REMARK    2  A    between atoms: C_6  and  N_7 
REMARK    3  A    between atoms: N_7  and  C_8 
REMARK    4  A    between atoms: C_8  and  C_9 
REMARK       I    between atoms: C_9  and  N_10 
REMARK    5  A    between atoms: N_10  and  C_11 
REMARK    6  A    between atoms: C_12  and  C_13 
REMARK       I    between atoms: C_13  and  N_14 
REMARK    7  A    between atoms: N_14  and  C_15 
REMARK    8  A    between atoms: C_24  and  O_25 
ROOT
HETATM    1  C   UNL     1      42.477 -15.139   4.058  1.00  0.00     0.235 C 
HETATM    2  N   UNL     1      42.093 -16.320   4.676  1.00  0.00    -0.325 N 
HETATM    3  O   UNL     1      43.515 -14.519   4.255  1.00  0.00    -0.272 OA
HETATM    4  H   UNL     1      41.325 -16.813   4.236  1.00  0.00     0.169 HD
ENDROOT
BRANCH   1   5
HETATM    5  C   UNL     1      41.484 -14.704   2.964  1.00  0.00     0.195 C 
BRANCH   5   6
HETATM    6  N   UNL     1      42.108 -13.941   1.881  1.00  0.00    -0.282 NA
HETATM    7  H   UNL     1      42.608 -13.130   2.262  1.00  0.00     0.128 HD
BRANCH   6   8
HETATM    8  C   UNL     1      41.355 -13.516   0.773  1.00  0.00     0.044 A 
HETATM    9  C   UNL     1      40.859 -14.408  -0.193  1.00  0.00     0.055 A 
HETATM   10  C   UNL     1      39.996 -13.994  -1.215  1.00  0.00     0.036 A 
HETATM   11  C   UNL     1      39.653 -12.645  -1.309  1.00  0.00     0.032 A 
HETATM   12  C   UNL     1      40.129 -11.736  -0.366  1.00  0.00     0.041 A 
HETATM   13  C   UNL     1      40.974 -12.163   0.661  1.00  0.00     0.089 A 
BRANCH  10  14
HETATM   14  N   UNL     1      39.412 -14.881  -2.147  1.00  0.00    -0.327 N 
HETATM   15  C   UNL     1      39.912 -15.229  -3.391  1.00  0.00     0.218 C 
HETATM   16  C   UNL     1      39.069 -16.266  -4.091  1.00  0.00     0.117 C 
HETATM   17  O   UNL     1      40.954 -14.827  -3.902  1.00  0.00    -0.274 OA
HETATM   18  H   UNL     1      38.618 -15.411  -1.809  1.00  0.00     0.169 HD
ENDBRANCH  10  14
BRANCH  13  19
HETATM   19  O   UNL     1      41.346 -11.183   1.549  1.00  0.00    -0.354 OA
HETATM   20  C   UNL     1      40.234 -10.551   2.183  1.00  0.00     0.210 C 
ENDBRANCH  13  19
ENDBRANCH   6   8
ENDBRANCH   5   6
ENDBRANCH   1   5
BRANCH   2  21
HETATM   21  C   UNL     1      42.818 -17.076   5.626  1.00  0.00     0.050 A 
HETATM   22  C   UNL     1      43.623 -18.202   5.399  1.00  0.00     0.058 A 
HETATM   23  C   UNL     1      44.172 -18.897   6.500  1.00  0.00     0.019 A 
HETATM   24  C   UNL     1      43.965 -18.464   7.808  1.00  0.00     0.001 A 
HETATM   25  C   UNL     1      43.221 -17.317   8.034  1.00  0.00     0.002 A 
HETATM   26  C   UNL     1      42.661 -16.628   6.955  1.00  0.00     0.030 A 
BRANCH  22  27
HETATM   27  C   UNL     1      44.100 -18.705   4.089  1.00  0.00     0.254 C 
HETATM   28  N   UNL     1      44.393 -20.057   4.015  1.00  0.00    -0.352 N 
HETATM   29  H   UNL     1      44.339 -20.630   4.855  1.00  0.00     0.163 HD
HETATM   30  O   UNL     1      44.062 -17.956   3.114  1.00  0.00    -0.268 OA
BRANCH  28  31
HETATM   31  C   UNL     1      44.685 -20.671   2.756  1.00  0.00     0.084 A 
HETATM   32  C   UNL     1      44.444 -22.140   2.553  1.00  0.00     0.027 A 
HETATM   33  C   UNL     1      43.603 -21.134   1.824  1.00  0.00     0.027 A 
ENDBRANCH  28  31
ENDBRANCH  22  27
ENDBRANCH   2  21
TORSDOF 8
ENDMDL
MODEL 10
REMARK VINA RESULT:      -7.9      1.788      3.951
REMARK  8 active torsions:
REMARK  status: ('A' for Active; 'I' for Inactive)
REMARK       I    between atoms: C_2  and  N_3 
REMARK    1  A    between atoms: N_3  and  C_4 
REMARK    2  A    between atoms: C_6  and  N_7 
REMARK    3  A    between atoms: N_7  and  C_8 
REMARK    4  A    between atoms: C_8  and  C_9 
REMARK       I    between atoms: C_9  and  N_10 
REMARK    5  A    between atoms: N_10  and  C_11 
REMARK    6  A    between atoms: C_12  and  C_13 
REMARK       I    between atoms: C_13  and  N_14 
REMARK    7  A    between atoms: N_14  and  C_15 
REMARK    8  A    between atoms: C_24  and  O_25 
ROOT
HETATM    1  C   UNL     1      42.636 -17.213   1.225  1.00  0.00     0.235 C 
HETATM    2  N   UNL     1      42.265 -18.365   1.904  1.00  0.00    -0.325 N 
HETATM    3  O   UNL     1      43.752 -16.706   1.209  1.00  0.00    -0.272 OA
HETATM    4  H   UNL     1      41.377 -18.767   1.628  1.00  0.00     0.169 HD
ENDROOT
BRANCH   1   5
HETATM    5  C   UNL     1      41.493 -16.652   0.360  1.00  0.00     0.195 C 
BRANCH   5   6
HETATM    6  N   UNL     1      41.938 -15.662  -0.622  1.00  0.00    -0.282 NA
HETATM    7  H   UNL     1      42.923 -15.820  -0.863  1.00  0.00     0.128 HD
BRANCH   6   8
HETATM    8  C   UNL     1      41.753 -14.288  -0.393  1.00  0.00     0.044 A 
HETATM    9  C   UNL     1      41.771 -13.725   0.894  1.00  0.00     0.055 A 
HETATM   10  C   UNL     1      41.724 -12.341   1.103  1.00  0.00     0.036 A 
HETATM   11  C   UNL     1      41.606 -11.492   0.001  1.00  0.00     0.032 A 
HETATM   12  C   UNL     1      41.587 -12.020  -1.288  1.00  0.00     0.041 A 
HETATM   13  C   UNL     1      41.654 -13.402  -1.485  1.00  0.00     0.089 A 
BRANCH  10  14
HETATM   14  N   UNL     1      41.827 -11.742   2.378  1.00  0.00    -0.327 N 
HETATM   15  C   UNL     1      40.874 -11.752   3.383  1.00  0.00     0.218 C 
HETATM   16  C   UNL     1      41.350 -11.081   4.648  1.00  0.00     0.117 C 
HETATM   17  O   UNL     1      39.769 -12.286   3.341  1.00  0.00    -0.274 OA
HETATM   18  H   UNL     1      42.744 -11.385   2.621  1.00  0.00     0.169 HD
ENDBRANCH  10  14
BRANCH  13  19
HETATM   19  O   UNL     1      41.664 -13.798  -2.801  1.00  0.00    -0.354 OA
HETATM   20  C   UNL     1      40.546 -13.309  -3.542  1.00  0.00     0.210 C 
ENDBRANCH  13  19
ENDBRANCH   6   8
ENDBRANCH   5   6
ENDBRANCH   1   5
BRANCH   2  21
HETATM   21  C   UNL     1      43.086 -19.215   2.681  1.00  0.00     0.050 A 
HETATM   22  C   UNL     1      43.470 -19.054   4.020  1.00  0.00     0.058 A 
HETATM   23  C   UNL     1      44.400 -19.953   4.589  1.00  0.00     0.019 A 
HETATM   24  C   UNL     1      44.913 -21.024   3.861  1.00  0.00     0.001 A 
HETATM   25  C   UNL     1      44.490 -21.223   2.556  1.00  0.00     0.002 A 
HETATM   26  C   UNL     1      43.581 -20.333   1.977  1.00  0.00     0.030 A 
BRANCH  22  27
HETATM   27  C   UNL     1      42.903 -18.096   5.000  1.00  0.00     0.254 C 
HETATM   28  N   UNL     1      43.812 -17.345   5.727  1.00  0.00    -0.352 N 
HETATM   29  H   UNL     1      44.810 -17.520   5.618  1.00  0.00     0.163 HD
HETATM   30  O   UNL     1      41.689 -17.901   5.008  1.00  0.00    -0.268 OA
BRANCH  28  31
HETATM   31  C   UNL     1      43.368 -16.271   6.561  1.00  0.00     0.084 A 
HETATM   32  C   UNL     1      44.310 -15.162   6.939  1.00  0.00     0.027 A 
HETATM   33  C   UNL     1      43.150 -14.884   6.028  1.00  0.00     0.027 A 
ENDBRANCH  28  31
ENDBRANCH  22  27
ENDBRANCH   2  21
TORSDOF 8
ENDMDL
