MODEL 1
REMARK VINA RESULT:      -9.3      0.000      0.000
REMARK  3 active torsions:
REMARK  status: ('A' for Active; 'I' for Inactive)
REMARK    1  A    between atoms: C_8  and  C_9 
REMARK       I    between atoms: C_9  and  N_10 
REMARK    2  A    between atoms: N_10  and  N_11 
REMARK    3  A    between atoms: N_11  and  C_12 
ROOT
HETATM    1  C   UNL     1      44.627 -12.294   9.308  1.00  0.00     0.276 C 
HETATM    2  N   UNL     1      44.037 -12.967   8.265  1.00  0.00    -0.264 N 
HETATM    3  O   UNL     1      45.771 -12.559   9.684  1.00  0.00    -0.266 OA
HETATM    4  H   UNL     1      43.079 -12.814   7.932  1.00  0.00     0.190 HD
ENDROOT
BRANCH   2   5
HETATM    5  N   UNL     1      44.789 -13.961   7.630  1.00  0.00    -0.275 N 
HETATM    6  H   UNL     1      45.562 -14.311   8.201  1.00  0.00     0.189 HD
BRANCH   5   7
HETATM    7  C   UNL     1      44.246 -14.781   6.700  1.00  0.00     0.187 A 
HETATM    8  S   UNL     1      43.409 -14.119   5.353  1.00  0.00    -0.048 SA
HETATM    9  C   UNL     1      43.076 -15.701   4.769  1.00  0.00     0.043 A 
HETATM   10  C   UNL     1      43.631 -16.636   5.647  1.00  0.00     0.115 A 
HETATM   11  C   UNL     1      42.369 -16.086   3.617  1.00  0.00     0.063 A 
HETATM   12  N   UNL     1      44.300 -16.092   6.734  1.00  0.00    -0.219 NA
HETATM   13  C   UNL     1      43.460 -18.006   5.346  1.00  0.00     0.149 A 
HETATM   14  C   UNL     1      42.760 -18.409   4.210  1.00  0.00     0.087 A 
HETATM   15  F   UNL     1      43.970 -18.948   6.153  1.00  0.00    -0.203 F 
HETATM   16  C   UNL     1      42.229 -17.449   3.365  1.00  0.00     0.120 A 
HETATM   17  F   UNL     1      41.558 -17.841   2.274  1.00  0.00    -0.206 F 
ENDBRANCH   5   7
ENDBRANCH   2   5
BRANCH   1  18
HETATM   18  C   UNL     1      43.810 -11.227   9.960  1.00  0.00     0.110 A 
HETATM   19  C   UNL     1      42.798 -10.433   9.230  1.00  0.00     0.304 A 
HETATM   20  O   UNL     1      42.102  -9.465   9.948  1.00  0.00    -0.274 OA
HETATM   21  O   UNL     1      42.572 -10.612   8.036  1.00  0.00    -0.259 OA
HETATM   22  C   UNL     1      42.355  -9.236  11.312  1.00  0.00     0.089 A 
HETATM   23  C   UNL     1      43.311  -9.983  11.989  1.00  0.00    -0.001 A 
HETATM   24  C   UNL     1      41.618  -8.240  11.948  1.00  0.00     0.038 A 
HETATM   25  C   UNL     1      43.537  -9.724  13.343  1.00  0.00     0.014 A 
HETATM   26  C   UNL     1      44.043 -11.006  11.265  1.00  0.00     0.037 A 
HETATM   27  C   UNL     1      42.806  -8.726  13.995  1.00  0.00     0.001 A 
HETATM   28  C   UNL     1      41.848  -7.985  13.298  1.00  0.00     0.003 A 
ENDBRANCH   1  18
TORSDOF 3
ENDMDL
MODEL 2
REMARK VINA RESULT:      -9.1      8.497     11.013
REMARK  3 active torsions:
REMARK  status: ('A' for Active; 'I' for Inactive)
REMARK    1  A    between atoms: C_8  and  C_9 
REMARK       I    between atoms: C_9  and  N_10 
REMARK    2  A    between atoms: N_10  and  N_11 
REMARK    3  A    between atoms: N_11  and  C_12 
ROOT
HETATM    1  C   UNL     1      41.290 -16.697   1.235  1.00  0.00     0.276 C 
HETATM    2  N   UNL     1      41.711 -16.540  -0.063  1.00  0.00    -0.264 N 
HETATM    3  O   UNL     1      40.226 -16.218   1.633  1.00  0.00    -0.266 OA
HETATM    4  H   UNL     1      42.600 -16.884  -0.440  1.00  0.00     0.190 HD
ENDROOT
BRANCH   2   5
HETATM    5  N   UNL     1      40.878 -15.825  -0.930  1.00  0.00    -0.275 N 
HETATM    6  H   UNL     1      39.882 -15.999  -0.770  1.00  0.00     0.189 HD
BRANCH   5   7
HETATM    7  C   UNL     1      41.251 -14.638  -1.461  1.00  0.00     0.187 A 
HETATM    8  S   UNL     1      41.155 -14.388  -3.159  1.00  0.00    -0.048 SA
HETATM    9  C   UNL     1      41.776 -12.795  -2.970  1.00  0.00     0.043 A 
HETATM   10  C   UNL     1      42.015 -12.559  -1.614  1.00  0.00     0.115 A 
HETATM   11  C   UNL     1      42.035 -11.826  -3.954  1.00  0.00     0.063 A 
HETATM   12  N   UNL     1      41.702 -13.616  -0.771  1.00  0.00    -0.219 NA
HETATM   13  C   UNL     1      42.538 -11.299  -1.245  1.00  0.00     0.149 A 
HETATM   14  C   UNL     1      42.805 -10.325  -2.207  1.00  0.00     0.087 A 
HETATM   15  F   UNL     1      42.790 -11.017   0.041  1.00  0.00    -0.203 F 
HETATM   16  C   UNL     1      42.550 -10.600  -3.539  1.00  0.00     0.120 A 
HETATM   17  F   UNL     1      42.807  -9.661  -4.459  1.00  0.00    -0.206 F 
ENDBRANCH   5   7
ENDBRANCH   2   5
BRANCH   1  18
HETATM   18  C   UNL     1      42.189 -17.477   2.137  1.00  0.00     0.110 A 
HETATM   19  C   UNL     1      42.712 -16.938   3.411  1.00  0.00     0.304 A 
HETATM   20  O   UNL     1      43.542 -17.763   4.165  1.00  0.00    -0.274 OA
HETATM   21  O   UNL     1      42.431 -15.807   3.799  1.00  0.00    -0.259 OA
HETATM   22  C   UNL     1      43.885 -19.055   3.732  1.00  0.00     0.089 A 
HETATM   23  C   UNL     1      43.394 -19.554   2.531  1.00  0.00    -0.001 A 
HETATM   24  C   UNL     1      44.730 -19.807   4.545  1.00  0.00     0.038 A 
HETATM   25  C   UNL     1      43.760 -20.841   2.132  1.00  0.00     0.014 A 
HETATM   26  C   UNL     1      42.517 -18.716   1.732  1.00  0.00     0.037 A 
HETATM   27  C   UNL     1      44.610 -21.607   2.937  1.00  0.00     0.001 A 
HETATM   28  C   UNL     1      45.093 -21.090   4.141  1.00  0.00     0.003 A 
ENDBRANCH   1  18
TORSDOF 3
ENDMDL
MODEL 3
REMARK VINA RESULT:      -9.0      7.991     10.686
REMARK  3 active torsions:
REMARK  status: ('A' for Active; 'I' for Inactive)
REMARK    1  A    between atoms: C_8  and  C_9 
REMARK       I    between atoms: C_9  and  N_10 
REMARK    2  A    between atoms: N_10  and  N_11 
REMARK    3  A    between atoms: N_11  and  C_12 
ROOT
HETATM    1  C   UNL     1      41.686 -16.132   2.606  1.00  0.00     0.276 C 
HETATM    2  N   UNL     1      42.367 -14.948   2.449  1.00  0.00    -0.264 N 
HETATM    3  O   UNL     1      40.474 -16.213   2.395  1.00  0.00    -0.266 OA
HETATM    4  H   UNL     1      43.365 -14.812   2.643  1.00  0.00     0.190 HD
ENDROOT
BRANCH   2   5
HETATM    5  N   UNL     1      41.636 -13.834   2.023  1.00  0.00    -0.275 N 
HETATM    6  H   UNL     1      41.321 -13.239   2.794  1.00  0.00     0.189 HD
BRANCH   5   7
HETATM    7  C   UNL     1      41.834 -13.273   0.809  1.00  0.00     0.187 A 
HETATM    8  S   UNL     1      41.316 -14.091  -0.611  1.00  0.00    -0.048 SA
HETATM    9  C   UNL     1      41.920 -12.808  -1.584  1.00  0.00     0.043 A 
HETATM   10  C   UNL     1      42.479 -11.833  -0.754  1.00  0.00     0.115 A 
HETATM   11  C   UNL     1      41.901 -12.676  -2.983  1.00  0.00     0.063 A 
HETATM   12  N   UNL     1      42.412 -12.112   0.604  1.00  0.00    -0.219 NA
HETATM   13  C   UNL     1      43.041 -10.689  -1.365  1.00  0.00     0.149 A 
HETATM   14  C   UNL     1      43.036 -10.542  -2.751  1.00  0.00     0.087 A 
HETATM   15  F   UNL     1      43.594  -9.723  -0.618  1.00  0.00    -0.203 F 
HETATM   16  C   UNL     1      42.469 -11.531  -3.536  1.00  0.00     0.120 A 
HETATM   17  F   UNL     1      42.465 -11.384  -4.867  1.00  0.00    -0.206 F 
ENDBRANCH   5   7
ENDBRANCH   2   5
BRANCH   1  18
HETATM   18  C   UNL     1      42.491 -17.310   3.046  1.00  0.00     0.110 A 
HETATM   19  C   UNL     1      43.277 -17.323   4.299  1.00  0.00     0.304 A 
HETATM   20  O   UNL     1      43.987 -18.482   4.599  1.00  0.00    -0.274 OA
HETATM   21  O   UNL     1      43.309 -16.354   5.052  1.00  0.00    -0.259 OA
HETATM   22  C   UNL     1      43.973 -19.597   3.743  1.00  0.00     0.089 A 
HETATM   23  C   UNL     1      43.236 -19.576   2.565  1.00  0.00    -0.001 A 
HETATM   24  C   UNL     1      44.721 -20.710   4.118  1.00  0.00     0.038 A 
HETATM   25  C   UNL     1      43.249 -20.701   1.738  1.00  0.00     0.014 A 
HETATM   26  C   UNL     1      42.478 -18.382   2.234  1.00  0.00     0.037 A 
HETATM   27  C   UNL     1      43.998 -21.826   2.100  1.00  0.00     0.001 A 
HETATM   28  C   UNL     1      44.732 -21.830   3.288  1.00  0.00     0.003 A 
ENDBRANCH   1  18
TORSDOF 3
ENDMDL
MODEL 4
REMARK VINA RESULT:      -9.0      7.915     10.544
REMARK  3 active torsions:
REMARK  status: ('A' for Active; 'I' for Inactive)
REMARK    1  A    between atoms: C_8  and  C_9 
REMARK       I    between atoms: C_9  and  N_10 
REMARK    2  A    between atoms: N_10  and  N_11 
REMARK    3  A    between atoms: N_11  and  C_12 
ROOT
HETATM    1  C   UNL     1      42.944 -16.242   2.910  1.00  0.00     0.276 C 
HETATM    2  N   UNL     1      41.605 -16.136   2.618  1.00  0.00    -0.264 N 
HETATM    3  O   UNL     1      43.705 -15.276   2.812  1.00  0.00    -0.266 OA
HETATM    4  H   UNL     1      40.934 -16.911   2.647  1.00  0.00     0.190 HD
ENDROOT
BRANCH   2   5
HETATM    5  N   UNL     1      41.128 -14.884   2.219  1.00  0.00    -0.275 N 
HETATM    6  H   UNL     1      41.614 -14.103   2.668  1.00  0.00     0.189 HD
BRANCH   5   7
HETATM    7  C   UNL     1      40.573 -14.688   1.001  1.00  0.00     0.187 A 
HETATM    8  S   UNL     1      39.110 -13.796   0.856  1.00  0.00    -0.048 SA
HETATM    9  C   UNL     1      39.122 -14.034  -0.847  1.00  0.00     0.043 A 
HETATM   10  C   UNL     1      40.250 -14.781  -1.194  1.00  0.00     0.115 A 
HETATM   11  C   UNL     1      38.195 -13.591  -1.806  1.00  0.00     0.063 A 
HETATM   12  N   UNL     1      41.068 -15.136  -0.130  1.00  0.00    -0.219 NA
HETATM   13  C   UNL     1      40.441 -15.093  -2.559  1.00  0.00     0.149 A 
HETATM   14  C   UNL     1      39.532 -14.666  -3.526  1.00  0.00     0.087 A 
HETATM   15  F   UNL     1      41.505 -15.809  -2.950  1.00  0.00    -0.203 F 
HETATM   16  C   UNL     1      38.429 -13.925  -3.139  1.00  0.00     0.120 A 
HETATM   17  F   UNL     1      37.559 -13.516  -4.071  1.00  0.00    -0.206 F 
ENDBRANCH   5   7
ENDBRANCH   2   5
BRANCH   1  18
HETATM   18  C   UNL     1      43.427 -17.585   3.349  1.00  0.00     0.110 A 
HETATM   19  C   UNL     1      43.918 -17.851   4.719  1.00  0.00     0.304 A 
HETATM   20  O   UNL     1      44.343 -19.145   5.008  1.00  0.00    -0.274 OA
HETATM   21  O   UNL     1      43.953 -16.973   5.576  1.00  0.00    -0.259 OA
HETATM   22  C   UNL     1      44.321 -20.161   4.036  1.00  0.00     0.089 A 
HETATM   23  C   UNL     1      43.863 -19.901   2.750  1.00  0.00    -0.001 A 
HETATM   24  C   UNL     1      44.775 -21.424   4.410  1.00  0.00     0.038 A 
HETATM   25  C   UNL     1      43.861 -20.935   1.811  1.00  0.00     0.014 A 
HETATM   26  C   UNL     1      43.405 -18.562   2.427  1.00  0.00     0.037 A 
HETATM   27  C   UNL     1      44.315 -22.208   2.171  1.00  0.00     0.001 A 
HETATM   28  C   UNL     1      44.771 -22.451   3.469  1.00  0.00     0.003 A 
ENDBRANCH   1  18
TORSDOF 3
ENDMDL
MODEL 5
REMARK VINA RESULT:      -8.9      4.040      9.730
REMARK  3 active torsions:
REMARK  status: ('A' for Active; 'I' for Inactive)
REMARK    1  A    between atoms: C_8  and  C_9 
REMARK       I    between atoms: C_9  and  N_10 
REMARK    2  A    between atoms: N_10  and  N_11 
REMARK    3  A    between atoms: N_11  and  C_12 
ROOT
HETATM    1  C   UNL     1      42.816 -14.752   6.121  1.00  0.00     0.276 C 
HETATM    2  N   UNL     1      43.609 -13.895   6.846  1.00  0.00    -0.264 N 
HETATM    3  O   UNL     1      41.759 -14.377   5.609  1.00  0.00    -0.266 OA
HETATM    4  H   UNL     1      44.479 -14.159   7.322  1.00  0.00     0.190 HD
ENDROOT
BRANCH   2   5
HETATM    5  N   UNL     1      43.182 -12.569   6.972  1.00  0.00    -0.275 N 
HETATM    6  H   UNL     1      42.453 -12.314   6.300  1.00  0.00     0.189 HD
BRANCH   5   7
HETATM    7  C   UNL     1      43.235 -11.913   8.153  1.00  0.00     0.187 A 
HETATM    8  S   UNL     1      44.418 -12.343   9.323  1.00  0.00    -0.048 SA
HETATM    9  C   UNL     1      43.809 -11.145  10.395  1.00  0.00     0.043 A 
HETATM   10  C   UNL     1      42.736 -10.490   9.784  1.00  0.00     0.115 A 
HETATM   11  C   UNL     1      44.248 -10.811  11.688  1.00  0.00     0.063 A 
HETATM   12  N   UNL     1      42.432 -10.936   8.505  1.00  0.00    -0.219 NA
HETATM   13  C   UNL     1      42.087  -9.467  10.510  1.00  0.00     0.149 A 
HETATM   14  C   UNL     1      42.505  -9.123  11.794  1.00  0.00     0.087 A 
HETATM   15  F   UNL     1      41.050  -8.806   9.974  1.00  0.00    -0.203 F 
HETATM   16  C   UNL     1      43.574  -9.794  12.362  1.00  0.00     0.120 A 
HETATM   17  F   UNL     1      43.973  -9.460  13.595  1.00  0.00    -0.206 F 
ENDBRANCH   5   7
ENDBRANCH   2   5
BRANCH   1  18
HETATM   18  C   UNL     1      43.302 -16.158   5.987  1.00  0.00     0.110 A 
HETATM   19  C   UNL     1      43.743 -16.968   7.143  1.00  0.00     0.304 A 
HETATM   20  O   UNL     1      44.176 -18.266   6.888  1.00  0.00    -0.274 OA
HETATM   21  O   UNL     1      43.733 -16.522   8.287  1.00  0.00    -0.259 OA
HETATM   22  C   UNL     1      44.206 -18.790   5.584  1.00  0.00     0.089 A 
HETATM   23  C   UNL     1      43.794 -18.021   4.503  1.00  0.00    -0.001 A 
HETATM   24  C   UNL     1      44.664 -20.095   5.422  1.00  0.00     0.038 A 
HETATM   25  C   UNL     1      43.843 -18.575   3.222  1.00  0.00     0.014 A 
HETATM   26  C   UNL     1      43.329 -16.667   4.743  1.00  0.00     0.037 A 
HETATM   27  C   UNL     1      44.302 -19.884   3.043  1.00  0.00     0.001 A 
HETATM   28  C   UNL     1      44.711 -20.642   4.142  1.00  0.00     0.003 A 
ENDBRANCH   1  18
TORSDOF 3
ENDMDL
MODEL 6
REMARK VINA RESULT:      -8.8      7.839     10.534
REMARK  3 active torsions:
REMARK  status: ('A' for Active; 'I' for Inactive)
REMARK    1  A    between atoms: C_8  and  C_9 
REMARK       I    between atoms: C_9  and  N_10 
REMARK    2  A    between atoms: N_10  and  N_11 
REMARK    3  A    between atoms: N_11  and  C_12 
ROOT
HETATM    1  C   UNL     1      40.672 -15.293  -0.027  1.00  0.00     0.276 C 
HETATM    2  N   UNL     1      41.156 -16.578  -0.065  1.00  0.00    -0.264 N 
HETATM    3  O   UNL     1      39.949 -14.901   0.892  1.00  0.00    -0.266 OA
HETATM    4  H   UNL     1      41.731 -16.970  -0.819  1.00  0.00     0.190 HD
ENDROOT
BRANCH   2   5
HETATM    5  N   UNL     1      40.811 -17.430   0.990  1.00  0.00    -0.275 N 
HETATM    6  H   UNL     1      40.091 -18.113   0.739  1.00  0.00     0.189 HD
BRANCH   5   7
HETATM    7  C   UNL     1      41.689 -17.743   1.970  1.00  0.00     0.187 A 
HETATM    8  S   UNL     1      41.802 -16.754   3.371  1.00  0.00    -0.048 SA
HETATM    9  C   UNL     1      43.039 -17.769   4.000  1.00  0.00     0.043 A 
HETATM   10  C   UNL     1      43.284 -18.803   3.093  1.00  0.00     0.115 A 
HETATM   11  C   UNL     1      43.744 -17.654   5.211  1.00  0.00     0.063 A 
HETATM   12  N   UNL     1      42.500 -18.776   1.949  1.00  0.00    -0.219 NA
HETATM   13  C   UNL     1      44.281 -19.749   3.424  1.00  0.00     0.149 A 
HETATM   14  C   UNL     1      44.994 -19.651   4.618  1.00  0.00     0.087 A 
HETATM   15  F   UNL     1      44.560 -20.761   2.591  1.00  0.00    -0.203 F 
HETATM   16  C   UNL     1      44.717 -18.612   5.490  1.00  0.00     0.120 A 
HETATM   17  F   UNL     1      45.403 -18.523   6.636  1.00  0.00    -0.206 F 
ENDBRANCH   5   7
ENDBRANCH   2   5
BRANCH   1  18
HETATM   18  C   UNL     1      41.067 -14.398  -1.156  1.00  0.00     0.110 A 
HETATM   19  C   UNL     1      40.969 -14.805  -2.574  1.00  0.00     0.304 A 
HETATM   20  O   UNL     1      41.369 -13.881  -3.536  1.00  0.00    -0.274 OA
HETATM   21  O   UNL     1      40.552 -15.912  -2.903  1.00  0.00    -0.259 OA
HETATM   22  C   UNL     1      41.861 -12.613  -3.179  1.00  0.00     0.089 A 
HETATM   23  C   UNL     1      41.954 -12.240  -1.844  1.00  0.00    -0.001 A 
HETATM   24  C   UNL     1      42.248 -11.758  -4.207  1.00  0.00     0.038 A 
HETATM   25  C   UNL     1      42.451 -10.974  -1.529  1.00  0.00     0.014 A 
HETATM   26  C   UNL     1      41.533 -13.182  -0.822  1.00  0.00     0.037 A 
HETATM   27  C   UNL     1      42.846 -10.104  -2.550  1.00  0.00     0.001 A 
HETATM   28  C   UNL     1      42.744 -10.495  -3.887  1.00  0.00     0.003 A 
ENDBRANCH   1  18
TORSDOF 3
ENDMDL
MODEL 7
REMARK VINA RESULT:      -8.8      4.119     10.113
REMARK  3 active torsions:
REMARK  status: ('A' for Active; 'I' for Inactive)
REMARK    1  A    between atoms: C_8  and  C_9 
REMARK       I    between atoms: C_9  and  N_10 
REMARK    2  A    between atoms: N_10  and  N_11 
REMARK    3  A    between atoms: N_11  and  C_12 
ROOT
HETATM    1  C   UNL     1      42.902 -16.520   5.342  1.00  0.00     0.276 C 
HETATM    2  N   UNL     1      43.522 -15.391   4.864  1.00  0.00    -0.264 N 
HETATM    3  O   UNL     1      41.918 -16.453   6.082  1.00  0.00    -0.266 OA
HETATM    4  H   UNL     1      44.362 -15.384   4.275  1.00  0.00     0.190 HD
ENDROOT
BRANCH   2   5
HETATM    5  N   UNL     1      42.988 -14.153   5.238  1.00  0.00    -0.275 N 
HETATM    6  H   UNL     1      42.013 -14.031   4.952  1.00  0.00     0.189 HD
BRANCH   5   7
HETATM    7  C   UNL     1      43.435 -13.482   6.323  1.00  0.00     0.187 A 
HETATM    8  S   UNL     1      44.948 -13.894   7.026  1.00  0.00    -0.048 SA
HETATM    9  C   UNL     1      44.731 -12.685   8.229  1.00  0.00     0.043 A 
HETATM   10  C   UNL     1      43.511 -12.041   8.011  1.00  0.00     0.115 A 
HETATM   11  C   UNL     1      45.582 -12.334   9.292  1.00  0.00     0.063 A 
HETATM   12  N   UNL     1      42.792 -12.503   6.917  1.00  0.00    -0.219 NA
HETATM   13  C   UNL     1      43.139 -11.011   8.904  1.00  0.00     0.149 A 
HETATM   14  C   UNL     1      43.967 -10.650   9.966  1.00  0.00     0.087 A 
HETATM   15  F   UNL     1      41.978 -10.360   8.746  1.00  0.00    -0.203 F 
HETATM   16  C   UNL     1      45.170 -11.312  10.144  1.00  0.00     0.120 A 
HETATM   17  F   UNL     1      45.962 -10.961  11.165  1.00  0.00    -0.206 F 
ENDBRANCH   5   7
ENDBRANCH   2   5
BRANCH   1  18
HETATM   18  C   UNL     1      43.480 -17.829   4.916  1.00  0.00     0.110 A 
HETATM   19  C   UNL     1      44.491 -18.557   5.714  1.00  0.00     0.304 A 
HETATM   20  O   UNL     1      44.955 -19.769   5.211  1.00  0.00    -0.274 OA
HETATM   21  O   UNL     1      44.912 -18.118   6.781  1.00  0.00    -0.259 OA
HETATM   22  C   UNL     1      44.495 -20.282   3.985  1.00  0.00     0.089 A 
HETATM   23  C   UNL     1      43.549 -19.590   3.239  1.00  0.00    -0.001 A 
HETATM   24  C   UNL     1      45.022 -21.496   3.554  1.00  0.00     0.038 A 
HETATM   25  C   UNL     1      43.119 -20.130   2.025  1.00  0.00     0.014 A 
HETATM   26  C   UNL     1      43.041 -18.328   3.748  1.00  0.00     0.037 A 
HETATM   27  C   UNL     1      43.640 -21.348   1.577  1.00  0.00     0.001 A 
HETATM   28  C   UNL     1      44.590 -22.030   2.341  1.00  0.00     0.003 A 
ENDBRANCH   1  18
TORSDOF 3
ENDMDL
MODEL 8
REMARK VINA RESULT:      -8.7      8.032     10.818
REMARK  3 active torsions:
REMARK  status: ('A' for Active; 'I' for Inactive)
REMARK    1  A    between atoms: C_8  and  C_9 
REMARK       I    between atoms: C_9  and  N_10 
REMARK    2  A    between atoms: N_10  and  N_11 
REMARK    3  A    between atoms: N_11  and  C_12 
ROOT
HETATM    1  C   UNL     1      41.438 -16.412   2.309  1.00  0.00     0.276 C 
HETATM    2  N   UNL     1      41.990 -15.167   2.124  1.00  0.00    -0.264 N 
HETATM    3  O   UNL     1      40.249 -16.633   2.070  1.00  0.00    -0.266 OA
HETATM    4  H   UNL     1      42.961 -14.916   2.338  1.00  0.00     0.190 HD
ENDROOT
BRANCH   2   5
HETATM    5  N   UNL     1      41.155 -14.155   1.639  1.00  0.00    -0.275 N 
HETATM    6  H   UNL     1      40.599 -13.704   2.370  1.00  0.00     0.189 HD
BRANCH   5   7
HETATM    7  C   UNL     1      41.464 -13.447   0.528  1.00  0.00     0.187 A 
HETATM    8  S   UNL     1      41.869 -11.781   0.656  1.00  0.00    -0.048 SA
HETATM    9  C   UNL     1      42.073 -11.690  -1.049  1.00  0.00     0.043 A 
HETATM   10  C   UNL     1      41.819 -12.946  -1.605  1.00  0.00     0.115 A 
HETATM   11  C   UNL     1      42.431 -10.582  -1.837  1.00  0.00     0.063 A 
HETATM   12  N   UNL     1      41.483 -13.934  -0.690  1.00  0.00    -0.219 NA
HETATM   13  C   UNL     1      41.927 -13.081  -3.008  1.00  0.00     0.149 A 
HETATM   14  C   UNL     1      42.277 -11.994  -3.807  1.00  0.00     0.087 A 
HETATM   15  F   UNL     1      41.693 -14.262  -3.597  1.00  0.00    -0.203 F 
HETATM   16  C   UNL     1      42.524 -10.767  -3.215  1.00  0.00     0.120 A 
HETATM   17  F   UNL     1      42.861  -9.726  -3.987  1.00  0.00    -0.206 F 
ENDBRANCH   5   7
ENDBRANCH   2   5
BRANCH   1  18
HETATM   18  C   UNL     1      42.353 -17.479   2.812  1.00  0.00     0.110 A 
HETATM   19  C   UNL     1      43.175 -17.322   4.032  1.00  0.00     0.304 A 
HETATM   20  O   UNL     1      43.990 -18.389   4.398  1.00  0.00    -0.274 OA
HETATM   21  O   UNL     1      43.147 -16.294   4.702  1.00  0.00    -0.259 OA
HETATM   22  C   UNL     1      44.045 -19.569   3.637  1.00  0.00     0.089 A 
HETATM   23  C   UNL     1      43.273 -19.708   2.489  1.00  0.00    -0.001 A 
HETATM   24  C   UNL     1      44.896 -20.581   4.073  1.00  0.00     0.038 A 
HETATM   25  C   UNL     1      43.357 -20.894   1.757  1.00  0.00     0.014 A 
HETATM   26  C   UNL     1      42.406 -18.613   2.091  1.00  0.00     0.037 A 
HETATM   27  C   UNL     1      44.209 -21.918   2.181  1.00  0.00     0.001 A 
HETATM   28  C   UNL     1      44.977 -21.762   3.337  1.00  0.00     0.003 A 
ENDBRANCH   1  18
TORSDOF 3
ENDMDL
MODEL 9
REMARK VINA RESULT:      -8.7      7.648      9.874
REMARK  3 active torsions:
REMARK  status: ('A' for Active; 'I' for Inactive)
REMARK    1  A    between atoms: C_8  and  C_9 
REMARK       I    between atoms: C_9  and  N_10 
REMARK    2  A    between atoms: N_10  and  N_11 
REMARK    3  A    between atoms: N_11  and  C_12 
ROOT
HETATM    1  C   UNL     1      41.081 -17.174   1.878  1.00  0.00     0.276 C 
HETATM    2  N   UNL     1      41.699 -16.905   0.680  1.00  0.00    -0.264 N 
HETATM    3  O   UNL     1      39.873 -16.987   2.037  1.00  0.00    -0.266 OA
HETATM    4  H   UNL     1      42.704 -17.007   0.500  1.00  0.00     0.190 HD
ENDROOT
BRANCH   2   5
HETATM    5  N   UNL     1      40.904 -16.422  -0.364  1.00  0.00    -0.275 N 
HETATM    6  H   UNL     1      39.919 -16.687  -0.278  1.00  0.00     0.189 HD
BRANCH   5   7
HETATM    7  C   UNL     1      41.214 -15.287  -1.031  1.00  0.00     0.187 A 
HETATM    8  S   UNL     1      40.945 -15.185  -2.725  1.00  0.00    -0.048 SA
HETATM    9  C   UNL     1      41.572 -13.584  -2.739  1.00  0.00     0.043 A 
HETATM   10  C   UNL     1      41.946 -13.231  -1.439  1.00  0.00     0.115 A 
HETATM   11  C   UNL     1      41.724 -12.704  -3.824  1.00  0.00     0.063 A 
HETATM   12  N   UNL     1      41.726 -14.211  -0.481  1.00  0.00    -0.219 NA
HETATM   13  C   UNL     1      42.496 -11.945  -1.237  1.00  0.00     0.149 A 
HETATM   14  C   UNL     1      42.658 -11.059  -2.301  1.00  0.00     0.087 A 
HETATM   15  F   UNL     1      42.875 -11.553  -0.012  1.00  0.00    -0.203 F 
HETATM   16  C   UNL     1      42.271 -11.448  -3.572  1.00  0.00     0.120 A 
HETATM   17  F   UNL     1      42.428 -10.593  -4.591  1.00  0.00    -0.206 F 
ENDBRANCH   5   7
ENDBRANCH   2   5
BRANCH   1  18
HETATM   18  C   UNL     1      41.948 -17.704   2.972  1.00  0.00     0.110 A 
HETATM   19  C   UNL     1      43.012 -18.705   2.739  1.00  0.00     0.304 A 
HETATM   20  O   UNL     1      43.753 -19.122   3.841  1.00  0.00    -0.274 OA
HETATM   21  O   UNL     1      43.241 -19.158   1.621  1.00  0.00    -0.259 OA
HETATM   22  C   UNL     1      43.498 -18.625   5.131  1.00  0.00     0.089 A 
HETATM   23  C   UNL     1      42.493 -17.688   5.342  1.00  0.00    -0.001 A 
HETATM   24  C   UNL     1      44.282 -19.106   6.176  1.00  0.00     0.038 A 
HETATM   25  C   UNL     1      42.267 -17.220   6.639  1.00  0.00     0.014 A 
HETATM   26  C   UNL     1      41.713 -17.229   4.207  1.00  0.00     0.037 A 
HETATM   27  C   UNL     1      43.045 -17.695   7.699  1.00  0.00     0.001 A 
HETATM   28  C   UNL     1      44.051 -18.636   7.468  1.00  0.00     0.003 A 
ENDBRANCH   1  18
TORSDOF 3
ENDMDL
MODEL 10
REMARK VINA RESULT:      -8.6      7.897      9.992
REMARK  3 active torsions:
REMARK  status: ('A' for Active; 'I' for Inactive)
REMARK    1  A    between atoms: C_8  and  C_9 
REMARK       I    between atoms: C_9  and  N_10 
REMARK    2  A    between atoms: N_10  and  N_11 
REMARK    3  A    between atoms: N_11  and  C_12 
ROOT
HETATM    1  C   UNL     1      41.205 -14.946   0.200  1.00  0.00     0.276 C 
HETATM    2  N   UNL     1      42.069 -16.013   0.123  1.00  0.00    -0.264 N 
HETATM    3  O   UNL     1      40.083 -15.058   0.699  1.00  0.00    -0.266 OA
HETATM    4  H   UNL     1      42.998 -15.988  -0.310  1.00  0.00     0.190 HD
ENDROOT
BRANCH   2   5
HETATM    5  N   UNL     1      41.634 -17.235   0.646  1.00  0.00    -0.275 N 
HETATM    6  H   UNL     1      41.237 -17.859  -0.062  1.00  0.00     0.189 HD
BRANCH   5   7
HETATM    7  C   UNL     1      42.196 -17.779   1.749  1.00  0.00     0.187 A 
HETATM    8  S   UNL     1      41.748 -17.214   3.310  1.00  0.00    -0.048 SA
HETATM    9  C   UNL     1      42.842 -18.323   4.037  1.00  0.00     0.043 A 
HETATM   10  C   UNL     1      43.479 -19.058   3.033  1.00  0.00     0.115 A 
HETATM   11  C   UNL     1      43.119 -18.526   5.400  1.00  0.00     0.063 A 
HETATM   12  N   UNL     1      43.091 -18.739   1.739  1.00  0.00    -0.219 NA
HETATM   13  C   UNL     1      44.431 -20.026   3.426  1.00  0.00     0.149 A 
HETATM   14  C   UNL     1      44.721 -20.240   4.773  1.00  0.00     0.087 A 
HETATM   15  F   UNL     1      45.075 -20.758   2.506  1.00  0.00    -0.203 F 
HETATM   16  C   UNL     1      44.064 -19.493   5.735  1.00  0.00     0.120 A 
HETATM   17  F   UNL     1      44.346 -19.703   7.027  1.00  0.00    -0.206 F 
ENDBRANCH   5   7
ENDBRANCH   2   5
BRANCH   1  18
HETATM   18  C   UNL     1      41.698 -13.648  -0.349  1.00  0.00     0.110 A 
HETATM   19  C   UNL     1      42.322 -12.606   0.494  1.00  0.00     0.304 A 
HETATM   20  O   UNL     1      42.741 -11.436  -0.136  1.00  0.00    -0.274 OA
HETATM   21  O   UNL     1      42.471 -12.754   1.703  1.00  0.00    -0.259 OA
HETATM   22  C   UNL     1      42.568 -11.242  -1.517  1.00  0.00     0.089 A 
HETATM   23  C   UNL     1      41.976 -12.225  -2.302  1.00  0.00    -0.001 A 
HETATM   24  C   UNL     1      43.007 -10.037  -2.061  1.00  0.00     0.038 A 
HETATM   25  C   UNL     1      41.818 -11.993  -3.670  1.00  0.00     0.014 A 
HETATM   26  C   UNL     1      41.540 -13.458  -1.670  1.00  0.00     0.037 A 
HETATM   27  C   UNL     1      42.252 -10.788  -4.230  1.00  0.00     0.001 A 
HETATM   28  C   UNL     1      42.846  -9.812  -3.426  1.00  0.00     0.003 A 
ENDBRANCH   1  18
TORSDOF 3
ENDMDL
