MODEL 1
REMARK VINA RESULT:      -8.7      0.000      0.000
REMARK  3 active torsions:
REMARK  status: ('A' for Active; 'I' for Inactive)
REMARK    1  A    between atoms: C_2  and  O_3 
REMARK    2  A    between atoms: O_3  and  C_4 
REMARK    3  A    between atoms: C_8  and  N_9 
REMARK       I    between atoms: N_9  and  C_10 
REMARK       I    between atoms: C_10  and  N_11 
ROOT
HETATM    1  N   UNL     1      41.481 -14.836   1.458  1.00  0.00    -0.306 N 
HETATM    2  C   UNL     1      41.984 -15.967   0.856  1.00  0.00     0.323 C 
HETATM    3  N   UNL     1      42.973 -16.628   1.578  1.00  0.00    -0.328 N 
HETATM    4  C   UNL     1      43.533 -17.844   0.968  1.00  0.00     0.185 C 
HETATM    5  C   UNL     1      43.817 -18.835   2.043  1.00  0.00     0.035 A 
HETATM    6  C   UNL     1      43.810 -18.611   3.405  1.00  0.00    -0.020 A 
HETATM    7  C   UNL     1      43.462 -17.279   3.962  1.00  0.00     0.061 C 
HETATM    8  C   UNL     1      43.574 -16.202   2.864  1.00  0.00     0.132 C 
HETATM    9  N   UNL     1      44.117 -20.153   1.832  1.00  0.00    -0.357 N 
HETATM   10  H   UNL     1      44.170 -20.608   0.932  1.00  0.00     0.166 HD
HETATM   11  C   UNL     1      44.317 -20.786   3.041  1.00  0.00     0.043 A 
HETATM   12  C   UNL     1      44.134 -19.835   4.049  1.00  0.00    -0.001 A 
HETATM   13  C   UNL     1      44.631 -22.122   3.317  1.00  0.00     0.030 A 
HETATM   14  C   UNL     1      44.766 -22.493   4.658  1.00  0.00     0.002 A 
HETATM   15  C   UNL     1      44.593 -21.564   5.682  1.00  0.00     0.001 A 
HETATM   16  C   UNL     1      44.275 -20.233   5.392  1.00  0.00     0.014 A 
HETATM   17  O   UNL     1      41.625 -16.363  -0.251  1.00  0.00    -0.247 OA
HETATM   18  H   UNL     1      42.158 -14.282   1.954  1.00  0.00     0.171 HD
ENDROOT
BRANCH   1  19
HETATM   19  C   UNL     1      40.298 -14.161   1.077  1.00  0.00     0.075 A 
HETATM   20  C   UNL     1      39.002 -14.614   1.350  1.00  0.00     0.145 A 
HETATM   21  C   UNL     1      37.877 -13.907   0.915  1.00  0.00     0.081 A 
HETATM   22  F   UNL     1      38.784 -15.698   2.108  1.00  0.00    -0.204 F 
HETATM   23  C   UNL     1      38.034 -12.717   0.213  1.00  0.00     0.072 A 
HETATM   24  C   UNL     1      39.321 -12.218  -0.001  1.00  0.00     0.039 A 
HETATM   25  C   UNL     1      40.446 -12.932   0.425  1.00  0.00     0.035 A 
BRANCH  23  26
HETATM   26  O   UNL     1      37.026 -11.934  -0.272  1.00  0.00    -0.347 OA
BRANCH  26  27
HETATM   27  C   UNL     1      36.018 -11.483   0.642  1.00  0.00     0.120 C 
HETATM   28  C   UNL     1      34.798 -10.961  -0.117  1.00  0.00     0.040 C 
HETATM   29  C   UNL     1      36.644 -10.349   1.454  1.00  0.00     0.040 C 
ENDBRANCH  26  27
ENDBRANCH  23  26
ENDBRANCH   1  19
TORSDOF 3
ENDMDL
MODEL 2
REMARK VINA RESULT:      -8.5      7.987     10.947
REMARK  3 active torsions:
REMARK  status: ('A' for Active; 'I' for Inactive)
REMARK    1  A    between atoms: C_2  and  O_3 
REMARK    2  A    between atoms: O_3  and  C_4 
REMARK    3  A    between atoms: C_8  and  N_9 
REMARK       I    between atoms: N_9  and  C_10 
REMARK       I    between atoms: C_10  and  N_11 
ROOT
HETATM    1  N   UNL     1      43.273 -13.414   6.768  1.00  0.00    -0.306 N 
HETATM    2  C   UNL     1      44.144 -12.989   7.746  1.00  0.00     0.323 C 
HETATM    3  N   UNL     1      43.771 -11.818   8.398  1.00  0.00    -0.328 N 
HETATM    4  C   UNL     1      44.677 -11.334   9.452  1.00  0.00     0.185 C 
HETATM    5  C   UNL     1      43.864 -10.743  10.551  1.00  0.00     0.035 A 
HETATM    6  C   UNL     1      42.515 -10.449  10.523  1.00  0.00    -0.020 A 
HETATM    7  C   UNL     1      41.688 -10.747   9.325  1.00  0.00     0.061 C 
HETATM    8  C   UNL     1      42.597 -10.965   8.098  1.00  0.00     0.132 C 
HETATM    9  N   UNL     1      44.343 -10.412  11.787  1.00  0.00    -0.357 N 
HETATM   10  H   UNL     1      45.295 -10.539  12.103  1.00  0.00     0.166 HD
HETATM   11  C   UNL     1      43.325  -9.895  12.561  1.00  0.00     0.043 A 
HETATM   12  C   UNL     1      42.162  -9.903  11.785  1.00  0.00    -0.001 A 
HETATM   13  C   UNL     1      43.343  -9.436  13.884  1.00  0.00     0.030 A 
HETATM   14  C   UNL     1      42.141  -8.969  14.425  1.00  0.00     0.002 A 
HETATM   15  C   UNL     1      40.969  -8.962  13.672  1.00  0.00     0.001 A 
HETATM   16  C   UNL     1      40.965  -9.427  12.352  1.00  0.00     0.014 A 
HETATM   17  O   UNL     1      45.194 -13.568   8.016  1.00  0.00    -0.247 OA
HETATM   18  H   UNL     1      42.855 -12.679   6.223  1.00  0.00     0.171 HD
ENDROOT
BRANCH   1  19
HETATM   19  C   UNL     1      43.272 -14.696   6.169  1.00  0.00     0.075 A 
HETATM   20  C   UNL     1      43.358 -14.928   4.791  1.00  0.00     0.145 A 
HETATM   21  C   UNL     1      43.322 -16.223   4.268  1.00  0.00     0.081 A 
HETATM   22  F   UNL     1      43.560 -13.927   3.923  1.00  0.00    -0.204 F 
HETATM   23  C   UNL     1      43.219 -17.315   5.124  1.00  0.00     0.072 A 
HETATM   24  C   UNL     1      43.207 -17.099   6.503  1.00  0.00     0.039 A 
HETATM   25  C   UNL     1      43.232 -15.801   7.025  1.00  0.00     0.035 A 
BRANCH  23  26
HETATM   26  O   UNL     1      43.169 -18.627   4.747  1.00  0.00    -0.347 OA
BRANCH  26  27
HETATM   27  C   UNL     1      44.260 -19.155   3.982  1.00  0.00     0.120 C 
HETATM   28  C   UNL     1      43.771 -19.657   2.624  1.00  0.00     0.040 C 
HETATM   29  C   UNL     1      44.831 -20.321   4.789  1.00  0.00     0.040 C 
ENDBRANCH  26  27
ENDBRANCH  23  26
ENDBRANCH   1  19
TORSDOF 3
ENDMDL
MODEL 3
REMARK VINA RESULT:      -8.5      3.305      9.692
REMARK  3 active torsions:
REMARK  status: ('A' for Active; 'I' for Inactive)
REMARK    1  A    between atoms: C_2  and  O_3 
REMARK    2  A    between atoms: O_3  and  C_4 
REMARK    3  A    between atoms: C_8  and  N_9 
REMARK       I    between atoms: N_9  and  C_10 
REMARK       I    between atoms: C_10  and  N_11 
ROOT
HETATM    1  N   UNL     1      41.989 -16.315  -0.276  1.00  0.00    -0.306 N 
HETATM    2  C   UNL     1      41.498 -15.029  -0.291  1.00  0.00     0.323 C 
HETATM    3  N   UNL     1      40.900 -14.642  -1.486  1.00  0.00    -0.328 N 
HETATM    4  C   UNL     1      40.361 -13.273  -1.539  1.00  0.00     0.185 C 
HETATM    5  C   UNL     1      39.110 -13.281  -2.349  1.00  0.00     0.035 A 
HETATM    6  C   UNL     1      38.636 -14.309  -3.138  1.00  0.00    -0.020 A 
HETATM    7  C   UNL     1      39.359 -15.603  -3.232  1.00  0.00     0.061 C 
HETATM    8  C   UNL     1      40.810 -15.432  -2.736  1.00  0.00     0.132 C 
HETATM    9  N   UNL     1      38.217 -12.248  -2.416  1.00  0.00    -0.357 N 
HETATM   10  H   UNL     1      38.292 -11.371  -1.921  1.00  0.00     0.166 HD
HETATM   11  C   UNL     1      37.171 -12.588  -3.250  1.00  0.00     0.043 A 
HETATM   12  C   UNL     1      37.414 -13.881  -3.722  1.00  0.00    -0.001 A 
HETATM   13  C   UNL     1      36.032 -11.858  -3.609  1.00  0.00     0.030 A 
HETATM   14  C   UNL     1      35.119 -12.465  -4.476  1.00  0.00     0.002 A 
HETATM   15  C   UNL     1      35.339 -13.751  -4.966  1.00  0.00     0.001 A 
HETATM   16  C   UNL     1      36.480 -14.471  -4.595  1.00  0.00     0.014 A 
HETATM   17  O   UNL     1      41.599 -14.254   0.657  1.00  0.00    -0.247 OA
HETATM   18  H   UNL     1      42.408 -16.621  -1.137  1.00  0.00     0.171 HD
ENDROOT
BRANCH   1  19
HETATM   19  C   UNL     1      42.376 -17.032   0.881  1.00  0.00     0.075 A 
HETATM   20  C   UNL     1      41.525 -17.332   1.952  1.00  0.00     0.145 A 
HETATM   21  C   UNL     1      41.986 -18.020   3.077  1.00  0.00     0.081 A 
HETATM   22  F   UNL     1      40.216 -17.044   1.908  1.00  0.00    -0.204 F 
HETATM   23  C   UNL     1      43.310 -18.438   3.140  1.00  0.00     0.072 A 
HETATM   24  C   UNL     1      44.149 -18.210   2.047  1.00  0.00     0.039 A 
HETATM   25  C   UNL     1      43.689 -17.512   0.926  1.00  0.00     0.035 A 
BRANCH  23  26
HETATM   26  O   UNL     1      43.889 -19.112   4.178  1.00  0.00    -0.347 OA
BRANCH  26  27
HETATM   27  C   UNL     1      43.498 -18.766   5.514  1.00  0.00     0.120 C 
HETATM   28  C   UNL     1      44.299 -17.565   6.015  1.00  0.00     0.040 C 
HETATM   29  C   UNL     1      43.798 -19.987   6.383  1.00  0.00     0.040 C 
ENDBRANCH  26  27
ENDBRANCH  23  26
ENDBRANCH   1  19
TORSDOF 3
ENDMDL
MODEL 4
REMARK VINA RESULT:      -8.1      4.897      9.555
REMARK  3 active torsions:
REMARK  status: ('A' for Active; 'I' for Inactive)
REMARK    1  A    between atoms: C_2  and  O_3 
REMARK    2  A    between atoms: O_3  and  C_4 
REMARK    3  A    between atoms: C_8  and  N_9 
REMARK       I    between atoms: N_9  and  C_10 
REMARK       I    between atoms: C_10  and  N_11 
ROOT
HETATM    1  N   UNL     1      41.792 -15.641   3.542  1.00  0.00    -0.306 N 
HETATM    2  C   UNL     1      42.269 -14.358   3.689  1.00  0.00     0.323 C 
HETATM    3  N   UNL     1      41.367 -13.454   4.240  1.00  0.00    -0.328 N 
HETATM    4  C   UNL     1      41.842 -12.073   4.415  1.00  0.00     0.185 C 
HETATM    5  C   UNL     1      41.265 -11.521   5.673  1.00  0.00     0.035 A 
HETATM    6  C   UNL     1      40.261 -12.075   6.441  1.00  0.00    -0.020 A 
HETATM    7  C   UNL     1      39.646 -13.378   6.078  1.00  0.00     0.061 C 
HETATM    8  C   UNL     1      39.954 -13.714   4.604  1.00  0.00     0.132 C 
HETATM    9  N   UNL     1      41.669 -10.363   6.276  1.00  0.00    -0.357 N 
HETATM   10  H   UNL     1      42.408  -9.756   5.950  1.00  0.00     0.166 HD
HETATM   11  C   UNL     1      40.932 -10.151   7.423  1.00  0.00     0.043 A 
HETATM   12  C   UNL     1      40.033 -11.214   7.547  1.00  0.00    -0.001 A 
HETATM   13  C   UNL     1      41.000  -9.112   8.359  1.00  0.00     0.030 A 
HETATM   14  C   UNL     1      40.124  -9.159   9.447  1.00  0.00     0.002 A 
HETATM   15  C   UNL     1      39.215 -10.205   9.592  1.00  0.00     0.001 A 
HETATM   16  C   UNL     1      39.160 -11.240   8.651  1.00  0.00     0.014 A 
HETATM   17  O   UNL     1      43.393 -14.009   3.336  1.00  0.00    -0.247 OA
HETATM   18  H   UNL     1      40.827 -15.707   3.268  1.00  0.00     0.171 HD
ENDROOT
BRANCH   1  19
HETATM   19  C   UNL     1      42.581 -16.786   3.280  1.00  0.00     0.075 A 
HETATM   20  C   UNL     1      43.090 -17.128   2.021  1.00  0.00     0.145 A 
HETATM   21  C   UNL     1      43.839 -18.292   1.831  1.00  0.00     0.081 A 
HETATM   22  F   UNL     1      42.950 -16.315   0.964  1.00  0.00    -0.204 F 
HETATM   23  C   UNL     1      44.110 -19.127   2.910  1.00  0.00     0.072 A 
HETATM   24  C   UNL     1      43.670 -18.758   4.183  1.00  0.00     0.039 A 
HETATM   25  C   UNL     1      42.911 -17.598   4.370  1.00  0.00     0.035 A 
BRANCH  23  26
HETATM   26  O   UNL     1      44.822 -20.292   2.863  1.00  0.00    -0.347 OA
BRANCH  26  27
HETATM   27  C   UNL     1      44.098 -21.529   2.829  1.00  0.00     0.120 C 
HETATM   28  C   UNL     1      44.723 -22.544   3.784  1.00  0.00     0.040 C 
HETATM   29  C   UNL     1      44.189 -22.046   1.393  1.00  0.00     0.040 C 
ENDBRANCH  26  27
ENDBRANCH  23  26
ENDBRANCH   1  19
TORSDOF 3
ENDMDL
MODEL 5
REMARK VINA RESULT:      -8.1      3.343      9.424
REMARK  3 active torsions:
REMARK  status: ('A' for Active; 'I' for Inactive)
REMARK    1  A    between atoms: C_2  and  O_3 
REMARK    2  A    between atoms: O_3  and  C_4 
REMARK    3  A    between atoms: C_8  and  N_9 
REMARK       I    between atoms: N_9  and  C_10 
REMARK       I    between atoms: C_10  and  N_11 
ROOT
HETATM    1  N   UNL     1      41.629 -15.818   2.161  1.00  0.00    -0.306 N 
HETATM    2  C   UNL     1      41.401 -15.916   0.807  1.00  0.00     0.323 C 
HETATM    3  N   UNL     1      41.016 -14.732   0.188  1.00  0.00    -0.328 N 
HETATM    4  C   UNL     1      40.766 -14.797  -1.261  1.00  0.00     0.185 C 
HETATM    5  C   UNL     1      41.231 -13.527  -1.887  1.00  0.00     0.035 A 
HETATM    6  C   UNL     1      41.605 -12.368  -1.239  1.00  0.00    -0.020 A 
HETATM    7  C   UNL     1      41.611 -12.284   0.245  1.00  0.00     0.061 C 
HETATM    8  C   UNL     1      40.761 -13.425   0.840  1.00  0.00     0.132 C 
HETATM    9  N   UNL     1      41.377 -13.326  -3.231  1.00  0.00    -0.357 N 
HETATM   10  H   UNL     1      41.199 -14.012  -3.952  1.00  0.00     0.166 HD
HETATM   11  C   UNL     1      41.830 -12.045  -3.466  1.00  0.00     0.043 A 
HETATM   12  C   UNL     1      41.977 -11.417  -2.226  1.00  0.00    -0.001 A 
HETATM   13  C   UNL     1      42.130 -11.403  -4.673  1.00  0.00     0.030 A 
HETATM   14  C   UNL     1      42.589 -10.084  -4.611  1.00  0.00     0.002 A 
HETATM   15  C   UNL     1      42.740  -9.433  -3.388  1.00  0.00     0.001 A 
HETATM   16  C   UNL     1      42.440 -10.088  -2.188  1.00  0.00     0.014 A 
HETATM   17  O   UNL     1      41.493 -16.968   0.179  1.00  0.00    -0.247 OA
HETATM   18  H   UNL     1      41.002 -15.206   2.655  1.00  0.00     0.171 HD
ENDROOT
BRANCH   1  19
HETATM   19  C   UNL     1      42.291 -16.784   2.955  1.00  0.00     0.075 A 
HETATM   20  C   UNL     1      43.587 -17.257   2.714  1.00  0.00     0.145 A 
HETATM   21  C   UNL     1      44.167 -18.236   3.524  1.00  0.00     0.081 A 
HETATM   22  F   UNL     1      44.356 -16.732   1.749  1.00  0.00    -0.204 F 
HETATM   23  C   UNL     1      43.460 -18.748   4.607  1.00  0.00     0.072 A 
HETATM   24  C   UNL     1      42.196 -18.232   4.900  1.00  0.00     0.039 A 
HETATM   25  C   UNL     1      41.612 -17.259   4.082  1.00  0.00     0.035 A 
BRANCH  23  26
HETATM   26  O   UNL     1      43.904 -19.707   5.473  1.00  0.00    -0.347 OA
BRANCH  26  27
HETATM   27  C   UNL     1      43.499 -19.624   6.845  1.00  0.00     0.120 C 
HETATM   28  C   UNL     1      44.431 -18.698   7.625  1.00  0.00     0.040 C 
HETATM   29  C   UNL     1      43.586 -21.041   7.411  1.00  0.00     0.040 C 
ENDBRANCH  26  27
ENDBRANCH  23  26
ENDBRANCH   1  19
TORSDOF 3
ENDMDL
MODEL 6
REMARK VINA RESULT:      -8.0      3.244      9.719
REMARK  3 active torsions:
REMARK  status: ('A' for Active; 'I' for Inactive)
REMARK    1  A    between atoms: C_2  and  O_3 
REMARK    2  A    between atoms: O_3  and  C_4 
REMARK    3  A    between atoms: C_8  and  N_9 
REMARK       I    between atoms: N_9  and  C_10 
REMARK       I    between atoms: C_10  and  N_11 
ROOT
HETATM    1  N   UNL     1      41.994 -15.649   1.538  1.00  0.00    -0.306 N 
HETATM    2  C   UNL     1      41.397 -15.572   0.300  1.00  0.00     0.323 C 
HETATM    3  N   UNL     1      41.114 -14.283  -0.138  1.00  0.00    -0.328 N 
HETATM    4  C   UNL     1      40.477 -14.160  -1.459  1.00  0.00     0.185 C 
HETATM    5  C   UNL     1      41.011 -12.946  -2.138  1.00  0.00     0.035 A 
HETATM    6  C   UNL     1      41.776 -11.945  -1.575  1.00  0.00    -0.020 A 
HETATM    7  C   UNL     1      42.195 -12.007  -0.151  1.00  0.00     0.061 C 
HETATM    8  C   UNL     1      41.319 -13.021   0.612  1.00  0.00     0.132 C 
HETATM    9  N   UNL     1      40.830 -12.647  -3.460  1.00  0.00    -0.357 N 
HETATM   10  H   UNL     1      40.328 -13.214  -4.129  1.00  0.00     0.166 HD
HETATM   11  C   UNL     1      41.459 -11.457  -3.761  1.00  0.00     0.043 A 
HETATM   12  C   UNL     1      42.059 -10.991  -2.588  1.00  0.00    -0.001 A 
HETATM   13  C   UNL     1      41.551 -10.769  -4.977  1.00  0.00     0.030 A 
HETATM   14  C   UNL     1      42.273  -9.572  -4.992  1.00  0.00     0.002 A 
HETATM   15  C   UNL     1      42.877  -9.082  -3.836  1.00  0.00     0.001 A 
HETATM   16  C   UNL     1      42.780  -9.782  -2.629  1.00  0.00     0.014 A 
HETATM   17  O   UNL     1      41.097 -16.558  -0.370  1.00  0.00    -0.247 OA
HETATM   18  H   UNL     1      41.662 -14.981   2.212  1.00  0.00     0.171 HD
ENDROOT
BRANCH   1  19
HETATM   19  C   UNL     1      42.628 -16.795   2.073  1.00  0.00     0.075 A 
HETATM   20  C   UNL     1      42.156 -17.525   3.171  1.00  0.00     0.145 A 
HETATM   21  C   UNL     1      42.852 -18.631   3.664  1.00  0.00     0.081 A 
HETATM   22  F   UNL     1      40.976 -17.243   3.744  1.00  0.00    -0.204 F 
HETATM   23  C   UNL     1      44.030 -19.039   3.049  1.00  0.00     0.072 A 
HETATM   24  C   UNL     1      44.472 -18.365   1.909  1.00  0.00     0.039 A 
HETATM   25  C   UNL     1      43.780 -17.251   1.423  1.00  0.00     0.035 A 
BRANCH  23  26
HETATM   26  O   UNL     1      44.809 -20.095   3.430  1.00  0.00    -0.347 OA
BRANCH  26  27
HETATM   27  C   UNL     1      44.248 -21.413   3.360  1.00  0.00     0.120 C 
HETATM   28  C   UNL     1      44.841 -22.308   4.447  1.00  0.00     0.040 C 
HETATM   29  C   UNL     1      44.609 -21.965   1.982  1.00  0.00     0.040 C 
ENDBRANCH  26  27
ENDBRANCH  23  26
ENDBRANCH   1  19
TORSDOF 3
ENDMDL
MODEL 7
REMARK VINA RESULT:      -7.9      3.272      4.371
REMARK  3 active torsions:
REMARK  status: ('A' for Active; 'I' for Inactive)
REMARK    1  A    between atoms: C_2  and  O_3 
REMARK    2  A    between atoms: O_3  and  C_4 
REMARK    3  A    between atoms: C_8  and  N_9 
REMARK       I    between atoms: N_9  and  C_10 
REMARK       I    between atoms: C_10  and  N_11 
ROOT
HETATM    1  N   UNL     1      41.217 -13.403   1.916  1.00  0.00    -0.306 N 
HETATM    2  C   UNL     1      42.003 -13.945   2.908  1.00  0.00     0.323 C 
HETATM    3  N   UNL     1      41.828 -15.309   3.119  1.00  0.00    -0.328 N 
HETATM    4  C   UNL     1      42.653 -15.925   4.170  1.00  0.00     0.185 C 
HETATM    5  C   UNL     1      43.037 -17.297   3.736  1.00  0.00     0.035 A 
HETATM    6  C   UNL     1      42.530 -18.005   2.666  1.00  0.00    -0.020 A 
HETATM    7  C   UNL     1      41.509 -17.410   1.766  1.00  0.00     0.061 C 
HETATM    8  C   UNL     1      40.847 -16.196   2.450  1.00  0.00     0.132 C 
HETATM    9  N   UNL     1      43.989 -18.071   4.342  1.00  0.00    -0.357 N 
HETATM   10  H   UNL     1      44.546 -17.801   5.141  1.00  0.00     0.166 HD
HETATM   11  C   UNL     1      44.098 -19.278   3.685  1.00  0.00     0.043 A 
HETATM   12  C   UNL     1      43.185 -19.265   2.626  1.00  0.00    -0.001 A 
HETATM   13  C   UNL     1      44.938 -20.369   3.938  1.00  0.00     0.030 A 
HETATM   14  C   UNL     1      44.839 -21.476   3.090  1.00  0.00     0.002 A 
HETATM   15  C   UNL     1      43.934 -21.490   2.030  1.00  0.00     0.001 A 
HETATM   16  C   UNL     1      43.103 -20.391   1.786  1.00  0.00     0.014 A 
HETATM   17  O   UNL     1      42.785 -13.286   3.590  1.00  0.00    -0.247 OA
HETATM   18  H   UNL     1      40.285 -13.775   1.862  1.00  0.00     0.171 HD
ENDROOT
BRANCH   1  19
HETATM   19  C   UNL     1      41.404 -12.132   1.324  1.00  0.00     0.075 A 
HETATM   20  C   UNL     1      40.885 -10.935   1.833  1.00  0.00     0.145 A 
HETATM   21  C   UNL     1      41.086  -9.718   1.177  1.00  0.00     0.081 A 
HETATM   22  F   UNL     1      40.246 -10.893   3.011  1.00  0.00    -0.204 F 
HETATM   23  C   UNL     1      41.830  -9.677   0.003  1.00  0.00     0.072 A 
HETATM   24  C   UNL     1      42.414 -10.853  -0.474  1.00  0.00     0.039 A 
HETATM   25  C   UNL     1      42.203 -12.072   0.177  1.00  0.00     0.035 A 
BRANCH  23  26
HETATM   26  O   UNL     1      42.097  -8.561  -0.739  1.00  0.00    -0.347 OA
BRANCH  26  27
HETATM   27  C   UNL     1      43.201  -8.601  -1.652  1.00  0.00     0.120 C 
HETATM   28  C   UNL     1      44.370  -7.774  -1.118  1.00  0.00     0.040 C 
HETATM   29  C   UNL     1      42.700  -7.999  -2.965  1.00  0.00     0.040 C 
ENDBRANCH  26  27
ENDBRANCH  23  26
ENDBRANCH   1  19
TORSDOF 3
ENDMDL
MODEL 8
REMARK VINA RESULT:      -7.9      3.361      4.372
REMARK  3 active torsions:
REMARK  status: ('A' for Active; 'I' for Inactive)
REMARK    1  A    between atoms: C_2  and  O_3 
REMARK    2  A    between atoms: O_3  and  C_4 
REMARK    3  A    between atoms: C_8  and  N_9 
REMARK       I    between atoms: N_9  and  C_10 
REMARK       I    between atoms: C_10  and  N_11 
ROOT
HETATM    1  N   UNL     1      41.456 -13.636   0.310  1.00  0.00    -0.306 N 
HETATM    2  C   UNL     1      42.080 -13.942   1.499  1.00  0.00     0.323 C 
HETATM    3  N   UNL     1      41.870 -15.238   1.958  1.00  0.00    -0.328 N 
HETATM    4  C   UNL     1      42.523 -15.603   3.225  1.00  0.00     0.185 C 
HETATM    5  C   UNL     1      42.966 -17.023   3.147  1.00  0.00     0.035 A 
HETATM    6  C   UNL     1      42.627 -17.949   2.180  1.00  0.00    -0.020 A 
HETATM    7  C   UNL     1      41.757 -17.579   1.034  1.00  0.00     0.061 C 
HETATM    8  C   UNL     1      41.001 -16.271   1.346  1.00  0.00     0.132 C 
HETATM    9  N   UNL     1      43.810 -17.629   4.035  1.00  0.00    -0.357 N 
HETATM   10  H   UNL     1      44.239 -17.186   4.835  1.00  0.00     0.166 HD
HETATM   11  C   UNL     1      44.016 -18.941   3.664  1.00  0.00     0.043 A 
HETATM   12  C   UNL     1      43.276 -19.170   2.500  1.00  0.00    -0.001 A 
HETATM   13  C   UNL     1      44.804 -19.933   4.261  1.00  0.00     0.030 A 
HETATM   14  C   UNL     1      44.833 -21.192   3.653  1.00  0.00     0.002 A 
HETATM   15  C   UNL     1      44.102 -21.448   2.495  1.00  0.00     0.001 A 
HETATM   16  C   UNL     1      43.321 -20.447   1.907  1.00  0.00     0.014 A 
HETATM   17  O   UNL     1      42.749 -13.135   2.140  1.00  0.00    -0.247 OA
HETATM   18  H   UNL     1      40.542 -14.039   0.194  1.00  0.00     0.171 HD
ENDROOT
BRANCH   1  19
HETATM   19  C   UNL     1      41.735 -12.508  -0.496  1.00  0.00     0.075 A 
HETATM   20  C   UNL     1      42.369 -12.560  -1.744  1.00  0.00     0.145 A 
HETATM   21  C   UNL     1      42.639 -11.400  -2.473  1.00  0.00     0.081 A 
HETATM   22  F   UNL     1      42.671 -13.729  -2.327  1.00  0.00    -0.204 F 
HETATM   23  C   UNL     1      42.258 -10.160  -1.970  1.00  0.00     0.072 A 
HETATM   24  C   UNL     1      41.559 -10.102  -0.762  1.00  0.00     0.039 A 
HETATM   25  C   UNL     1      41.300 -11.264  -0.028  1.00  0.00     0.035 A 
BRANCH  23  26
HETATM   26  O   UNL     1      42.464  -8.953  -2.573  1.00  0.00    -0.347 OA
BRANCH  26  27
HETATM   27  C   UNL     1      41.644  -8.607  -3.698  1.00  0.00     0.120 C 
HETATM   28  C   UNL     1      42.497  -8.449  -4.956  1.00  0.00     0.040 C 
HETATM   29  C   UNL     1      40.976  -7.276  -3.355  1.00  0.00     0.040 C 
ENDBRANCH  26  27
ENDBRANCH  23  26
ENDBRANCH   1  19
TORSDOF 3
ENDMDL
MODEL 9
REMARK VINA RESULT:      -7.9      6.991      8.327
REMARK  3 active torsions:
REMARK  status: ('A' for Active; 'I' for Inactive)
REMARK    1  A    between atoms: C_2  and  O_3 
REMARK    2  A    between atoms: O_3  and  C_4 
REMARK    3  A    between atoms: C_8  and  N_9 
REMARK       I    between atoms: N_9  and  C_10 
REMARK       I    between atoms: C_10  and  N_11 
ROOT
HETATM    1  N   UNL     1      41.464 -11.287   6.510  1.00  0.00    -0.306 N 
HETATM    2  C   UNL     1      40.686 -12.366   6.156  1.00  0.00     0.323 C 
HETATM    3  N   UNL     1      40.985 -12.927   4.919  1.00  0.00    -0.328 N 
HETATM    4  C   UNL     1      40.175 -14.084   4.507  1.00  0.00     0.185 C 
HETATM    5  C   UNL     1      41.045 -15.041   3.767  1.00  0.00     0.035 A 
HETATM    6  C   UNL     1      42.326 -14.816   3.306  1.00  0.00    -0.020 A 
HETATM    7  C   UNL     1      43.014 -13.523   3.550  1.00  0.00     0.061 C 
HETATM    8  C   UNL     1      41.984 -12.442   3.938  1.00  0.00     0.132 C 
HETATM    9  N   UNL     1      40.698 -16.324   3.445  1.00  0.00    -0.357 N 
HETATM   10  H   UNL     1      39.824 -16.774   3.677  1.00  0.00     0.166 HD
HETATM   11  C   UNL     1      41.734 -16.932   2.768  1.00  0.00     0.043 A 
HETATM   12  C   UNL     1      42.772 -16.001   2.662  1.00  0.00    -0.001 A 
HETATM   13  C   UNL     1      41.836 -18.231   2.255  1.00  0.00     0.030 A 
HETATM   14  C   UNL     1      43.027 -18.585   1.615  1.00  0.00     0.002 A 
HETATM   15  C   UNL     1      44.075 -17.675   1.492  1.00  0.00     0.001 A 
HETATM   16  C   UNL     1      43.962 -16.381   2.013  1.00  0.00     0.014 A 
HETATM   17  O   UNL     1      39.768 -12.797   6.851  1.00  0.00    -0.247 OA
HETATM   18  H   UNL     1      41.704 -10.669   5.755  1.00  0.00     0.171 HD
ENDROOT
BRANCH   1  19
HETATM   19  C   UNL     1      41.553 -10.730   7.808  1.00  0.00     0.075 A 
HETATM   20  C   UNL     1      40.551  -9.959   8.411  1.00  0.00     0.145 A 
HETATM   21  C   UNL     1      40.720  -9.415   9.687  1.00  0.00     0.081 A 
HETATM   22  F   UNL     1      39.359  -9.779   7.826  1.00  0.00    -0.204 F 
HETATM   23  C   UNL     1      41.896  -9.652  10.392  1.00  0.00     0.072 A 
HETATM   24  C   UNL     1      42.870 -10.480   9.831  1.00  0.00     0.039 A 
HETATM   25  C   UNL     1      42.705 -11.015   8.549  1.00  0.00     0.035 A 
BRANCH  23  26
HETATM   26  O   UNL     1      42.192  -9.179  11.638  1.00  0.00    -0.347 OA
BRANCH  26  27
HETATM   27  C   UNL     1      42.588 -10.119  12.645  1.00  0.00     0.120 C 
HETATM   28  C   UNL     1      41.365 -10.806  13.251  1.00  0.00     0.040 C 
HETATM   29  C   UNL     1      43.319  -9.319  13.723  1.00  0.00     0.040 C 
ENDBRANCH  26  27
ENDBRANCH  23  26
ENDBRANCH   1  19
TORSDOF 3
ENDMDL
MODEL 10
REMARK VINA RESULT:      -7.6      4.165      8.877
REMARK  3 active torsions:
REMARK  status: ('A' for Active; 'I' for Inactive)
REMARK    1  A    between atoms: C_2  and  O_3 
REMARK    2  A    between atoms: O_3  and  C_4 
REMARK    3  A    between atoms: C_8  and  N_9 
REMARK       I    between atoms: N_9  and  C_10 
REMARK       I    between atoms: C_10  and  N_11 
ROOT
HETATM    1  N   UNL     1      41.944 -15.449   4.077  1.00  0.00    -0.306 N 
HETATM    2  C   UNL     1      42.348 -15.516   2.763  1.00  0.00     0.323 C 
HETATM    3  N   UNL     1      41.317 -15.557   1.831  1.00  0.00    -0.328 N 
HETATM    4  C   UNL     1      41.710 -15.627   0.415  1.00  0.00     0.185 C 
HETATM    5  C   UNL     1      40.747 -14.826  -0.391  1.00  0.00     0.035 A 
HETATM    6  C   UNL     1      39.542 -14.301   0.031  1.00  0.00    -0.020 A 
HETATM    7  C   UNL     1      39.080 -14.468   1.432  1.00  0.00     0.061 C 
HETATM    8  C   UNL     1      39.862 -15.611   2.112  1.00  0.00     0.132 C 
HETATM    9  N   UNL     1      40.930 -14.469  -1.699  1.00  0.00    -0.357 N 
HETATM   10  H   UNL     1      41.737 -14.694  -2.263  1.00  0.00     0.166 HD
HETATM   11  C   UNL     1      39.852 -13.727  -2.136  1.00  0.00     0.043 A 
HETATM   12  C   UNL     1      38.960 -13.611  -1.066  1.00  0.00    -0.001 A 
HETATM   13  C   UNL     1      39.607 -13.144  -3.385  1.00  0.00     0.030 A 
HETATM   14  C   UNL     1      38.417 -12.428  -3.545  1.00  0.00     0.002 A 
HETATM   15  C   UNL     1      37.509 -12.300  -2.496  1.00  0.00     0.001 A 
HETATM   16  C   UNL     1      37.768 -12.884  -1.251  1.00  0.00     0.014 A 
HETATM   17  O   UNL     1      43.527 -15.570   2.419  1.00  0.00    -0.247 OA
HETATM   18  H   UNL     1      41.126 -15.990   4.299  1.00  0.00     0.171 HD
ENDROOT
BRANCH   1  19
HETATM   19  C   UNL     1      42.772 -15.116   5.175  1.00  0.00     0.075 A 
HETATM   20  C   UNL     1      43.580 -16.028   5.866  1.00  0.00     0.145 A 
HETATM   21  C   UNL     1      44.351 -15.632   6.961  1.00  0.00     0.081 A 
HETATM   22  F   UNL     1      43.710 -17.298   5.457  1.00  0.00    -0.204 F 
HETATM   23  C   UNL     1      44.342 -14.304   7.374  1.00  0.00     0.072 A 
HETATM   24  C   UNL     1      43.598 -13.372   6.647  1.00  0.00     0.039 A 
HETATM   25  C   UNL     1      42.818 -13.771   5.557  1.00  0.00     0.035 A 
BRANCH  23  26
HETATM   26  O   UNL     1      45.041 -13.787   8.427  1.00  0.00    -0.347 OA
BRANCH  26  27
HETATM   27  C   UNL     1      45.167 -12.362   8.524  1.00  0.00     0.120 C 
HETATM   28  C   UNL     1      46.599 -11.927   8.216  1.00  0.00     0.040 C 
HETATM   29  C   UNL     1      44.812 -11.992   9.964  1.00  0.00     0.040 C 
ENDBRANCH  26  27
ENDBRANCH  23  26
ENDBRANCH   1  19
TORSDOF 3
ENDMDL
