MODEL 1
REMARK VINA RESULT:      -8.7      0.000      0.000
REMARK  6 active torsions:
REMARK  status: ('A' for Active; 'I' for Inactive)
REMARK    1  A    between atoms: C_2  and  O_3 
REMARK    2  A    between atoms: C_2  and  C_4 
REMARK    3  A    between atoms: C_7  and  N_8 
REMARK       I    between atoms: N_8  and  C_9 
REMARK    4  A    between atoms: C_9  and  C_10 
REMARK    5  A    between atoms: C_15  and  C_16 
REMARK    6  A    between atoms: C_22  and  C_23 
ROOT
HETATM    1  C   UNL     1      41.335 -15.778   4.561  1.00  0.00     0.148 A 
HETATM    2  N   UNL     1      41.481 -16.430   5.740  1.00  0.00    -0.165 NA
HETATM    3  N   UNL     1      42.572 -17.190   5.535  1.00  0.00    -0.240 N 
HETATM    4  C   UNL     1      43.067 -17.126   4.264  1.00  0.00     0.123 A 
HETATM    5  N   UNL     1      44.057 -17.946   3.861  1.00  0.00    -0.364 N 
HETATM    6  C   UNL     1      44.413 -19.171   4.591  1.00  0.00     0.143 C 
HETATM    7  C   UNL     1      43.449 -19.433   5.773  1.00  0.00     0.068 C 
HETATM    8  C   UNL     1      43.053 -18.147   6.511  1.00  0.00     0.221 C 
HETATM    9  C   UNL     1      42.345 -16.153   3.629  1.00  0.00     0.089 A 
HETATM   10  H   UNL     1      44.430 -17.893   2.914  1.00  0.00     0.162 HD
ENDROOT
BRANCH   1  11
HETATM   11  C   UNL     1      40.203 -14.869   4.299  1.00  0.00     0.276 C 
HETATM   12  N   UNL     1      39.856 -14.850   2.963  1.00  0.00    -0.322 N 
HETATM   13  H   UNL     1      40.377 -15.519   2.400  1.00  0.00     0.169 HD
HETATM   14  O   UNL     1      39.697 -14.208   5.198  1.00  0.00    -0.266 OA
BRANCH  12  15
HETATM   15  C   UNL     1      38.966 -13.983   2.309  1.00  0.00     0.035 A 
HETATM   16  C   UNL     1      38.902 -12.610   2.551  1.00  0.00     0.030 A 
HETATM   17  C   UNL     1      38.033 -11.797   1.814  1.00  0.00     0.012 A 
HETATM   18  C   UNL     1      37.209 -12.342   0.822  1.00  0.00    -0.030 A 
HETATM   19  C   UNL     1      37.253 -13.725   0.604  1.00  0.00     0.012 A 
HETATM   20  C   UNL     1      38.129 -14.535   1.335  1.00  0.00     0.030 A 
BRANCH  18  21
HETATM   21  C   UNL     1      36.285 -11.445   0.028  1.00  0.00     0.147 C 
HETATM   22  C   UNL     1      36.777 -10.007  -0.018  1.00  0.00     0.044 C 
BRANCH  21  23
HETATM   23  O   UNL     1      34.971 -11.467   0.585  1.00  0.00    -0.391 OA
HETATM   24  H   UNL     1      34.349 -11.399  -0.160  1.00  0.00     0.210 HD
ENDBRANCH  21  23
ENDBRANCH  18  21
ENDBRANCH  12  15
ENDBRANCH   1  11
BRANCH   8  25
HETATM   25  C   UNL     1      44.189 -17.553   7.312  1.00  0.00     0.409 C 
HETATM   26  F   UNL     1      44.774 -16.515   6.676  1.00  0.00    -0.169 F 
HETATM   27  F   UNL     1      43.710 -17.065   8.487  1.00  0.00    -0.169 F 
HETATM   28  F   UNL     1      45.153 -18.440   7.629  1.00  0.00    -0.169 F 
ENDBRANCH   8  25
BRANCH   6  29
HETATM   29  C   UNL     1      44.430 -20.380   3.703  1.00  0.00     0.075 A 
HETATM   30  O   UNL     1      44.678 -21.581   4.298  1.00  0.00    -0.325 OA
HETATM   31  C   UNL     1      44.636 -22.523   3.319  1.00  0.00     0.142 A 
HETATM   32  C   UNL     1      44.357 -21.945   2.103  1.00  0.00     0.027 A 
HETATM   33  C   UNL     1      44.223 -20.558   2.348  1.00  0.00     0.037 A 
ENDBRANCH   6  29
TORSDOF 6
ENDMDL
MODEL 2
REMARK VINA RESULT:      -8.7      5.562      8.339
REMARK  6 active torsions:
REMARK  status: ('A' for Active; 'I' for Inactive)
REMARK    1  A    between atoms: C_2  and  O_3 
REMARK    2  A    between atoms: C_2  and  C_4 
REMARK    3  A    between atoms: C_7  and  N_8 
REMARK       I    between atoms: N_8  and  C_9 
REMARK    4  A    between atoms: C_9  and  C_10 
REMARK    5  A    between atoms: C_15  and  C_16 
REMARK    6  A    between atoms: C_22  and  C_23 
ROOT
HETATM    1  C   UNL     1      44.553 -13.973   7.472  1.00  0.00     0.148 A 
HETATM    2  N   UNL     1      44.225 -15.250   7.785  1.00  0.00    -0.165 NA
HETATM    3  N   UNL     1      43.913 -15.786   6.591  1.00  0.00    -0.240 N 
HETATM    4  C   UNL     1      43.933 -14.896   5.556  1.00  0.00     0.123 A 
HETATM    5  N   UNL     1      43.493 -15.244   4.331  1.00  0.00    -0.364 N 
HETATM    6  C   UNL     1      42.645 -16.423   4.103  1.00  0.00     0.143 C 
HETATM    7  C   UNL     1      42.251 -17.109   5.432  1.00  0.00     0.068 C 
HETATM    8  C   UNL     1      43.399 -17.134   6.450  1.00  0.00     0.221 C 
HETATM    9  C   UNL     1      44.430 -13.732   6.073  1.00  0.00     0.089 A 
HETATM   10  H   UNL     1      43.516 -14.581   3.558  1.00  0.00     0.162 HD
ENDROOT
BRANCH   1  11
HETATM   11  C   UNL     1      44.903 -12.975   8.500  1.00  0.00     0.276 C 
HETATM   12  N   UNL     1      43.922 -12.865   9.466  1.00  0.00    -0.322 N 
HETATM   13  H   UNL     1      43.168 -13.540   9.355  1.00  0.00     0.169 HD
HETATM   14  O   UNL     1      45.940 -12.327   8.430  1.00  0.00    -0.266 OA
BRANCH  12  15
HETATM   15  C   UNL     1      43.812 -11.906  10.485  1.00  0.00     0.035 A 
HETATM   16  C   UNL     1      43.905 -10.531  10.270  1.00  0.00     0.030 A 
HETATM   17  C   UNL     1      43.720  -9.631  11.325  1.00  0.00     0.012 A 
HETATM   18  C   UNL     1      43.442 -10.089  12.620  1.00  0.00    -0.030 A 
HETATM   19  C   UNL     1      43.381 -11.472  12.838  1.00  0.00     0.012 A 
HETATM   20  C   UNL     1      43.557 -12.369  11.780  1.00  0.00     0.030 A 
BRANCH  18  21
HETATM   21  C   UNL     1      43.234  -9.101  13.746  1.00  0.00     0.147 C 
HETATM   22  C   UNL     1      42.402  -9.684  14.878  1.00  0.00     0.044 C 
BRANCH  21  23
HETATM   23  O   UNL     1      42.592  -7.922  13.260  1.00  0.00    -0.391 OA
HETATM   24  H   UNL     1      41.791  -8.211  12.791  1.00  0.00     0.210 HD
ENDBRANCH  21  23
ENDBRANCH  18  21
ENDBRANCH  12  15
ENDBRANCH   1  11
BRANCH   8  25
HETATM   25  C   UNL     1      44.511 -18.081   6.062  1.00  0.00     0.409 C 
HETATM   26  F   UNL     1      45.705 -17.704   6.570  1.00  0.00    -0.169 F 
HETATM   27  F   UNL     1      44.252 -19.317   6.565  1.00  0.00    -0.169 F 
HETATM   28  F   UNL     1      44.658 -18.232   4.730  1.00  0.00    -0.169 F 
ENDBRANCH   8  25
BRANCH   6  29
HETATM   29  C   UNL     1      41.397 -16.088   3.341  1.00  0.00     0.075 A 
HETATM   30  O   UNL     1      40.785 -14.907   3.646  1.00  0.00    -0.325 OA
HETATM   31  C   UNL     1      39.696 -14.806   2.839  1.00  0.00     0.142 A 
HETATM   32  C   UNL     1      39.602 -15.903   2.015  1.00  0.00     0.027 A 
HETATM   33  C   UNL     1      40.702 -16.734   2.337  1.00  0.00     0.037 A 
ENDBRANCH   6  29
TORSDOF 6
ENDMDL
MODEL 3
REMARK VINA RESULT:      -8.7      4.742     10.219
REMARK  6 active torsions:
REMARK  status: ('A' for Active; 'I' for Inactive)
REMARK    1  A    between atoms: C_2  and  O_3 
REMARK    2  A    between atoms: C_2  and  C_4 
REMARK    3  A    between atoms: C_7  and  N_8 
REMARK       I    between atoms: N_8  and  C_9 
REMARK    4  A    between atoms: C_9  and  C_10 
REMARK    5  A    between atoms: C_15  and  C_16 
REMARK    6  A    between atoms: C_22  and  C_23 
ROOT
HETATM    1  C   UNL     1      40.942 -15.555   0.565  1.00  0.00     0.148 A 
HETATM    2  N   UNL     1      41.693 -15.474  -0.560  1.00  0.00    -0.165 NA
HETATM    3  N   UNL     1      41.025 -14.575  -1.307  1.00  0.00    -0.240 N 
HETATM    4  C   UNL     1      39.847 -14.157  -0.760  1.00  0.00     0.123 A 
HETATM    5  N   UNL     1      38.993 -13.382  -1.456  1.00  0.00    -0.364 N 
HETATM    6  C   UNL     1      39.068 -13.241  -2.917  1.00  0.00     0.143 C 
HETATM    7  C   UNL     1      40.150 -14.164  -3.526  1.00  0.00     0.068 C 
HETATM    8  C   UNL     1      41.416 -14.242  -2.662  1.00  0.00     0.221 C 
HETATM    9  C   UNL     1      39.803 -14.702   0.494  1.00  0.00     0.089 A 
HETATM   10  H   UNL     1      38.117 -13.065  -1.043  1.00  0.00     0.162 HD
ENDROOT
BRANCH   1  11
HETATM   11  C   UNL     1      41.262 -16.490   1.660  1.00  0.00     0.276 C 
HETATM   12  N   UNL     1      42.585 -16.884   1.630  1.00  0.00    -0.322 N 
HETATM   13  H   UNL     1      43.133 -16.407   0.917  1.00  0.00     0.169 HD
HETATM   14  O   UNL     1      40.403 -16.863   2.450  1.00  0.00    -0.266 OA
BRANCH  12  15
HETATM   15  C   UNL     1      43.208 -17.892   2.383  1.00  0.00     0.035 A 
HETATM   16  C   UNL     1      43.608 -17.734   3.711  1.00  0.00     0.030 A 
HETATM   17  C   UNL     1      44.165 -18.805   4.419  1.00  0.00     0.012 A 
HETATM   18  C   UNL     1      44.336 -20.055   3.812  1.00  0.00    -0.030 A 
HETATM   19  C   UNL     1      43.963 -20.201   2.469  1.00  0.00     0.012 A 
HETATM   20  C   UNL     1      43.398 -19.132   1.766  1.00  0.00     0.030 A 
BRANCH  18  21
HETATM   21  C   UNL     1      44.929 -21.204   4.597  1.00  0.00     0.147 C 
HETATM   22  C   UNL     1      44.659 -22.550   3.941  1.00  0.00     0.044 C 
BRANCH  21  23
HETATM   23  O   UNL     1      44.404 -21.223   5.924  1.00  0.00    -0.391 OA
HETATM   24  H   UNL     1      43.496 -21.567   5.862  1.00  0.00     0.210 HD
ENDBRANCH  21  23
ENDBRANCH  18  21
ENDBRANCH  12  15
ENDBRANCH   1  11
BRANCH   8  25
HETATM   25  C   UNL     1      42.220 -12.962  -2.676  1.00  0.00     0.409 C 
HETATM   26  F   UNL     1      43.549 -13.193  -2.747  1.00  0.00    -0.169 F 
HETATM   27  F   UNL     1      41.896 -12.234  -3.778  1.00  0.00    -0.169 F 
HETATM   28  F   UNL     1      41.994 -12.166  -1.612  1.00  0.00    -0.169 F 
ENDBRANCH   8  25
BRANCH   6  29
HETATM   29  C   UNL     1      37.755 -13.526  -3.585  1.00  0.00     0.075 A 
HETATM   30  O   UNL     1      37.010 -12.450  -3.968  1.00  0.00    -0.325 OA
HETATM   31  C   UNL     1      35.884 -12.938  -4.552  1.00  0.00     0.142 A 
HETATM   32  C   UNL     1      35.897 -14.313  -4.556  1.00  0.00     0.027 A 
HETATM   33  C   UNL     1      37.108 -14.697  -3.932  1.00  0.00     0.037 A 
ENDBRANCH   6  29
TORSDOF 6
ENDMDL
MODEL 4
REMARK VINA RESULT:      -8.5      4.534      9.312
REMARK  6 active torsions:
REMARK  status: ('A' for Active; 'I' for Inactive)
REMARK    1  A    between atoms: C_2  and  O_3 
REMARK    2  A    between atoms: C_2  and  C_4 
REMARK    3  A    between atoms: C_7  and  N_8 
REMARK       I    between atoms: N_8  and  C_9 
REMARK    4  A    between atoms: C_9  and  C_10 
REMARK    5  A    between atoms: C_15  and  C_16 
REMARK    6  A    between atoms: C_22  and  C_23 
ROOT
HETATM    1  C   UNL     1      41.559 -15.078   5.482  1.00  0.00     0.148 A 
HETATM    2  N   UNL     1      40.340 -14.492   5.573  1.00  0.00    -0.165 NA
HETATM    3  N   UNL     1      40.635 -13.233   5.945  1.00  0.00    -0.240 N 
HETATM    4  C   UNL     1      41.961 -13.017   6.186  1.00  0.00     0.123 A 
HETATM    5  N   UNL     1      42.391 -11.855   6.715  1.00  0.00    -0.364 N 
HETATM    6  C   UNL     1      41.488 -10.917   7.398  1.00  0.00     0.143 C 
HETATM    7  C   UNL     1      40.056 -11.488   7.519  1.00  0.00     0.068 C 
HETATM    8  C   UNL     1      39.615 -12.254   6.264  1.00  0.00     0.221 C 
HETATM    9  C   UNL     1      42.602 -14.165   5.809  1.00  0.00     0.089 A 
HETATM   10  H   UNL     1      43.383 -11.692   6.887  1.00  0.00     0.162 HD
ENDROOT
BRANCH   1  11
HETATM   11  C   UNL     1      41.722 -16.509   5.163  1.00  0.00     0.276 C 
HETATM   12  N   UNL     1      43.008 -16.800   4.751  1.00  0.00    -0.322 N 
HETATM   13  H   UNL     1      43.643 -16.007   4.813  1.00  0.00     0.169 HD
HETATM   14  O   UNL     1      40.781 -17.289   5.240  1.00  0.00    -0.266 OA
BRANCH  12  15
HETATM   15  C   UNL     1      43.491 -17.995   4.194  1.00  0.00     0.035 A 
HETATM   16  C   UNL     1      44.273 -18.916   4.893  1.00  0.00     0.030 A 
HETATM   17  C   UNL     1      44.665 -20.118   4.293  1.00  0.00     0.012 A 
HETATM   18  C   UNL     1      44.285 -20.422   2.979  1.00  0.00    -0.030 A 
HETATM   19  C   UNL     1      43.528 -19.480   2.270  1.00  0.00     0.012 A 
HETATM   20  C   UNL     1      43.129 -18.283   2.875  1.00  0.00     0.030 A 
BRANCH  18  21
HETATM   21  C   UNL     1      44.709 -21.731   2.351  1.00  0.00     0.147 C 
HETATM   22  C   UNL     1      43.895 -22.064   1.109  1.00  0.00     0.044 C 
BRANCH  21  23
HETATM   23  O   UNL     1      44.578 -22.798   3.289  1.00  0.00    -0.391 OA
HETATM   24  H   UNL     1      43.715 -23.216   3.121  1.00  0.00     0.210 HD
ENDBRANCH  21  23
ENDBRANCH  18  21
ENDBRANCH  12  15
ENDBRANCH   1  11
BRANCH   8  25
HETATM   25  C   UNL     1      39.367 -11.350   5.078  1.00  0.00     0.409 C 
HETATM   26  F   UNL     1      40.408 -11.339   4.217  1.00  0.00    -0.169 F 
HETATM   27  F   UNL     1      38.293 -11.803   4.379  1.00  0.00    -0.169 F 
HETATM   28  F   UNL     1      39.095 -10.073   5.414  1.00  0.00    -0.169 F 
ENDBRANCH   8  25
BRANCH   6  29
HETATM   29  C   UNL     1      41.980 -10.547   8.766  1.00  0.00     0.075 A 
HETATM   30  O   UNL     1      43.324 -10.637   8.985  1.00  0.00    -0.325 OA
HETATM   31  C   UNL     1      43.541 -10.250  10.269  1.00  0.00     0.142 A 
HETATM   32  C   UNL     1      42.356  -9.906  10.878  1.00  0.00     0.027 A 
HETATM   33  C   UNL     1      41.345 -10.097   9.907  1.00  0.00     0.037 A 
ENDBRANCH   6  29
TORSDOF 6
ENDMDL
MODEL 5
REMARK VINA RESULT:      -8.4      4.461      5.419
REMARK  6 active torsions:
REMARK  status: ('A' for Active; 'I' for Inactive)
REMARK    1  A    between atoms: C_2  and  O_3 
REMARK    2  A    between atoms: C_2  and  C_4 
REMARK    3  A    between atoms: C_7  and  N_8 
REMARK       I    between atoms: N_8  and  C_9 
REMARK    4  A    between atoms: C_9  and  C_10 
REMARK    5  A    between atoms: C_15  and  C_16 
REMARK    6  A    between atoms: C_22  and  C_23 
ROOT
HETATM    1  C   UNL     1      41.368 -16.212   1.297  1.00  0.00     0.148 A 
HETATM    2  N   UNL     1      42.535 -16.880   1.127  1.00  0.00    -0.165 NA
HETATM    3  N   UNL     1      42.602 -17.658   2.223  1.00  0.00    -0.240 N 
HETATM    4  C   UNL     1      41.594 -17.450   3.120  1.00  0.00     0.123 A 
HETATM    5  N   UNL     1      41.610 -18.037   4.332  1.00  0.00    -0.364 N 
HETATM    6  C   UNL     1      42.830 -18.616   4.913  1.00  0.00     0.143 C 
HETATM    7  C   UNL     1      44.066 -18.360   4.018  1.00  0.00     0.068 C 
HETATM    8  C   UNL     1      43.751 -18.489   2.522  1.00  0.00     0.221 C 
HETATM    9  C   UNL     1      40.727 -16.584   2.513  1.00  0.00     0.089 A 
HETATM   10  H   UNL     1      40.853 -17.886   4.998  1.00  0.00     0.162 HD
ENDROOT
BRANCH   1  11
HETATM   11  C   UNL     1      40.909 -15.176   0.352  1.00  0.00     0.276 C 
HETATM   12  N   UNL     1      41.803 -14.993  -0.685  1.00  0.00    -0.322 N 
HETATM   13  H   UNL     1      42.579 -15.651  -0.671  1.00  0.00     0.169 HD
HETATM   14  O   UNL     1      39.866 -14.561   0.540  1.00  0.00    -0.266 OA
BRANCH  12  15
HETATM   15  C   UNL     1      41.804 -13.984  -1.661  1.00  0.00     0.035 A 
HETATM   16  C   UNL     1      41.203 -14.115  -2.914  1.00  0.00     0.030 A 
HETATM   17  C   UNL     1      41.189 -13.043  -3.812  1.00  0.00     0.012 A 
HETATM   18  C   UNL     1      41.779 -11.817  -3.477  1.00  0.00    -0.030 A 
HETATM   19  C   UNL     1      42.409 -11.700  -2.232  1.00  0.00     0.012 A 
HETATM   20  C   UNL     1      42.414 -12.770  -1.331  1.00  0.00     0.030 A 
BRANCH  18  21
HETATM   21  C   UNL     1      41.743 -10.666  -4.457  1.00  0.00     0.147 C 
HETATM   22  C   UNL     1      40.380 -10.511  -5.115  1.00  0.00     0.044 C 
BRANCH  21  23
HETATM   23  O   UNL     1      42.729 -10.846  -5.473  1.00  0.00    -0.391 OA
HETATM   24  H   UNL     1      43.595 -10.833  -5.029  1.00  0.00     0.210 HD
ENDBRANCH  21  23
ENDBRANCH  18  21
ENDBRANCH  12  15
ENDBRANCH   1  11
BRANCH   8  25
HETATM   25  C   UNL     1      43.492 -19.916   2.094  1.00  0.00     0.409 C 
HETATM   26  F   UNL     1      42.189 -20.137   1.815  1.00  0.00    -0.169 F 
HETATM   27  F   UNL     1      44.181 -20.181   0.953  1.00  0.00    -0.169 F 
HETATM   28  F   UNL     1      43.882 -20.835   3.000  1.00  0.00    -0.169 F 
ENDBRANCH   8  25
BRANCH   6  29
HETATM   29  C   UNL     1      43.111 -18.090   6.290  1.00  0.00     0.075 A 
HETATM   30  O   UNL     1      43.876 -18.872   7.105  1.00  0.00    -0.325 OA
HETATM   31  C   UNL     1      44.008 -18.204   8.281  1.00  0.00     0.142 A 
HETATM   32  C   UNL     1      43.344 -17.000   8.231  1.00  0.00     0.027 A 
HETATM   33  C   UNL     1      42.763 -16.924   6.944  1.00  0.00     0.037 A 
ENDBRANCH   6  29
TORSDOF 6
ENDMDL
MODEL 6
REMARK VINA RESULT:      -8.2      2.909      3.406
REMARK  6 active torsions:
REMARK  status: ('A' for Active; 'I' for Inactive)
REMARK    1  A    between atoms: C_2  and  O_3 
REMARK    2  A    between atoms: C_2  and  C_4 
REMARK    3  A    between atoms: C_7  and  N_8 
REMARK       I    between atoms: N_8  and  C_9 
REMARK    4  A    between atoms: C_9  and  C_10 
REMARK    5  A    between atoms: C_15  and  C_16 
REMARK    6  A    between atoms: C_22  and  C_23 
ROOT
HETATM    1  C   UNL     1      40.758 -15.476   1.580  1.00  0.00     0.148 A 
HETATM    2  N   UNL     1      40.664 -15.712   2.912  1.00  0.00    -0.165 NA
HETATM    3  N   UNL     1      41.778 -16.421   3.175  1.00  0.00    -0.240 N 
HETATM    4  C   UNL     1      42.520 -16.726   2.071  1.00  0.00     0.123 A 
HETATM    5  N   UNL     1      43.575 -17.560   2.152  1.00  0.00    -0.364 N 
HETATM    6  C   UNL     1      43.780 -18.465   3.292  1.00  0.00     0.143 C 
HETATM    7  C   UNL     1      42.596 -18.408   4.287  1.00  0.00     0.068 C 
HETATM    8  C   UNL     1      42.053 -16.986   4.481  1.00  0.00     0.221 C 
HETATM    9  C   UNL     1      41.938 -16.055   1.031  1.00  0.00     0.089 A 
HETATM   10  H   UNL     1      44.133 -17.782   1.328  1.00  0.00     0.162 HD
ENDROOT
BRANCH   1  11
HETATM   11  C   UNL     1      39.700 -14.777   0.828  1.00  0.00     0.276 C 
HETATM   12  N   UNL     1      40.001 -14.683  -0.517  1.00  0.00    -0.322 N 
HETATM   13  H   UNL     1      40.852 -15.177  -0.777  1.00  0.00     0.169 HD
HETATM   14  O   UNL     1      38.712 -14.324   1.392  1.00  0.00    -0.266 OA
BRANCH  12  15
HETATM   15  C   UNL     1      39.338 -13.937  -1.505  1.00  0.00     0.035 A 
HETATM   16  C   UNL     1      38.230 -14.401  -2.214  1.00  0.00     0.030 A 
HETATM   17  C   UNL     1      37.580 -13.576  -3.139  1.00  0.00     0.012 A 
HETATM   18  C   UNL     1      38.030 -12.270  -3.376  1.00  0.00    -0.030 A 
HETATM   19  C   UNL     1      39.163 -11.820  -2.687  1.00  0.00     0.012 A 
HETATM   20  C   UNL     1      39.805 -12.643  -1.755  1.00  0.00     0.030 A 
BRANCH  18  21
HETATM   21  C   UNL     1      37.308 -11.390  -4.372  1.00  0.00     0.147 C 
HETATM   22  C   UNL     1      36.076 -12.067  -4.953  1.00  0.00     0.044 C 
BRANCH  21  23
HETATM   23  O   UNL     1      38.183 -11.026  -5.440  1.00  0.00    -0.391 OA
HETATM   24  H   UNL     1      38.827 -10.396  -5.073  1.00  0.00     0.210 HD
ENDBRANCH  21  23
ENDBRANCH  18  21
ENDBRANCH  12  15
ENDBRANCH   1  11
BRANCH   8  25
HETATM   25  C   UNL     1      43.000 -16.093   5.249  1.00  0.00     0.409 C 
HETATM   26  F   UNL     1      43.578 -15.161   4.460  1.00  0.00    -0.169 F 
HETATM   27  F   UNL     1      42.310 -15.414   6.204  1.00  0.00    -0.169 F 
HETATM   28  F   UNL     1      43.981 -16.761   5.888  1.00  0.00    -0.169 F 
ENDBRANCH   8  25
BRANCH   6  29
HETATM   29  C   UNL     1      43.982 -19.888   2.861  1.00  0.00     0.075 A 
HETATM   30  O   UNL     1      44.663 -20.702   3.717  1.00  0.00    -0.325 OA
HETATM   31  C   UNL     1      44.718 -21.929   3.136  1.00  0.00     0.142 A 
HETATM   32  C   UNL     1      44.076 -21.917   1.919  1.00  0.00     0.027 A 
HETATM   33  C   UNL     1      43.599 -20.598   1.739  1.00  0.00     0.037 A 
ENDBRANCH   6  29
TORSDOF 6
ENDMDL
MODEL 7
REMARK VINA RESULT:      -8.2      3.757      4.705
REMARK  6 active torsions:
REMARK  status: ('A' for Active; 'I' for Inactive)
REMARK    1  A    between atoms: C_2  and  O_3 
REMARK    2  A    between atoms: C_2  and  C_4 
REMARK    3  A    between atoms: C_7  and  N_8 
REMARK       I    between atoms: N_8  and  C_9 
REMARK    4  A    between atoms: C_9  and  C_10 
REMARK    5  A    between atoms: C_15  and  C_16 
REMARK    6  A    between atoms: C_22  and  C_23 
ROOT
HETATM    1  C   UNL     1      40.939 -14.839   0.071  1.00  0.00     0.148 A 
HETATM    2  N   UNL     1      40.153 -15.152   1.130  1.00  0.00    -0.165 NA
HETATM    3  N   UNL     1      41.024 -15.680   2.010  1.00  0.00    -0.240 N 
HETATM    4  C   UNL     1      42.296 -15.805   1.531  1.00  0.00     0.123 A 
HETATM    5  N   UNL     1      43.242 -16.457   2.233  1.00  0.00    -0.364 N 
HETATM    6  C   UNL     1      42.916 -17.371   3.337  1.00  0.00     0.143 C 
HETATM    7  C   UNL     1      41.388 -17.558   3.492  1.00  0.00     0.068 C 
HETATM    8  C   UNL     1      40.607 -16.255   3.273  1.00  0.00     0.221 C 
HETATM    9  C   UNL     1      42.299 -15.189   0.310  1.00  0.00     0.089 A 
HETATM   10  H   UNL     1      44.194 -16.544   1.877  1.00  0.00     0.162 HD
ENDROOT
BRANCH   1  11
HETATM   11  C   UNL     1      40.389 -14.287  -1.181  1.00  0.00     0.276 C 
HETATM   12  N   UNL     1      39.011 -14.376  -1.222  1.00  0.00    -0.322 N 
HETATM   13  H   UNL     1      38.603 -14.728  -0.359  1.00  0.00     0.169 HD
HETATM   14  O   UNL     1      41.122 -13.847  -2.059  1.00  0.00    -0.266 OA
BRANCH  12  15
HETATM   15  C   UNL     1      38.157 -14.130  -2.309  1.00  0.00     0.035 A 
HETATM   16  C   UNL     1      37.749 -15.112  -3.212  1.00  0.00     0.030 A 
HETATM   17  C   UNL     1      36.844 -14.807  -4.235  1.00  0.00     0.012 A 
HETATM   18  C   UNL     1      36.332 -13.511  -4.377  1.00  0.00    -0.030 A 
HETATM   19  C   UNL     1      36.769 -12.520  -3.489  1.00  0.00     0.012 A 
HETATM   20  C   UNL     1      37.666 -12.830  -2.461  1.00  0.00     0.030 A 
BRANCH  18  21
HETATM   21  C   UNL     1      35.346 -13.203  -5.483  1.00  0.00     0.147 C 
HETATM   22  C   UNL     1      34.090 -12.521  -4.960  1.00  0.00     0.044 C 
BRANCH  21  23
HETATM   23  O   UNL     1      34.973 -14.400  -6.164  1.00  0.00    -0.391 OA
HETATM   24  H   UNL     1      35.783 -14.758  -6.567  1.00  0.00     0.210 HD
ENDBRANCH  21  23
ENDBRANCH  18  21
ENDBRANCH  12  15
ENDBRANCH   1  11
BRANCH   8  25
HETATM   25  C   UNL     1      40.798 -15.257   4.392  1.00  0.00     0.409 C 
HETATM   26  F   UNL     1      41.766 -14.357   4.115  1.00  0.00    -0.169 F 
HETATM   27  F   UNL     1      39.652 -14.548   4.568  1.00  0.00    -0.169 F 
HETATM   28  F   UNL     1      41.086 -15.822   5.582  1.00  0.00    -0.169 F 
ENDBRANCH   8  25
BRANCH   6  29
HETATM   29  C   UNL     1      43.554 -18.719   3.170  1.00  0.00     0.075 A 
HETATM   30  O   UNL     1      44.244 -19.213   4.237  1.00  0.00    -0.325 OA
HETATM   31  C   UNL     1      44.721 -20.431   3.869  1.00  0.00     0.142 A 
HETATM   32  C   UNL     1      44.343 -20.730   2.581  1.00  0.00     0.027 A 
HETATM   33  C   UNL     1      43.587 -19.624   2.126  1.00  0.00     0.037 A 
ENDBRANCH   6  29
TORSDOF 6
ENDMDL
MODEL 8
REMARK VINA RESULT:      -8.1      3.952      4.175
REMARK  6 active torsions:
REMARK  status: ('A' for Active; 'I' for Inactive)
REMARK    1  A    between atoms: C_2  and  O_3 
REMARK    2  A    between atoms: C_2  and  C_4 
REMARK    3  A    between atoms: C_7  and  N_8 
REMARK       I    between atoms: N_8  and  C_9 
REMARK    4  A    between atoms: C_9  and  C_10 
REMARK    5  A    between atoms: C_15  and  C_16 
REMARK    6  A    between atoms: C_22  and  C_23 
ROOT
HETATM    1  C   UNL     1      41.650 -15.237   1.891  1.00  0.00     0.148 A 
HETATM    2  N   UNL     1      40.874 -15.617   2.935  1.00  0.00    -0.165 NA
HETATM    3  N   UNL     1      41.731 -16.298   3.719  1.00  0.00    -0.240 N 
HETATM    4  C   UNL     1      42.977 -16.451   3.184  1.00  0.00     0.123 A 
HETATM    5  N   UNL     1      43.895 -17.240   3.775  1.00  0.00    -0.364 N 
HETATM    6  C   UNL     1      43.537 -18.251   4.780  1.00  0.00     0.143 C 
HETATM    7  C   UNL     1      42.005 -18.353   4.967  1.00  0.00     0.068 C 
HETATM    8  C   UNL     1      41.310 -16.986   4.923  1.00  0.00     0.221 C 
HETATM    9  C   UNL     1      42.989 -15.700   2.041  1.00  0.00     0.089 A 
HETATM   10  H   UNL     1      44.828 -17.347   3.378  1.00  0.00     0.162 HD
ENDROOT
BRANCH   1  11
HETATM   11  C   UNL     1      41.105 -14.511   0.729  1.00  0.00     0.276 C 
HETATM   12  N   UNL     1      42.081 -14.234  -0.209  1.00  0.00    -0.322 N 
HETATM   13  H   UNL     1      42.985 -14.643   0.015  1.00  0.00     0.169 HD
HETATM   14  O   UNL     1      39.924 -14.188   0.677  1.00  0.00    -0.266 OA
BRANCH  12  15
HETATM   15  C   UNL     1      41.987 -13.410  -1.342  1.00  0.00     0.035 A 
HETATM   16  C   UNL     1      42.508 -12.117  -1.406  1.00  0.00     0.030 A 
HETATM   17  C   UNL     1      42.433 -11.377  -2.592  1.00  0.00     0.012 A 
HETATM   18  C   UNL     1      41.832 -11.915  -3.737  1.00  0.00    -0.030 A 
HETATM   19  C   UNL     1      41.281 -13.201  -3.659  1.00  0.00     0.012 A 
HETATM   20  C   UNL     1      41.366 -13.942  -2.476  1.00  0.00     0.030 A 
BRANCH  18  21
HETATM   21  C   UNL     1      41.771 -11.104  -5.012  1.00  0.00     0.147 C 
HETATM   22  C   UNL     1      42.455  -9.753  -4.869  1.00  0.00     0.044 C 
BRANCH  21  23
HETATM   23  O   UNL     1      40.415 -10.897  -5.405  1.00  0.00    -0.391 OA
HETATM   24  H   UNL     1      39.860 -11.165  -4.652  1.00  0.00     0.210 HD
ENDBRANCH  21  23
ENDBRANCH  18  21
ENDBRANCH  12  15
ENDBRANCH   1  11
BRANCH   8  25
HETATM   25  C   UNL     1      41.600 -16.137   6.140  1.00  0.00     0.409 C 
HETATM   26  F   UNL     1      40.550 -15.358   6.481  1.00  0.00    -0.169 F 
HETATM   27  F   UNL     1      41.845 -16.942   7.207  1.00  0.00    -0.169 F 
HETATM   28  F   UNL     1      42.679 -15.341   6.003  1.00  0.00    -0.169 F 
ENDBRANCH   8  25
BRANCH   6  29
HETATM   29  C   UNL     1      44.076 -19.609   4.440  1.00  0.00     0.075 A 
HETATM   30  O   UNL     1      44.454 -20.403   5.482  1.00  0.00    -0.325 OA
HETATM   31  C   UNL     1      44.894 -21.572   4.949  1.00  0.00     0.142 A 
HETATM   32  C   UNL     1      44.800 -21.544   3.576  1.00  0.00     0.027 A 
HETATM   33  C   UNL     1      44.270 -20.275   3.245  1.00  0.00     0.037 A 
ENDBRANCH   6  29
TORSDOF 6
ENDMDL
MODEL 9
REMARK VINA RESULT:      -8.1      4.877      9.959
REMARK  6 active torsions:
REMARK  status: ('A' for Active; 'I' for Inactive)
REMARK    1  A    between atoms: C_2  and  O_3 
REMARK    2  A    between atoms: C_2  and  C_4 
REMARK    3  A    between atoms: C_7  and  N_8 
REMARK       I    between atoms: N_8  and  C_9 
REMARK    4  A    between atoms: C_9  and  C_10 
REMARK    5  A    between atoms: C_15  and  C_16 
REMARK    6  A    between atoms: C_22  and  C_23 
ROOT
HETATM    1  C   UNL     1      41.167 -15.648   1.337  1.00  0.00     0.148 A 
HETATM    2  N   UNL     1      40.063 -14.867   1.427  1.00  0.00    -0.165 NA
HETATM    3  N   UNL     1      40.168 -14.066   0.350  1.00  0.00    -0.240 N 
HETATM    4  C   UNL     1      41.322 -14.233  -0.360  1.00  0.00     0.123 A 
HETATM    5  N   UNL     1      41.644 -13.401  -1.369  1.00  0.00    -0.364 N 
HETATM    6  C   UNL     1      41.010 -12.085  -1.539  1.00  0.00     0.143 C 
HETATM    7  C   UNL     1      40.046 -11.760  -0.374  1.00  0.00     0.068 C 
HETATM    8  C   UNL     1      39.242 -12.983   0.088  1.00  0.00     0.221 C 
HETATM    9  C   UNL     1      41.952 -15.311   0.198  1.00  0.00     0.089 A 
HETATM   10  H   UNL     1      42.503 -13.531  -1.903  1.00  0.00     0.162 HD
ENDROOT
BRANCH   1  11
HETATM   11  C   UNL     1      41.509 -16.648   2.366  1.00  0.00     0.276 C 
HETATM   12  N   UNL     1      42.799 -17.118   2.217  1.00  0.00    -0.322 N 
HETATM   13  H   UNL     1      43.321 -16.644   1.484  1.00  0.00     0.169 HD
HETATM   14  O   UNL     1      40.689 -17.004   3.204  1.00  0.00    -0.266 OA
BRANCH  12  15
HETATM   15  C   UNL     1      43.412 -18.195   2.879  1.00  0.00     0.035 A 
HETATM   16  C   UNL     1      43.819 -18.155   4.213  1.00  0.00     0.030 A 
HETATM   17  C   UNL     1      44.365 -19.289   4.825  1.00  0.00     0.012 A 
HETATM   18  C   UNL     1      44.518 -20.485   4.113  1.00  0.00    -0.030 A 
HETATM   19  C   UNL     1      44.138 -20.512   2.765  1.00  0.00     0.012 A 
HETATM   20  C   UNL     1      43.583 -19.380   2.158  1.00  0.00     0.030 A 
BRANCH  18  21
HETATM   21  C   UNL     1      45.099 -21.704   4.795  1.00  0.00     0.147 C 
HETATM   22  C   UNL     1      44.819 -22.984   4.023  1.00  0.00     0.044 C 
BRANCH  21  23
HETATM   23  O   UNL     1      44.571 -21.835   6.115  1.00  0.00    -0.391 OA
HETATM   24  H   UNL     1      44.412 -20.933   6.444  1.00  0.00     0.210 HD
ENDBRANCH  21  23
ENDBRANCH  18  21
ENDBRANCH  12  15
ENDBRANCH   1  11
BRANCH   8  25
HETATM   25  C   UNL     1      38.198 -13.417  -0.916  1.00  0.00     0.409 C 
HETATM   26  F   UNL     1      38.682 -14.318  -1.799  1.00  0.00    -0.169 F 
HETATM   27  F   UNL     1      37.170 -14.027  -0.268  1.00  0.00    -0.169 F 
HETATM   28  F   UNL     1      37.660 -12.398  -1.617  1.00  0.00    -0.169 F 
ENDBRANCH   8  25
BRANCH   6  29
HETATM   29  C   UNL     1      42.016 -10.979  -1.658  1.00  0.00     0.075 A 
HETATM   30  O   UNL     1      43.048 -10.984  -0.767  1.00  0.00    -0.325 OA
HETATM   31  C   UNL     1      43.831  -9.913  -1.063  1.00  0.00     0.142 A 
HETATM   32  C   UNL     1      43.320  -9.222  -2.137  1.00  0.00     0.027 A 
HETATM   33  C   UNL     1      42.147  -9.911  -2.525  1.00  0.00     0.037 A 
ENDBRANCH   6  29
TORSDOF 6
ENDMDL
MODEL 10
REMARK VINA RESULT:      -8.0      4.258     10.180
REMARK  6 active torsions:
REMARK  status: ('A' for Active; 'I' for Inactive)
REMARK    1  A    between atoms: C_2  and  O_3 
REMARK    2  A    between atoms: C_2  and  C_4 
REMARK    3  A    between atoms: C_7  and  N_8 
REMARK       I    between atoms: N_8  and  C_9 
REMARK    4  A    between atoms: C_9  and  C_10 
REMARK    5  A    between atoms: C_15  and  C_16 
REMARK    6  A    between atoms: C_22  and  C_23 
ROOT
HETATM    1  C   UNL     1      42.113 -14.859   1.163  1.00  0.00     0.148 A 
HETATM    2  N   UNL     1      41.626 -15.474   0.058  1.00  0.00    -0.165 NA
HETATM    3  N   UNL     1      40.919 -14.500  -0.545  1.00  0.00    -0.240 N 
HETATM    4  C   UNL     1      40.853 -13.336   0.164  1.00  0.00     0.123 A 
HETATM    5  N   UNL     1      40.055 -12.326  -0.232  1.00  0.00    -0.364 N 
HETATM    6  C   UNL     1      38.958 -12.516  -1.192  1.00  0.00     0.143 C 
HETATM    7  C   UNL     1      38.786 -14.006  -1.575  1.00  0.00     0.068 C 
HETATM    8  C   UNL     1      40.126 -14.734  -1.735  1.00  0.00     0.221 C 
HETATM    9  C   UNL     1      41.689 -13.501   1.233  1.00  0.00     0.089 A 
HETATM   10  H   UNL     1      40.012 -11.454   0.294  1.00  0.00     0.162 HD
ENDROOT
BRANCH   1  11
HETATM   11  C   UNL     1      42.907 -15.576   2.179  1.00  0.00     0.276 C 
HETATM   12  N   UNL     1      42.907 -16.940   1.962  1.00  0.00    -0.322 N 
HETATM   13  H   UNL     1      42.434 -17.214   1.104  1.00  0.00     0.169 HD
HETATM   14  O   UNL     1      43.449 -14.979   3.101  1.00  0.00    -0.266 OA
BRANCH  12  15
HETATM   15  C   UNL     1      43.388 -17.953   2.808  1.00  0.00     0.035 A 
HETATM   16  C   UNL     1      43.245 -17.938   4.196  1.00  0.00     0.030 A 
HETATM   17  C   UNL     1      43.693 -19.015   4.970  1.00  0.00     0.012 A 
HETATM   18  C   UNL     1      44.297 -20.127   4.370  1.00  0.00    -0.030 A 
HETATM   19  C   UNL     1      44.469 -20.124   2.980  1.00  0.00     0.012 A 
HETATM   20  C   UNL     1      44.011 -19.051   2.207  1.00  0.00     0.030 A 
BRANCH  18  21
HETATM   21  C   UNL     1      44.765 -21.286   5.222  1.00  0.00     0.147 C 
HETATM   22  C   UNL     1      44.697 -22.611   4.478  1.00  0.00     0.044 C 
BRANCH  21  23
HETATM   23  O   UNL     1      43.978 -21.381   6.409  1.00  0.00    -0.391 OA
HETATM   24  H   UNL     1      43.086 -21.068   6.179  1.00  0.00     0.210 HD
ENDBRANCH  21  23
ENDBRANCH  18  21
ENDBRANCH  12  15
ENDBRANCH   1  11
BRANCH   8  25
HETATM   25  C   UNL     1      40.889 -14.302  -2.967  1.00  0.00     0.409 C 
HETATM   26  F   UNL     1      41.897 -13.452  -2.671  1.00  0.00    -0.169 F 
HETATM   27  F   UNL     1      41.460 -15.388  -3.552  1.00  0.00    -0.169 F 
HETATM   28  F   UNL     1      40.119 -13.719  -3.907  1.00  0.00    -0.169 F 
ENDBRANCH   8  25
BRANCH   6  29
HETATM   29  C   UNL     1      37.650 -11.995  -0.673  1.00  0.00     0.075 A 
HETATM   30  O   UNL     1      36.830 -11.378  -1.572  1.00  0.00    -0.325 OA
HETATM   31  C   UNL     1      35.714 -11.001  -0.894  1.00  0.00     0.142 A 
HETATM   32  C   UNL     1      35.802 -11.372   0.427  1.00  0.00     0.027 A 
HETATM   33  C   UNL     1      37.053 -12.016   0.573  1.00  0.00     0.037 A 
ENDBRANCH   6  29
TORSDOF 6
ENDMDL
