MODEL 1
REMARK VINA RESULT:      -9.8      0.000      0.000
REMARK  5 active torsions:
REMARK  status: ('A' for Active; 'I' for Inactive)
REMARK    1  A    between atoms: C_7  and  C_8 
REMARK    2  A    between atoms: C_16  and  C_17 
REMARK    3  A    between atoms: C_20  and  O_21 
REMARK    4  A    between atoms: C_24  and  C_25 
REMARK       I    between atoms: C_25  and  N_26 
REMARK    5  A    between atoms: N_26  and  C_27 
ROOT
HETATM    1  C   UNL     1      40.327 -13.921  -1.307  1.00  0.00     0.070 C 
HETATM    2  C   UNL     1      40.609 -14.705  -0.048  1.00  0.00     0.037 C 
HETATM    3  N   UNL     1      41.720 -15.547  -0.097  1.00  0.00    -0.192 N 
HETATM    4  C   UNL     1      41.971 -16.477   0.846  1.00  0.00     0.726 A 
HETATM    5  N   UNL     1      41.226 -16.481   1.987  1.00  0.00    -0.083 N 
HETATM    6  N   UNL     1      41.563 -17.498   2.802  1.00  0.00    -0.135 NA
HETATM    7  C   UNL     1      42.557 -18.075   2.099  1.00  0.00     0.200 A 
HETATM    8  N   UNL     1      42.834 -17.456   0.894  1.00  0.00    -0.041 NA
HETATM    9  C   UNL     1      40.221 -15.467   2.311  1.00  0.00     0.202 C 
HETATM   10  C   UNL     1      39.856 -14.640   1.082  1.00  0.00     0.062 C 
HETATM   11  H   UNL     1      42.190 -15.641  -0.994  1.00  0.00     0.184 HD
ENDROOT
BRANCH  10  12
HETATM   12  C   UNL     1      38.537 -13.939   1.075  1.00  0.00     0.256 C 
HETATM   13  N   UNL     1      38.612 -12.574   1.241  1.00  0.00    -0.323 N 
HETATM   14  H   UNL     1      39.525 -12.146   1.312  1.00  0.00     0.169 HD
HETATM   15  O   UNL     1      37.511 -14.602   0.967  1.00  0.00    -0.267 OA
BRANCH  13  16
HETATM   16  C   UNL     1      37.538 -11.663   1.335  1.00  0.00     0.035 A 
HETATM   17  C   UNL     1      36.384 -11.726   0.552  1.00  0.00     0.029 A 
HETATM   18  C   UNL     1      35.367 -10.779   0.712  1.00  0.00     0.002 A 
HETATM   19  C   UNL     1      35.491  -9.767   1.662  1.00  0.00     0.000 A 
HETATM   20  C   UNL     1      36.637  -9.696   2.448  1.00  0.00     0.002 A 
HETATM   21  C   UNL     1      37.658 -10.635   2.280  1.00  0.00     0.029 A 
ENDBRANCH  13  16
ENDBRANCH  10  12
BRANCH   9  22
HETATM   22  C   UNL     1      40.746 -14.625   3.476  1.00  0.00    -0.028 A 
HETATM   23  C   UNL     1      41.871 -13.788   3.337  1.00  0.00     0.012 A 
HETATM   24  C   UNL     1      42.335 -13.030   4.414  1.00  0.00     0.037 A 
HETATM   25  C   UNL     1      41.684 -13.112   5.638  1.00  0.00     0.065 A 
HETATM   26  C   UNL     1      40.581 -13.940   5.804  1.00  0.00     0.037 A 
HETATM   27  C   UNL     1      40.113 -14.697   4.729  1.00  0.00     0.012 A 
BRANCH  25  28
HETATM   28  O   UNL     1      42.108 -12.396   6.717  1.00  0.00    -0.361 OA
HETATM   29  H   UNL     1      42.661 -11.660   6.407  1.00  0.00     0.217 HD
ENDBRANCH  25  28
ENDBRANCH   9  22
BRANCH   7  30
HETATM   30  C   UNL     1      43.333 -19.195   2.613  1.00  0.00     0.036 A 
HETATM   31  C   UNL     1      44.002 -19.166   3.845  1.00  0.00     0.048 A 
HETATM   32 CL   UNL     1      44.048 -17.769   4.865  1.00  0.00    -0.083 Cl
HETATM   33  C   UNL     1      44.718 -20.289   4.283  1.00  0.00     0.025 A 
HETATM   34  C   UNL     1      44.776 -21.444   3.502  1.00  0.00     0.002 A 
HETATM   35  C   UNL     1      44.125 -21.481   2.273  1.00  0.00     0.001 A 
HETATM   36  C   UNL     1      43.412 -20.365   1.832  1.00  0.00     0.017 A 
ENDBRANCH   7  30
TORSDOF 5
ENDMDL
MODEL 2
REMARK VINA RESULT:      -9.4      3.674      8.497
REMARK  5 active torsions:
REMARK  status: ('A' for Active; 'I' for Inactive)
REMARK    1  A    between atoms: C_7  and  C_8 
REMARK    2  A    between atoms: C_16  and  C_17 
REMARK    3  A    between atoms: C_20  and  O_21 
REMARK    4  A    between atoms: C_24  and  C_25 
REMARK       I    between atoms: C_25  and  N_26 
REMARK    5  A    between atoms: N_26  and  C_27 
ROOT
HETATM    1  C   UNL     1      39.835 -16.879   1.942  1.00  0.00     0.070 C 
HETATM    2  C   UNL     1      40.629 -15.958   2.837  1.00  0.00     0.037 C 
HETATM    3  N   UNL     1      39.956 -14.819   3.280  1.00  0.00    -0.192 N 
HETATM    4  C   UNL     1      40.585 -13.792   3.886  1.00  0.00     0.726 A 
HETATM    5  N   UNL     1      41.890 -13.937   4.251  1.00  0.00    -0.083 N 
HETATM    6  N   UNL     1      42.385 -12.810   4.795  1.00  0.00    -0.135 NA
HETATM    7  C   UNL     1      41.306 -12.006   4.756  1.00  0.00     0.200 A 
HETATM    8  N   UNL     1      40.179 -12.594   4.210  1.00  0.00    -0.041 NA
HETATM    9  C   UNL     1      42.642 -15.186   4.120  1.00  0.00     0.202 C 
HETATM   10  C   UNL     1      41.919 -16.172   3.206  1.00  0.00     0.062 C 
HETATM   11  H   UNL     1      39.030 -14.649   2.895  1.00  0.00     0.184 HD
ENDROOT
BRANCH  10  12
HETATM   12  C   UNL     1      42.727 -17.244   2.553  1.00  0.00     0.256 C 
HETATM   13  N   UNL     1      42.662 -18.471   3.177  1.00  0.00    -0.323 N 
HETATM   14  H   UNL     1      42.059 -18.571   3.982  1.00  0.00     0.169 HD
HETATM   15  O   UNL     1      43.402 -16.965   1.568  1.00  0.00    -0.267 OA
BRANCH  13  16
HETATM   16  C   UNL     1      43.360 -19.647   2.826  1.00  0.00     0.035 A 
HETATM   17  C   UNL     1      43.033 -20.460   1.740  1.00  0.00     0.029 A 
HETATM   18  C   UNL     1      43.779 -21.610   1.465  1.00  0.00     0.002 A 
HETATM   19  C   UNL     1      44.865 -21.952   2.268  1.00  0.00     0.000 A 
HETATM   20  C   UNL     1      45.201 -21.148   3.353  1.00  0.00     0.002 A 
HETATM   21  C   UNL     1      44.448 -20.006   3.635  1.00  0.00     0.029 A 
ENDBRANCH  13  16
ENDBRANCH  10  12
BRANCH   9  22
HETATM   22  C   UNL     1      42.905 -15.739   5.523  1.00  0.00    -0.028 A 
HETATM   23  C   UNL     1      44.022 -15.335   6.281  1.00  0.00     0.012 A 
HETATM   24  C   UNL     1      44.244 -15.854   7.558  1.00  0.00     0.037 A 
HETATM   25  C   UNL     1      43.356 -16.787   8.080  1.00  0.00     0.065 A 
HETATM   26  C   UNL     1      42.255 -17.211   7.347  1.00  0.00     0.037 A 
HETATM   27  C   UNL     1      42.029 -16.693   6.071  1.00  0.00     0.012 A 
BRANCH  25  28
HETATM   28  O   UNL     1      43.539 -17.325   9.319  1.00  0.00    -0.361 OA
HETATM   29  H   UNL     1      44.452 -17.156   9.602  1.00  0.00     0.217 HD
ENDBRANCH  25  28
ENDBRANCH   9  22
BRANCH   7  30
HETATM   30  C   UNL     1      41.304 -10.666   5.328  1.00  0.00     0.036 A 
HETATM   31  C   UNL     1      41.087  -9.507   4.570  1.00  0.00     0.048 A 
HETATM   32 CL   UNL     1      40.873  -9.524   2.853  1.00  0.00    -0.083 Cl
HETATM   33  C   UNL     1      41.085  -8.250   5.193  1.00  0.00     0.025 A 
HETATM   34  C   UNL     1      41.298  -8.137   6.566  1.00  0.00     0.002 A 
HETATM   35  C   UNL     1      41.523  -9.280   7.327  1.00  0.00     0.001 A 
HETATM   36  C   UNL     1      41.529 -10.533   6.713  1.00  0.00     0.017 A 
ENDBRANCH   7  30
TORSDOF 5
ENDMDL
MODEL 3
REMARK VINA RESULT:      -9.0      3.316      8.155
REMARK  5 active torsions:
REMARK  status: ('A' for Active; 'I' for Inactive)
REMARK    1  A    between atoms: C_7  and  C_8 
REMARK    2  A    between atoms: C_16  and  C_17 
REMARK    3  A    between atoms: C_20  and  O_21 
REMARK    4  A    between atoms: C_24  and  C_25 
REMARK       I    between atoms: C_25  and  N_26 
REMARK    5  A    between atoms: N_26  and  C_27 
ROOT
HETATM    1  C   UNL     1      40.522 -18.036   0.776  1.00  0.00     0.070 C 
HETATM    2  C   UNL     1      41.040 -16.682   1.199  1.00  0.00     0.037 C 
HETATM    3  N   UNL     1      40.726 -15.622   0.349  1.00  0.00    -0.192 N 
HETATM    4  C   UNL     1      41.300 -14.407   0.456  1.00  0.00     0.726 A 
HETATM    5  N   UNL     1      42.078 -14.136   1.542  1.00  0.00    -0.083 N 
HETATM    6  N   UNL     1      42.618 -12.906   1.476  1.00  0.00    -0.135 NA
HETATM    7  C   UNL     1      42.101 -12.457   0.316  1.00  0.00     0.200 A 
HETATM    8  N   UNL     1      41.276 -13.363  -0.326  1.00  0.00    -0.041 NA
HETATM    9  C   UNL     1      42.256 -15.053   2.670  1.00  0.00     0.202 C 
HETATM   10  C   UNL     1      41.778 -16.459   2.319  1.00  0.00     0.062 C 
HETATM   11  H   UNL     1      40.262 -15.853  -0.527  1.00  0.00     0.184 HD
ENDROOT
BRANCH  10  12
HETATM   12  C   UNL     1      42.328 -17.603   3.105  1.00  0.00     0.256 C 
HETATM   13  N   UNL     1      43.134 -18.458   2.386  1.00  0.00    -0.323 N 
HETATM   14  H   UNL     1      43.328 -18.238   1.419  1.00  0.00     0.169 HD
HETATM   15  O   UNL     1      42.007 -17.726   4.282  1.00  0.00    -0.267 OA
BRANCH  13  16
HETATM   16  C   UNL     1      43.741 -19.648   2.842  1.00  0.00     0.035 A 
HETATM   17  C   UNL     1      44.417 -19.769   4.058  1.00  0.00     0.029 A 
HETATM   18  C   UNL     1      44.991 -20.989   4.431  1.00  0.00     0.002 A 
HETATM   19  C   UNL     1      44.885 -22.100   3.597  1.00  0.00     0.000 A 
HETATM   20  C   UNL     1      44.212 -21.990   2.384  1.00  0.00     0.002 A 
HETATM   21  C   UNL     1      43.650 -20.769   2.005  1.00  0.00     0.029 A 
ENDBRANCH  13  16
ENDBRANCH  10  12
BRANCH   9  22
HETATM   22  C   UNL     1      41.548 -14.458   3.889  1.00  0.00    -0.028 A 
HETATM   23  C   UNL     1      42.257 -13.772   4.896  1.00  0.00     0.012 A 
HETATM   24  C   UNL     1      41.591 -13.238   6.001  1.00  0.00     0.037 A 
HETATM   25  C   UNL     1      40.216 -13.398   6.113  1.00  0.00     0.065 A 
HETATM   26  C   UNL     1      39.497 -14.081   5.140  1.00  0.00     0.037 A 
HETATM   27  C   UNL     1      40.159 -14.613   4.033  1.00  0.00     0.012 A 
BRANCH  25  28
HETATM   28  O   UNL     1      39.527 -12.900   7.178  1.00  0.00    -0.361 OA
HETATM   29  H   UNL     1      40.156 -12.482   7.789  1.00  0.00     0.217 HD
ENDBRANCH  25  28
ENDBRANCH   9  22
BRANCH   7  30
HETATM   30  C   UNL     1      42.321 -11.101  -0.168  1.00  0.00     0.036 A 
HETATM   31  C   UNL     1      41.699  -9.976   0.392  1.00  0.00     0.048 A 
HETATM   32 CL   UNL     1      40.540 -10.072   1.673  1.00  0.00    -0.083 Cl
HETATM   33  C   UNL     1      41.969  -8.697  -0.117  1.00  0.00     0.025 A 
HETATM   34  C   UNL     1      42.854  -8.528  -1.182  1.00  0.00     0.002 A 
HETATM   35  C   UNL     1      43.470  -9.639  -1.752  1.00  0.00     0.001 A 
HETATM   36  C   UNL     1      43.202 -10.913  -1.251  1.00  0.00     0.017 A 
ENDBRANCH   7  30
TORSDOF 5
ENDMDL
MODEL 4
REMARK VINA RESULT:      -9.0      1.515      2.128
REMARK  5 active torsions:
REMARK  status: ('A' for Active; 'I' for Inactive)
REMARK    1  A    between atoms: C_7  and  C_8 
REMARK    2  A    between atoms: C_16  and  C_17 
REMARK    3  A    between atoms: C_20  and  O_21 
REMARK    4  A    between atoms: C_24  and  C_25 
REMARK       I    between atoms: C_25  and  N_26 
REMARK    5  A    between atoms: N_26  and  C_27 
ROOT
HETATM    1  C   UNL     1      41.311 -15.155  -0.794  1.00  0.00     0.070 C 
HETATM    2  C   UNL     1      41.534 -15.862   0.521  1.00  0.00     0.037 C 
HETATM    3  N   UNL     1      42.576 -16.790   0.538  1.00  0.00    -0.192 N 
HETATM    4  C   UNL     1      42.756 -17.664   1.549  1.00  0.00     0.726 A 
HETATM    5  N   UNL     1      42.016 -17.524   2.685  1.00  0.00    -0.083 N 
HETATM    6  N   UNL     1      42.275 -18.500   3.574  1.00  0.00    -0.135 NA
HETATM    7  C   UNL     1      43.219 -19.203   2.920  1.00  0.00     0.200 A 
HETATM    8  N   UNL     1      43.540 -18.700   1.672  1.00  0.00    -0.041 NA
HETATM    9  C   UNL     1      41.094 -16.413   2.929  1.00  0.00     0.202 C 
HETATM   10  C   UNL     1      40.792 -15.654   1.640  1.00  0.00     0.062 C 
HETATM   11  H   UNL     1      43.035 -16.987  -0.348  1.00  0.00     0.184 HD
ENDROOT
BRANCH  10  12
HETATM   12  C   UNL     1      39.531 -14.855   1.576  1.00  0.00     0.256 C 
HETATM   13  N   UNL     1      39.718 -13.490   1.561  1.00  0.00    -0.323 N 
HETATM   14  H   UNL     1      40.664 -13.133   1.551  1.00  0.00     0.169 HD
HETATM   15  O   UNL     1      38.454 -15.441   1.582  1.00  0.00    -0.267 OA
BRANCH  13  16
HETATM   16  C   UNL     1      38.722 -12.490   1.563  1.00  0.00     0.035 A 
HETATM   17  C   UNL     1      37.699 -12.398   0.618  1.00  0.00     0.029 A 
HETATM   18  C   UNL     1      36.752 -11.372   0.696  1.00  0.00     0.002 A 
HETATM   19  C   UNL     1      36.813 -10.435   1.726  1.00  0.00     0.000 A 
HETATM   20  C   UNL     1      37.829 -10.519   2.675  1.00  0.00     0.002 A 
HETATM   21  C   UNL     1      38.781 -11.537   2.589  1.00  0.00     0.029 A 
ENDBRANCH  13  16
ENDBRANCH  10  12
BRANCH   9  22
HETATM   22  C   UNL     1      41.686 -15.529   4.029  1.00  0.00    -0.028 A 
HETATM   23  C   UNL     1      40.972 -15.235   5.207  1.00  0.00     0.012 A 
HETATM   24  C   UNL     1      41.531 -14.424   6.198  1.00  0.00     0.037 A 
HETATM   25  C   UNL     1      42.802 -13.895   6.010  1.00  0.00     0.065 A 
HETATM   26  C   UNL     1      43.521 -14.160   4.852  1.00  0.00     0.037 A 
HETATM   27  C   UNL     1      42.966 -14.972   3.861  1.00  0.00     0.012 A 
BRANCH  25  28
HETATM   28  O   UNL     1      43.382 -13.093   6.948  1.00  0.00    -0.361 OA
HETATM   29  H   UNL     1      43.605 -12.242   6.536  1.00  0.00     0.217 HD
ENDBRANCH  25  28
ENDBRANCH   9  22
BRANCH   7  30
HETATM   30  C   UNL     1      43.906 -20.340   3.519  1.00  0.00     0.036 A 
HETATM   31  C   UNL     1      44.170 -21.530   2.826  1.00  0.00     0.048 A 
HETATM   32 CL   UNL     1      43.643 -21.820   1.204  1.00  0.00    -0.083 Cl
HETATM   33  C   UNL     1      44.851 -22.578   3.463  1.00  0.00     0.025 A 
HETATM   34  C   UNL     1      45.271 -22.451   4.788  1.00  0.00     0.002 A 
HETATM   35  C   UNL     1      45.006 -21.278   5.488  1.00  0.00     0.001 A 
HETATM   36  C   UNL     1      44.327 -20.234   4.859  1.00  0.00     0.017 A 
ENDBRANCH   7  30
TORSDOF 5
ENDMDL
MODEL 5
REMARK VINA RESULT:      -8.7      3.387      8.937
REMARK  5 active torsions:
REMARK  status: ('A' for Active; 'I' for Inactive)
REMARK    1  A    between atoms: C_7  and  C_8 
REMARK    2  A    between atoms: C_16  and  C_17 
REMARK    3  A    between atoms: C_20  and  O_21 
REMARK    4  A    between atoms: C_24  and  C_25 
REMARK       I    between atoms: C_25  and  N_26 
REMARK    5  A    between atoms: N_26  and  C_27 
ROOT
HETATM    1  C   UNL     1      44.697 -16.168   6.341  1.00  0.00     0.070 C 
HETATM    2  C   UNL     1      43.523 -15.430   5.744  1.00  0.00     0.037 C 
HETATM    3  N   UNL     1      43.389 -14.096   6.129  1.00  0.00    -0.192 N 
HETATM    4  C   UNL     1      42.280 -13.373   5.875  1.00  0.00     0.726 A 
HETATM    5  N   UNL     1      41.324 -13.892   5.054  1.00  0.00    -0.083 N 
HETATM    6  N   UNL     1      40.261 -13.074   4.943  1.00  0.00    -0.135 NA
HETATM    7  C   UNL     1      40.647 -12.041   5.716  1.00  0.00     0.200 A 
HETATM    8  N   UNL     1      41.894 -12.198   6.293  1.00  0.00    -0.041 NA
HETATM    9  C   UNL     1      41.465 -15.160   4.334  1.00  0.00     0.202 C 
HETATM   10  C   UNL     1      42.620 -15.985   4.892  1.00  0.00     0.062 C 
HETATM   11  H   UNL     1      44.025 -13.756   6.846  1.00  0.00     0.184 HD
ENDROOT
BRANCH  10  12
HETATM   12  C   UNL     1      42.603 -17.461   4.662  1.00  0.00     0.256 C 
HETATM   13  N   UNL     1      43.595 -17.921   3.824  1.00  0.00    -0.323 N 
HETATM   14  H   UNL     1      44.271 -17.260   3.468  1.00  0.00     0.169 HD
HETATM   15  O   UNL     1      41.718 -18.134   5.178  1.00  0.00    -0.267 OA
BRANCH  13  16
HETATM   16  C   UNL     1      43.792 -19.246   3.379  1.00  0.00     0.035 A 
HETATM   17  C   UNL     1      43.317 -19.746   2.165  1.00  0.00     0.029 A 
HETATM   18  C   UNL     1      43.558 -21.075   1.802  1.00  0.00     0.002 A 
HETATM   19  C   UNL     1      44.285 -21.912   2.645  1.00  0.00     0.000 A 
HETATM   20  C   UNL     1      44.765 -21.424   3.857  1.00  0.00     0.002 A 
HETATM   21  C   UNL     1      44.514 -20.100   4.224  1.00  0.00     0.029 A 
ENDBRANCH  13  16
ENDBRANCH  10  12
BRANCH   9  22
HETATM   22  C   UNL     1      41.603 -14.852   2.842  1.00  0.00    -0.028 A 
HETATM   23  C   UNL     1      42.093 -13.613   2.383  1.00  0.00     0.012 A 
HETATM   24  C   UNL     1      42.210 -13.353   1.016  1.00  0.00     0.037 A 
HETATM   25  C   UNL     1      41.826 -14.325   0.100  1.00  0.00     0.065 A 
HETATM   26  C   UNL     1      41.327 -15.549   0.528  1.00  0.00     0.037 A 
HETATM   27  C   UNL     1      41.212 -15.813   1.893  1.00  0.00     0.012 A 
BRANCH  25  28
HETATM   28  O   UNL     1      41.915 -14.109  -1.243  1.00  0.00    -0.361 OA
HETATM   29  H   UNL     1      41.802 -14.957  -1.703  1.00  0.00     0.217 HD
ENDBRANCH  25  28
ENDBRANCH   9  22
BRANCH   7  30
HETATM   30  C   UNL     1      39.857 -10.824   5.851  1.00  0.00     0.036 A 
HETATM   31  C   UNL     1      39.578 -10.223   7.087  1.00  0.00     0.048 A 
HETATM   32 CL   UNL     1      40.075 -10.895   8.602  1.00  0.00    -0.083 Cl
HETATM   33  C   UNL     1      38.822  -9.042   7.139  1.00  0.00     0.025 A 
HETATM   34  C   UNL     1      38.339  -8.456   5.970  1.00  0.00     0.002 A 
HETATM   35  C   UNL     1      38.601  -9.049   4.739  1.00  0.00     0.001 A 
HETATM   36  C   UNL     1      39.351 -10.225   4.681  1.00  0.00     0.017 A 
ENDBRANCH   7  30
TORSDOF 5
ENDMDL
MODEL 6
REMARK VINA RESULT:      -8.6      3.386      8.968
REMARK  5 active torsions:
REMARK  status: ('A' for Active; 'I' for Inactive)
REMARK    1  A    between atoms: C_7  and  C_8 
REMARK    2  A    between atoms: C_16  and  C_17 
REMARK    3  A    between atoms: C_20  and  O_21 
REMARK    4  A    between atoms: C_24  and  C_25 
REMARK       I    between atoms: C_25  and  N_26 
REMARK    5  A    between atoms: N_26  and  C_27 
ROOT
HETATM    1  C   UNL     1      44.682 -16.154   6.349  1.00  0.00     0.070 C 
HETATM    2  C   UNL     1      43.513 -15.413   5.746  1.00  0.00     0.037 C 
HETATM    3  N   UNL     1      43.379 -14.079   6.130  1.00  0.00    -0.192 N 
HETATM    4  C   UNL     1      42.273 -13.354   5.870  1.00  0.00     0.726 A 
HETATM    5  N   UNL     1      41.321 -13.871   5.044  1.00  0.00    -0.083 N 
HETATM    6  N   UNL     1      40.261 -13.051   4.927  1.00  0.00    -0.135 NA
HETATM    7  C   UNL     1      40.645 -12.018   5.702  1.00  0.00     0.200 A 
HETATM    8  N   UNL     1      41.888 -12.177   6.286  1.00  0.00    -0.041 NA
HETATM    9  C   UNL     1      41.463 -15.139   4.325  1.00  0.00     0.202 C 
HETATM   10  C   UNL     1      42.614 -15.967   4.889  1.00  0.00     0.062 C 
HETATM   11  H   UNL     1      44.012 -13.740   6.850  1.00  0.00     0.184 HD
ENDROOT
BRANCH  10  12
HETATM   12  C   UNL     1      42.595 -17.442   4.658  1.00  0.00     0.256 C 
HETATM   13  N   UNL     1      43.583 -17.903   3.817  1.00  0.00    -0.323 N 
HETATM   14  H   UNL     1      44.258 -17.242   3.458  1.00  0.00     0.169 HD
HETATM   15  O   UNL     1      41.712 -18.115   5.179  1.00  0.00    -0.267 OA
BRANCH  13  16
HETATM   16  C   UNL     1      43.778 -19.228   3.370  1.00  0.00     0.035 A 
HETATM   17  C   UNL     1      43.291 -19.729   2.162  1.00  0.00     0.029 A 
HETATM   18  C   UNL     1      43.530 -21.058   1.798  1.00  0.00     0.002 A 
HETATM   19  C   UNL     1      44.267 -21.894   2.633  1.00  0.00     0.000 A 
HETATM   20  C   UNL     1      44.758 -21.404   3.840  1.00  0.00     0.002 A 
HETATM   21  C   UNL     1      44.509 -20.081   4.209  1.00  0.00     0.029 A 
ENDBRANCH  13  16
ENDBRANCH  10  12
BRANCH   9  22
HETATM   22  C   UNL     1      41.610 -14.832   2.833  1.00  0.00    -0.028 A 
HETATM   23  C   UNL     1      42.081 -13.584   2.377  1.00  0.00     0.012 A 
HETATM   24  C   UNL     1      42.206 -13.324   1.010  1.00  0.00     0.037 A 
HETATM   25  C   UNL     1      41.849 -14.305   0.093  1.00  0.00     0.065 A 
HETATM   26  C   UNL     1      41.370 -15.537   0.518  1.00  0.00     0.037 A 
HETATM   27  C   UNL     1      41.246 -15.801   1.883  1.00  0.00     0.012 A 
BRANCH  25  28
HETATM   28  O   UNL     1      41.947 -14.091  -1.250  1.00  0.00    -0.361 OA
HETATM   29  H   UNL     1      42.863 -13.845  -1.461  1.00  0.00     0.217 HD
ENDBRANCH  25  28
ENDBRANCH   9  22
BRANCH   7  30
HETATM   30  C   UNL     1      39.856 -10.800   5.833  1.00  0.00     0.036 A 
HETATM   31  C   UNL     1      39.290 -10.130   4.739  1.00  0.00     0.048 A 
HETATM   32 CL   UNL     1      39.525 -10.626   3.098  1.00  0.00    -0.083 Cl
HETATM   33  C   UNL     1      38.530  -8.969   4.943  1.00  0.00     0.025 A 
HETATM   34  C   UNL     1      38.328  -8.468   6.229  1.00  0.00     0.002 A 
HETATM   35  C   UNL     1      38.893  -9.120   7.321  1.00  0.00     0.001 A 
HETATM   36  C   UNL     1      39.653 -10.273   7.124  1.00  0.00     0.017 A 
ENDBRANCH   7  30
TORSDOF 5
ENDMDL
MODEL 7
REMARK VINA RESULT:      -8.6      1.289      1.839
REMARK  5 active torsions:
REMARK  status: ('A' for Active; 'I' for Inactive)
REMARK    1  A    between atoms: C_7  and  C_8 
REMARK    2  A    between atoms: C_16  and  C_17 
REMARK    3  A    between atoms: C_20  and  O_21 
REMARK    4  A    between atoms: C_24  and  C_25 
REMARK       I    between atoms: C_25  and  N_26 
REMARK    5  A    between atoms: N_26  and  C_27 
ROOT
HETATM    1  C   UNL     1      40.848 -14.645  -1.340  1.00  0.00     0.070 C 
HETATM    2  C   UNL     1      41.060 -15.263   0.021  1.00  0.00     0.037 C 
HETATM    3  N   UNL     1      42.196 -16.061   0.152  1.00  0.00    -0.192 N 
HETATM    4  C   UNL     1      42.405 -16.862   1.216  1.00  0.00     0.726 A 
HETATM    5  N   UNL     1      41.577 -16.761   2.294  1.00  0.00    -0.083 N 
HETATM    6  N   UNL     1      41.884 -17.661   3.246  1.00  0.00    -0.135 NA
HETATM    7  C   UNL     1      42.945 -18.276   2.690  1.00  0.00     0.200 A 
HETATM    8  N   UNL     1      43.292 -17.794   1.442  1.00  0.00    -0.041 NA
HETATM    9  C   UNL     1      40.519 -15.756   2.422  1.00  0.00     0.202 C 
HETATM   10  C   UNL     1      40.222 -15.095   1.079  1.00  0.00     0.062 C 
HETATM   11  H   UNL     1      42.735 -16.241  -0.692  1.00  0.00     0.184 HD
ENDROOT
BRANCH  10  12
HETATM   12  C   UNL     1      38.887 -14.453   0.894  1.00  0.00     0.256 C 
HETATM   13  N   UNL     1      38.907 -13.290   0.156  1.00  0.00    -0.323 N 
HETATM   14  H   UNL     1      39.787 -12.982  -0.235  1.00  0.00     0.169 HD
HETATM   15  O   UNL     1      37.904 -14.959   1.425  1.00  0.00    -0.267 OA
BRANCH  13  16
HETATM   16  C   UNL     1      37.817 -12.440  -0.131  1.00  0.00     0.035 A 
HETATM   17  C   UNL     1      36.987 -11.874   0.838  1.00  0.00     0.029 A 
HETATM   18  C   UNL     1      35.927 -11.041   0.464  1.00  0.00     0.002 A 
HETATM   19  C   UNL     1      35.696 -10.758  -0.881  1.00  0.00     0.000 A 
HETATM   20  C   UNL     1      36.519 -11.316  -1.855  1.00  0.00     0.002 A 
HETATM   21  C   UNL     1      37.570 -12.157  -1.482  1.00  0.00     0.029 A 
ENDBRANCH  13  16
ENDBRANCH  10  12
BRANCH   9  22
HETATM   22  C   UNL     1      40.930 -14.762   3.510  1.00  0.00    -0.028 A 
HETATM   23  C   UNL     1      42.022 -13.888   3.341  1.00  0.00     0.012 A 
HETATM   24  C   UNL     1      42.381 -12.990   4.349  1.00  0.00     0.037 A 
HETATM   25  C   UNL     1      41.658 -12.970   5.535  1.00  0.00     0.065 A 
HETATM   26  C   UNL     1      40.586 -13.832   5.731  1.00  0.00     0.037 A 
HETATM   27  C   UNL     1      40.223 -14.728   4.725  1.00  0.00     0.012 A 
BRANCH  25  28
HETATM   28  O   UNL     1      41.979 -12.116   6.548  1.00  0.00    -0.361 OA
HETATM   29  H   UNL     1      41.404 -11.335   6.492  1.00  0.00     0.217 HD
ENDBRANCH  25  28
ENDBRANCH   9  22
BRANCH   7  30
HETATM   30  C   UNL     1      43.714 -19.297   3.389  1.00  0.00     0.036 A 
HETATM   31  C   UNL     1      43.862 -20.608   2.913  1.00  0.00     0.048 A 
HETATM   32 CL   UNL     1      43.086 -21.190   1.481  1.00  0.00    -0.083 Cl
HETATM   33  C   UNL     1      44.631 -21.534   3.633  1.00  0.00     0.025 A 
HETATM   34  C   UNL     1      45.255 -21.166   4.825  1.00  0.00     0.002 A 
HETATM   35  C   UNL     1      45.107 -19.871   5.312  1.00  0.00     0.001 A 
HETATM   36  C   UNL     1      44.341 -18.946   4.601  1.00  0.00     0.017 A 
ENDBRANCH   7  30
TORSDOF 5
ENDMDL
MODEL 8
REMARK VINA RESULT:      -8.5      3.386      7.948
REMARK  5 active torsions:
REMARK  status: ('A' for Active; 'I' for Inactive)
REMARK    1  A    between atoms: C_7  and  C_8 
REMARK    2  A    between atoms: C_16  and  C_17 
REMARK    3  A    between atoms: C_20  and  O_21 
REMARK    4  A    between atoms: C_24  and  C_25 
REMARK       I    between atoms: C_25  and  N_26 
REMARK    5  A    between atoms: N_26  and  C_27 
ROOT
HETATM    1  C   UNL     1      40.788 -17.717   1.110  1.00  0.00     0.070 C 
HETATM    2  C   UNL     1      41.030 -16.233   0.978  1.00  0.00     0.037 C 
HETATM    3  N   UNL     1      40.903 -15.713  -0.309  1.00  0.00    -0.192 N 
HETATM    4  C   UNL     1      41.309 -14.469  -0.635  1.00  0.00     0.726 A 
HETATM    5  N   UNL     1      41.687 -13.615   0.356  1.00  0.00    -0.083 N 
HETATM    6  N   UNL     1      42.113 -12.436  -0.134  1.00  0.00    -0.135 NA
HETATM    7  C   UNL     1      41.943 -12.628  -1.456  1.00  0.00     0.200 A 
HETATM    8  N   UNL     1      41.437 -13.872  -1.789  1.00  0.00    -0.041 NA
HETATM    9  C   UNL     1      41.587 -13.923   1.785  1.00  0.00     0.202 C 
HETATM   10  C   UNL     1      41.365 -15.416   2.012  1.00  0.00     0.062 C 
HETATM   11  H   UNL     1      40.755 -16.378  -1.065  1.00  0.00     0.184 HD
ENDROOT
BRANCH  10  12
HETATM   12  C   UNL     1      41.742 -15.986   3.339  1.00  0.00     0.256 C 
HETATM   13  N   UNL     1      43.049 -16.412   3.429  1.00  0.00    -0.323 N 
HETATM   14  H   UNL     1      43.656 -16.277   2.633  1.00  0.00     0.169 HD
HETATM   15  O   UNL     1      40.888 -16.073   4.214  1.00  0.00    -0.267 OA
BRANCH  13  16
HETATM   16  C   UNL     1      43.669 -17.044   4.529  1.00  0.00     0.035 A 
HETATM   17  C   UNL     1      43.842 -16.450   5.780  1.00  0.00     0.029 A 
HETATM   18  C   UNL     1      44.470 -17.150   6.816  1.00  0.00     0.002 A 
HETATM   19  C   UNL     1      44.921 -18.452   6.613  1.00  0.00     0.000 A 
HETATM   20  C   UNL     1      44.752 -19.054   5.369  1.00  0.00     0.002 A 
HETATM   21  C   UNL     1      44.136 -18.351   4.331  1.00  0.00     0.029 A 
ENDBRANCH  13  16
ENDBRANCH  10  12
BRANCH   9  22
HETATM   22  C   UNL     1      40.489 -13.046   2.390  1.00  0.00    -0.028 A 
HETATM   23  C   UNL     1      39.252 -12.856   1.742  1.00  0.00     0.012 A 
HETATM   24  C   UNL     1      38.264 -12.049   2.311  1.00  0.00     0.037 A 
HETATM   25  C   UNL     1      38.512 -11.420   3.525  1.00  0.00     0.065 A 
HETATM   26  C   UNL     1      39.728 -11.582   4.176  1.00  0.00     0.037 A 
HETATM   27  C   UNL     1      40.716 -12.389   3.611  1.00  0.00     0.012 A 
BRANCH  25  28
HETATM   28  O   UNL     1      37.579 -10.618   4.112  1.00  0.00    -0.361 OA
HETATM   29  H   UNL     1      36.700 -11.009   3.975  1.00  0.00     0.217 HD
ENDBRANCH  25  28
ENDBRANCH   9  22
BRANCH   7  30
HETATM   30  C   UNL     1      42.182 -11.579  -2.438  1.00  0.00     0.036 A 
HETATM   31  C   UNL     1      42.432 -10.244  -2.091  1.00  0.00     0.048 A 
HETATM   32 CL   UNL     1      42.411  -9.669  -0.459  1.00  0.00    -0.083 Cl
HETATM   33  C   UNL     1      42.669  -9.290  -3.091  1.00  0.00     0.025 A 
HETATM   34  C   UNL     1      42.657  -9.654  -4.438  1.00  0.00     0.002 A 
HETATM   35  C   UNL     1      42.400 -10.974  -4.795  1.00  0.00     0.001 A 
HETATM   36  C   UNL     1      42.162 -11.927  -3.803  1.00  0.00     0.017 A 
ENDBRANCH   7  30
TORSDOF 5
ENDMDL
MODEL 9
REMARK VINA RESULT:      -8.4      3.591      7.741
REMARK  5 active torsions:
REMARK  status: ('A' for Active; 'I' for Inactive)
REMARK    1  A    between atoms: C_7  and  C_8 
REMARK    2  A    between atoms: C_16  and  C_17 
REMARK    3  A    between atoms: C_20  and  O_21 
REMARK    4  A    between atoms: C_24  and  C_25 
REMARK       I    between atoms: C_25  and  N_26 
REMARK    5  A    between atoms: N_26  and  C_27 
ROOT
HETATM    1  C   UNL     1      41.424 -18.076   1.053  1.00  0.00     0.070 C 
HETATM    2  C   UNL     1      41.462 -16.597   0.753  1.00  0.00     0.037 C 
HETATM    3  N   UNL     1      40.956 -16.220  -0.491  1.00  0.00    -0.192 N 
HETATM    4  C   UNL     1      41.128 -14.984  -1.003  1.00  0.00     0.726 A 
HETATM    5  N   UNL     1      41.650 -14.006  -0.211  1.00  0.00    -0.083 N 
HETATM    6  N   UNL     1      41.806 -12.850  -0.881  1.00  0.00    -0.135 NA
HETATM    7  C   UNL     1      41.328 -13.186  -2.094  1.00  0.00     0.200 A 
HETATM    8  N   UNL     1      40.893 -14.496  -2.191  1.00  0.00    -0.041 NA
HETATM    9  C   UNL     1      41.950 -14.179   1.212  1.00  0.00     0.202 C 
HETATM   10  C   UNL     1      41.957 -15.655   1.599  1.00  0.00     0.062 C 
HETATM   11  H   UNL     1      40.694 -16.967  -1.130  1.00  0.00     0.184 HD
ENDROOT
BRANCH  10  12
HETATM   12  C   UNL     1      42.718 -16.056   2.819  1.00  0.00     0.256 C 
HETATM   13  N   UNL     1      42.009 -15.956   3.996  1.00  0.00    -0.323 N 
HETATM   14  H   UNL     1      41.041 -15.669   3.953  1.00  0.00     0.169 HD
HETATM   15  O   UNL     1      43.891 -16.396   2.704  1.00  0.00    -0.267 OA
BRANCH  13  16
HETATM   16  C   UNL     1      42.481 -16.207   5.303  1.00  0.00     0.035 A 
HETATM   17  C   UNL     1      42.106 -17.307   6.076  1.00  0.00     0.029 A 
HETATM   18  C   UNL     1      42.622 -17.477   7.364  1.00  0.00     0.002 A 
HETATM   19  C   UNL     1      43.526 -16.555   7.887  1.00  0.00     0.000 A 
HETATM   20  C   UNL     1      43.908 -15.455   7.125  1.00  0.00     0.002 A 
HETATM   21  C   UNL     1      43.382 -15.278   5.843  1.00  0.00     0.029 A 
ENDBRANCH  13  16
ENDBRANCH  10  12
BRANCH   9  22
HETATM   22  C   UNL     1      40.953 -13.344   2.018  1.00  0.00    -0.028 A 
HETATM   23  C   UNL     1      41.372 -12.486   3.055  1.00  0.00     0.012 A 
HETATM   24  C   UNL     1      40.444 -11.735   3.779  1.00  0.00     0.037 A 
HETATM   25  C   UNL     1      39.092 -11.846   3.480  1.00  0.00     0.065 A 
HETATM   26  C   UNL     1      38.653 -12.694   2.471  1.00  0.00     0.037 A 
HETATM   27  C   UNL     1      39.578 -13.445   1.744  1.00  0.00     0.012 A 
BRANCH  25  28
HETATM   28  O   UNL     1      38.152 -11.137   4.166  1.00  0.00    -0.361 OA
HETATM   29  H   UNL     1      38.322 -11.233   5.118  1.00  0.00     0.217 HD
ENDBRANCH  25  28
ENDBRANCH   9  22
BRANCH   7  30
HETATM   30  C   UNL     1      41.194 -12.224  -3.179  1.00  0.00     0.036 A 
HETATM   31  C   UNL     1      39.960 -11.716  -3.608  1.00  0.00     0.048 A 
HETATM   32 CL   UNL     1      38.444 -12.229  -2.951  1.00  0.00    -0.083 Cl
HETATM   33  C   UNL     1      39.909 -10.779  -4.651  1.00  0.00     0.025 A 
HETATM   34  C   UNL     1      41.079 -10.343  -5.272  1.00  0.00     0.002 A 
HETATM   35  C   UNL     1      42.309 -10.848  -4.862  1.00  0.00     0.001 A 
HETATM   36  C   UNL     1      42.365 -11.782  -3.827  1.00  0.00     0.017 A 
ENDBRANCH   7  30
TORSDOF 5
ENDMDL
MODEL 10
REMARK VINA RESULT:      -8.3      3.549      7.867
REMARK  5 active torsions:
REMARK  status: ('A' for Active; 'I' for Inactive)
REMARK    1  A    between atoms: C_7  and  C_8 
REMARK    2  A    between atoms: C_16  and  C_17 
REMARK    3  A    between atoms: C_20  and  O_21 
REMARK    4  A    between atoms: C_24  and  C_25 
REMARK       I    between atoms: C_25  and  N_26 
REMARK    5  A    between atoms: N_26  and  C_27 
ROOT
HETATM    1  C   UNL     1      41.061 -17.836   1.287  1.00  0.00     0.070 C 
HETATM    2  C   UNL     1      41.375 -16.359   1.303  1.00  0.00     0.037 C 
HETATM    3  N   UNL     1      40.858 -15.619   0.241  1.00  0.00    -0.192 N 
HETATM    4  C   UNL     1      41.236 -14.351  -0.016  1.00  0.00     0.726 A 
HETATM    5  N   UNL     1      42.009 -13.693   0.893  1.00  0.00    -0.083 N 
HETATM    6  N   UNL     1      42.342 -12.461   0.469  1.00  0.00    -0.135 NA
HETATM    7  C   UNL     1      41.709 -12.415  -0.719  1.00  0.00     0.200 A 
HETATM    8  N   UNL     1      41.010 -13.566  -1.035  1.00  0.00    -0.041 NA
HETATM    9  C   UNL     1      42.381 -14.242   2.199  1.00  0.00     0.202 C 
HETATM   10  C   UNL     1      42.118 -15.744   2.261  1.00  0.00     0.062 C 
HETATM   11  H   UNL     1      40.398 -16.138  -0.504  1.00  0.00     0.184 HD
ENDROOT
BRANCH  10  12
HETATM   12  C   UNL     1      42.879 -16.548   3.264  1.00  0.00     0.256 C 
HETATM   13  N   UNL     1      42.282 -16.631   4.503  1.00  0.00    -0.323 N 
HETATM   14  H   UNL     1      41.380 -16.194   4.634  1.00  0.00     0.169 HD
HETATM   15  O   UNL     1      43.961 -17.028   2.946  1.00  0.00    -0.267 OA
BRANCH  13  16
HETATM   16  C   UNL     1      42.790 -17.266   5.657  1.00  0.00     0.035 A 
HETATM   17  C   UNL     1      43.262 -18.580   5.687  1.00  0.00     0.029 A 
HETATM   18  C   UNL     1      43.749 -19.131   6.876  1.00  0.00     0.002 A 
HETATM   19  C   UNL     1      43.778 -18.371   8.043  1.00  0.00     0.000 A 
HETATM   20  C   UNL     1      43.311 -17.060   8.024  1.00  0.00     0.002 A 
HETATM   21  C   UNL     1      42.813 -16.513   6.839  1.00  0.00     0.029 A 
ENDBRANCH  13  16
ENDBRANCH  10  12
BRANCH   9  22
HETATM   22  C   UNL     1      41.643 -13.451   3.281  1.00  0.00    -0.028 A 
HETATM   23  C   UNL     1      42.334 -12.791   4.317  1.00  0.00     0.012 A 
HETATM   24  C   UNL     1      41.641 -12.076   5.296  1.00  0.00     0.037 A 
HETATM   25  C   UNL     1      40.253 -12.027   5.251  1.00  0.00     0.065 A 
HETATM   26  C   UNL     1      39.549 -12.681   4.248  1.00  0.00     0.037 A 
HETATM   27  C   UNL     1      40.239 -13.394   3.267  1.00  0.00     0.012 A 
BRANCH  25  28
HETATM   28  O   UNL     1      39.536 -11.348   6.191  1.00  0.00    -0.361 OA
HETATM   29  H   UNL     1      39.904 -11.544   7.068  1.00  0.00     0.217 HD
ENDBRANCH  25  28
ENDBRANCH   9  22
BRANCH   7  30
HETATM   30  C   UNL     1      41.686 -11.219  -1.551  1.00  0.00     0.036 A 
HETATM   31  C   UNL     1      40.841 -10.128  -1.304  1.00  0.00     0.048 A 
HETATM   32 CL   UNL     1      39.672 -10.103  -0.029  1.00  0.00    -0.083 Cl
HETATM   33  C   UNL     1      40.885  -9.002  -2.140  1.00  0.00     0.025 A 
HETATM   34  C   UNL     1      41.764  -8.955  -3.222  1.00  0.00     0.002 A 
HETATM   35  C   UNL     1      42.600 -10.036  -3.482  1.00  0.00     0.001 A 
HETATM   36  C   UNL     1      42.559 -11.159  -2.655  1.00  0.00     0.017 A 
ENDBRANCH   7  30
TORSDOF 5
ENDMDL
