MODEL 1
REMARK VINA RESULT:      -8.1      0.000      0.000
REMARK  8 active torsions:
REMARK  status: ('A' for Active; 'I' for Inactive)
REMARK    1  A    between atoms: O_1  and  C_2 
REMARK    2  A    between atoms: C_2  and  CA_3 
REMARK    3  A    between atoms: CA_3  and  N_4 
REMARK    4  A    between atoms: CA_3  and  C_23 
REMARK       I    between atoms: N_4  and  C_5 
REMARK    5  A    between atoms: C_5  and  C_7 
REMARK    6  A    between atoms: C_10  and  C_17 
REMARK    7  A    between atoms: C_11  and  O_12 
REMARK    8  A    between atoms: O_12  and  C_13 
ROOT
HETATM    1  C   UNL     1      43.056 -17.026   2.748  1.00  0.00     0.034 A 
HETATM    2  C   UNL     1      43.450 -17.951   1.778  1.00  0.00     0.018 A 
HETATM    3  C   UNL     1      43.915 -19.216   2.154  1.00  0.00     0.016 A 
HETATM    4  C   UNL     1      44.013 -19.576   3.507  1.00  0.00     0.011 A 
HETATM    5  C   UNL     1      43.654 -18.624   4.480  1.00  0.00     0.087 A 
HETATM    6  C   UNL     1      43.165 -17.365   4.103  1.00  0.00     0.054 A 
ENDROOT
BRANCH   1   7
HETATM    7  C   UNL     1      42.548 -15.697   2.301  1.00  0.00     0.252 C 
HETATM    8  N   UNL     1      41.354 -15.706   1.613  1.00  0.00    -0.346 N 
HETATM    9  H   UNL     1      41.086 -16.569   1.162  1.00  0.00     0.163 HD
HETATM   10  O   UNL     1      43.209 -14.690   2.522  1.00  0.00    -0.268 OA
BRANCH   8  11
HETATM   11  CA  UNL     1      40.782 -14.506   1.002  1.00  0.00     0.141 C 
BRANCH  11  12
HETATM   12  C   UNL     1      39.290 -14.334   1.368  1.00  0.00     0.194 C 
BRANCH  12  13
HETATM   13  O   UNL     1      38.768 -15.571   1.872  1.00  0.00    -0.399 OA
HETATM   14  H   UNL     1      39.316 -16.277   1.487  1.00  0.00     0.209 HD
ENDBRANCH  12  13
ENDBRANCH  11  12
BRANCH  11  15
HETATM   15  C   UNL     1      41.138 -14.398  -0.472  1.00  0.00    -0.033 A 
HETATM   16  C   UNL     1      41.803 -13.289  -1.017  1.00  0.00     0.009 A 
HETATM   17  C   UNL     1      42.120 -13.241  -2.377  1.00  0.00     0.001 A 
HETATM   18  C   UNL     1      41.766 -14.293  -3.217  1.00  0.00     0.000 A 
HETATM   19  C   UNL     1      41.088 -15.394  -2.700  1.00  0.00     0.001 A 
HETATM   20  C   UNL     1      40.775 -15.445  -1.340  1.00  0.00     0.009 A 
ENDBRANCH  11  15
ENDBRANCH   8  11
ENDBRANCH   1   7
BRANCH   5  21
HETATM   21  O   UNL     1      43.721 -18.961   5.809  1.00  0.00    -0.289 OA
BRANCH  21  22
HETATM   22  C   UNL     1      44.589 -18.105   6.542  1.00  0.00     0.505 C 
HETATM   23  F   UNL     1      44.690 -18.576   7.811  1.00  0.00    -0.184 F 
HETATM   24  F   UNL     1      45.824 -18.214   5.992  1.00  0.00    -0.184 F 
ENDBRANCH  21  22
ENDBRANCH   5  21
BRANCH   4  25
HETATM   25  C   UNL     1      44.480 -20.908   3.866  1.00  0.00     0.013 A 
HETATM   26  C   UNL     1      45.088 -21.397   5.047  1.00  0.00     0.152 A 
HETATM   27  N   UNL     1      45.368 -22.702   4.982  1.00  0.00    -0.187 NA
HETATM   28  N   UNL     1      44.940 -23.056   3.761  1.00  0.00    -0.289 N 
HETATM   29  H   UNL     1      45.047 -24.024   3.477  1.00  0.00     0.188 HD
HETATM   30  C   UNL     1      44.403 -22.020   3.052  1.00  0.00     0.123 A 
ENDBRANCH   4  25
TORSDOF 8
ENDMDL
MODEL 2
REMARK VINA RESULT:      -8.1      2.351      3.259
REMARK  8 active torsions:
REMARK  status: ('A' for Active; 'I' for Inactive)
REMARK    1  A    between atoms: O_1  and  C_2 
REMARK    2  A    between atoms: C_2  and  CA_3 
REMARK    3  A    between atoms: CA_3  and  N_4 
REMARK    4  A    between atoms: CA_3  and  C_23 
REMARK       I    between atoms: N_4  and  C_5 
REMARK    5  A    between atoms: C_5  and  C_7 
REMARK    6  A    between atoms: C_10  and  C_17 
REMARK    7  A    between atoms: C_11  and  O_12 
REMARK    8  A    between atoms: O_12  and  C_13 
ROOT
HETATM    1  C   UNL     1      41.751 -16.324   1.077  1.00  0.00     0.034 A 
HETATM    2  C   UNL     1      42.917 -16.919   0.587  1.00  0.00     0.018 A 
HETATM    3  C   UNL     1      43.614 -17.851   1.363  1.00  0.00     0.016 A 
HETATM    4  C   UNL     1      43.171 -18.194   2.650  1.00  0.00     0.011 A 
HETATM    5  C   UNL     1      42.021 -17.559   3.153  1.00  0.00     0.087 A 
HETATM    6  C   UNL     1      41.308 -16.642   2.367  1.00  0.00     0.054 A 
ENDROOT
BRANCH   1   7
HETATM    7  C   UNL     1      41.029 -15.350   0.208  1.00  0.00     0.252 C 
HETATM    8  N   UNL     1      41.686 -14.959  -0.938  1.00  0.00    -0.346 N 
HETATM    9  H   UNL     1      42.691 -15.058  -0.952  1.00  0.00     0.163 HD
HETATM   10  O   UNL     1      39.935 -14.922   0.556  1.00  0.00    -0.268 OA
BRANCH   8  11
HETATM   11  CA  UNL     1      41.171 -13.923  -1.834  1.00  0.00     0.141 C 
BRANCH  11  12
HETATM   12  C   UNL     1      41.072 -14.425  -3.292  1.00  0.00     0.194 C 
BRANCH  12  13
HETATM   13  O   UNL     1      42.214 -15.233  -3.607  1.00  0.00    -0.399 OA
HETATM   14  H   UNL     1      42.254 -15.928  -2.927  1.00  0.00     0.209 HD
ENDBRANCH  12  13
ENDBRANCH  11  12
BRANCH  11  15
HETATM   15  C   UNL     1      41.873 -12.591  -1.618  1.00  0.00    -0.033 A 
HETATM   16  C   UNL     1      42.096 -12.044  -0.346  1.00  0.00     0.009 A 
HETATM   17  C   UNL     1      42.757 -10.821  -0.198  1.00  0.00     0.001 A 
HETATM   18  C   UNL     1      43.192 -10.119  -1.320  1.00  0.00     0.000 A 
HETATM   19  C   UNL     1      42.963 -10.636  -2.592  1.00  0.00     0.001 A 
HETATM   20  C   UNL     1      42.307 -11.860  -2.740  1.00  0.00     0.009 A 
ENDBRANCH  11  15
ENDBRANCH   8  11
ENDBRANCH   1   7
BRANCH   5  21
HETATM   21  O   UNL     1      41.558 -17.895   4.401  1.00  0.00    -0.289 OA
BRANCH  21  22
HETATM   22  C   UNL     1      41.500 -16.776   5.277  1.00  0.00     0.505 C 
HETATM   23  F   UNL     1      41.192 -17.217   6.523  1.00  0.00    -0.184 F 
HETATM   24  F   UNL     1      42.750 -16.255   5.352  1.00  0.00    -0.184 F 
ENDBRANCH  21  22
ENDBRANCH   5  21
BRANCH   4  25
HETATM   25  C   UNL     1      43.908 -19.185   3.424  1.00  0.00     0.013 A 
HETATM   26  C   UNL     1      44.382 -19.162   4.757  1.00  0.00     0.152 A 
HETATM   27  N   UNL     1      45.018 -20.287   5.099  1.00  0.00    -0.187 NA
HETATM   28  N   UNL     1      44.952 -21.036   3.988  1.00  0.00    -0.289 N 
HETATM   29  H   UNL     1      45.376 -21.958   4.005  1.00  0.00     0.188 HD
HETATM   30  C   UNL     1      44.301 -20.422   2.956  1.00  0.00     0.123 A 
ENDBRANCH   4  25
TORSDOF 8
ENDMDL
MODEL 3
REMARK VINA RESULT:      -7.8      2.524      2.989
REMARK  8 active torsions:
REMARK  status: ('A' for Active; 'I' for Inactive)
REMARK    1  A    between atoms: O_1  and  C_2 
REMARK    2  A    between atoms: C_2  and  CA_3 
REMARK    3  A    between atoms: CA_3  and  N_4 
REMARK    4  A    between atoms: CA_3  and  C_23 
REMARK       I    between atoms: N_4  and  C_5 
REMARK    5  A    between atoms: C_5  and  C_7 
REMARK    6  A    between atoms: C_10  and  C_17 
REMARK    7  A    between atoms: C_11  and  O_12 
REMARK    8  A    between atoms: O_12  and  C_13 
ROOT
HETATM    1  C   UNL     1      43.092 -16.120   3.016  1.00  0.00     0.034 A 
HETATM    2  C   UNL     1      43.638 -16.679   1.857  1.00  0.00     0.018 A 
HETATM    3  C   UNL     1      43.966 -18.038   1.815  1.00  0.00     0.016 A 
HETATM    4  C   UNL     1      43.772 -18.862   2.935  1.00  0.00     0.011 A 
HETATM    5  C   UNL     1      43.262 -18.283   4.111  1.00  0.00     0.087 A 
HETATM    6  C   UNL     1      42.911 -16.926   4.146  1.00  0.00     0.054 A 
ENDROOT
BRANCH   1   7
HETATM    7  C   UNL     1      42.739 -14.671   3.009  1.00  0.00     0.252 C 
HETATM    8  N   UNL     1      41.395 -14.375   3.073  1.00  0.00    -0.346 N 
HETATM    9  H   UNL     1      40.749 -15.092   2.777  1.00  0.00     0.163 HD
HETATM   10  O   UNL     1      43.626 -13.831   2.912  1.00  0.00    -0.268 OA
BRANCH   8  11
HETATM   11  CA  UNL     1      40.876 -13.012   2.955  1.00  0.00     0.141 C 
BRANCH  11  12
HETATM   12  C   UNL     1      40.895 -12.273   4.312  1.00  0.00     0.194 C 
BRANCH  12  13
HETATM   13  O   UNL     1      41.829 -11.186   4.259  1.00  0.00    -0.399 OA
HETATM   14  H   UNL     1      42.140 -11.136   3.339  1.00  0.00     0.209 HD
ENDBRANCH  12  13
ENDBRANCH  11  12
BRANCH  11  15
HETATM   15  C   UNL     1      39.571 -12.971   2.175  1.00  0.00    -0.033 A 
HETATM   16  C   UNL     1      38.833 -11.793   1.985  1.00  0.00     0.009 A 
HETATM   17  C   UNL     1      37.645 -11.803   1.249  1.00  0.00     0.001 A 
HETATM   18  C   UNL     1      37.168 -12.992   0.704  1.00  0.00     0.000 A 
HETATM   19  C   UNL     1      37.876 -14.175   0.898  1.00  0.00     0.001 A 
HETATM   20  C   UNL     1      39.066 -14.165   1.628  1.00  0.00     0.009 A 
ENDBRANCH  11  15
ENDBRANCH   8  11
ENDBRANCH   1   7
BRANCH   5  21
HETATM   21  O   UNL     1      43.045 -19.074   5.212  1.00  0.00    -0.289 OA
BRANCH  21  22
HETATM   22  C   UNL     1      43.699 -18.578   6.374  1.00  0.00     0.505 C 
HETATM   23  F   UNL     1      43.525 -19.471   7.381  1.00  0.00    -0.184 F 
HETATM   24  F   UNL     1      45.029 -18.552   6.109  1.00  0.00    -0.184 F 
ENDBRANCH  21  22
ENDBRANCH   5  21
BRANCH   4  25
HETATM   25  C   UNL     1      44.104 -20.279   2.852  1.00  0.00     0.013 A 
HETATM   26  C   UNL     1      43.822 -21.245   1.858  1.00  0.00     0.152 A 
HETATM   27  N   UNL     1      44.311 -22.453   2.158  1.00  0.00    -0.187 NA
HETATM   28  N   UNL     1      44.908 -22.265   3.344  1.00  0.00    -0.289 N 
HETATM   29  H   UNL     1      45.362 -23.059   3.784  1.00  0.00     0.188 HD
HETATM   30  C   UNL     1      44.810 -20.983   3.805  1.00  0.00     0.123 A 
ENDBRANCH   4  25
TORSDOF 8
ENDMDL
MODEL 4
REMARK VINA RESULT:      -7.6      3.814      8.526
REMARK  8 active torsions:
REMARK  status: ('A' for Active; 'I' for Inactive)
REMARK    1  A    between atoms: O_1  and  C_2 
REMARK    2  A    between atoms: C_2  and  CA_3 
REMARK    3  A    between atoms: CA_3  and  N_4 
REMARK    4  A    between atoms: CA_3  and  C_23 
REMARK       I    between atoms: N_4  and  C_5 
REMARK    5  A    between atoms: C_5  and  C_7 
REMARK    6  A    between atoms: C_10  and  C_17 
REMARK    7  A    between atoms: C_11  and  O_12 
REMARK    8  A    between atoms: O_12  and  C_13 
ROOT
HETATM    1  C   UNL     1      41.176 -16.022   1.706  1.00  0.00     0.034 A 
HETATM    2  C   UNL     1      41.575 -16.523   0.464  1.00  0.00     0.018 A 
HETATM    3  C   UNL     1      41.210 -15.863  -0.714  1.00  0.00     0.016 A 
HETATM    4  C   UNL     1      40.425 -14.699  -0.676  1.00  0.00     0.011 A 
HETATM    5  C   UNL     1      39.992 -14.225   0.577  1.00  0.00     0.087 A 
HETATM    6  C   UNL     1      40.377 -14.874   1.759  1.00  0.00     0.054 A 
ENDROOT
BRANCH   1   7
HETATM    7  C   UNL     1      41.604 -16.748   2.937  1.00  0.00     0.252 C 
HETATM    8  N   UNL     1      42.735 -17.527   2.818  1.00  0.00    -0.346 N 
HETATM    9  H   UNL     1      42.990 -17.834   1.890  1.00  0.00     0.163 HD
HETATM   10  O   UNL     1      40.935 -16.657   3.959  1.00  0.00    -0.268 OA
BRANCH   8  11
HETATM   11  CA  UNL     1      43.218 -18.395   3.892  1.00  0.00     0.141 C 
BRANCH  11  12
HETATM   12  C   UNL     1      44.191 -17.651   4.835  1.00  0.00     0.194 C 
BRANCH  12  13
HETATM   13  O   UNL     1      43.449 -16.909   5.812  1.00  0.00    -0.399 OA
HETATM   14  H   UNL     1      43.437 -17.454   6.618  1.00  0.00     0.209 HD
ENDBRANCH  12  13
ENDBRANCH  11  12
BRANCH  11  15
HETATM   15  C   UNL     1      43.678 -19.744   3.364  1.00  0.00    -0.033 A 
HETATM   16  C   UNL     1      43.432 -20.174   2.052  1.00  0.00     0.009 A 
HETATM   17  C   UNL     1      43.887 -21.419   1.609  1.00  0.00     0.001 A 
HETATM   18  C   UNL     1      44.582 -22.260   2.474  1.00  0.00     0.000 A 
HETATM   19  C   UNL     1      44.819 -21.860   3.786  1.00  0.00     0.001 A 
HETATM   20  C   UNL     1      44.370 -20.614   4.228  1.00  0.00     0.009 A 
ENDBRANCH  11  15
ENDBRANCH   8  11
ENDBRANCH   1   7
BRANCH   5  21
HETATM   21  O   UNL     1      39.241 -13.077   0.639  1.00  0.00    -0.289 OA
BRANCH  21  22
HETATM   22  C   UNL     1      37.916 -13.321   1.095  1.00  0.00     0.505 C 
HETATM   23  F   UNL     1      37.089 -12.410   0.522  1.00  0.00    -0.184 F 
HETATM   24  F   UNL     1      37.541 -14.534   0.617  1.00  0.00    -0.184 F 
ENDBRANCH  21  22
ENDBRANCH   5  21
BRANCH   4  25
HETATM   25  C   UNL     1      40.081 -14.022  -1.919  1.00  0.00     0.013 A 
HETATM   26  C   UNL     1      40.706 -12.953  -2.603  1.00  0.00     0.152 A 
HETATM   27  N   UNL     1      40.072 -12.620  -3.731  1.00  0.00    -0.187 NA
HETATM   28  N   UNL     1      39.039 -13.474  -3.777  1.00  0.00    -0.289 N 
HETATM   29  H   UNL     1      38.400 -13.414  -4.563  1.00  0.00     0.188 HD
HETATM   30  C   UNL     1      38.997 -14.332  -2.715  1.00  0.00     0.123 A 
ENDBRANCH   4  25
TORSDOF 8
ENDMDL
MODEL 5
REMARK VINA RESULT:      -7.6      2.322      3.065
REMARK  8 active torsions:
REMARK  status: ('A' for Active; 'I' for Inactive)
REMARK    1  A    between atoms: O_1  and  C_2 
REMARK    2  A    between atoms: C_2  and  CA_3 
REMARK    3  A    between atoms: CA_3  and  N_4 
REMARK    4  A    between atoms: CA_3  and  C_23 
REMARK       I    between atoms: N_4  and  C_5 
REMARK    5  A    between atoms: C_5  and  C_7 
REMARK    6  A    between atoms: C_10  and  C_17 
REMARK    7  A    between atoms: C_11  and  O_12 
REMARK    8  A    between atoms: O_12  and  C_13 
ROOT
HETATM    1  C   UNL     1      41.904 -16.482   1.350  1.00  0.00     0.034 A 
HETATM    2  C   UNL     1      43.084 -17.096   0.924  1.00  0.00     0.018 A 
HETATM    3  C   UNL     1      43.731 -18.028   1.742  1.00  0.00     0.016 A 
HETATM    4  C   UNL     1      43.222 -18.352   3.010  1.00  0.00     0.011 A 
HETATM    5  C   UNL     1      42.056 -17.698   3.449  1.00  0.00     0.087 A 
HETATM    6  C   UNL     1      41.394 -16.781   2.620  1.00  0.00     0.054 A 
ENDROOT
BRANCH   1   7
HETATM    7  C   UNL     1      41.237 -15.509   0.437  1.00  0.00     0.252 C 
HETATM    8  N   UNL     1      41.929 -15.184  -0.710  1.00  0.00    -0.346 N 
HETATM    9  H   UNL     1      42.929 -15.325  -0.703  1.00  0.00     0.163 HD
HETATM   10  O   UNL     1      40.157 -15.024   0.751  1.00  0.00    -0.268 OA
BRANCH   8  11
HETATM   11  CA  UNL     1      41.472 -14.158  -1.648  1.00  0.00     0.141 C 
BRANCH  11  12
HETATM   12  C   UNL     1      41.410 -12.764  -0.985  1.00  0.00     0.194 C 
BRANCH  12  13
HETATM   13  O   UNL     1      42.265 -11.853  -1.689  1.00  0.00    -0.399 OA
HETATM   14  H   UNL     1      41.946 -10.958  -1.477  1.00  0.00     0.209 HD
ENDBRANCH  12  13
ENDBRANCH  11  12
BRANCH  11  15
HETATM   15  C   UNL     1      40.237 -14.603  -2.415  1.00  0.00    -0.033 A 
HETATM   16  C   UNL     1      39.009 -13.929  -2.340  1.00  0.00     0.009 A 
HETATM   17  C   UNL     1      37.904 -14.370  -3.075  1.00  0.00     0.001 A 
HETATM   18  C   UNL     1      38.005 -15.499  -3.883  1.00  0.00     0.000 A 
HETATM   19  C   UNL     1      39.209 -16.194  -3.954  1.00  0.00     0.001 A 
HETATM   20  C   UNL     1      40.315 -15.751  -3.225  1.00  0.00     0.009 A 
ENDBRANCH  11  15
ENDBRANCH   8  11
ENDBRANCH   1   7
BRANCH   5  21
HETATM   21  O   UNL     1      41.529 -18.014   4.677  1.00  0.00    -0.289 OA
BRANCH  21  22
HETATM   22  C   UNL     1      41.180 -16.860   5.431  1.00  0.00     0.505 C 
HETATM   23  F   UNL     1      40.283 -17.221   6.383  1.00  0.00    -0.184 F 
HETATM   24  F   UNL     1      42.295 -16.453   6.088  1.00  0.00    -0.184 F 
ENDBRANCH  21  22
ENDBRANCH   5  21
BRANCH   4  25
HETATM   25  C   UNL     1      43.907 -19.343   3.829  1.00  0.00     0.013 A 
HETATM   26  C   UNL     1      44.531 -20.566   3.486  1.00  0.00     0.152 A 
HETATM   27  N   UNL     1      45.057 -21.192   4.543  1.00  0.00    -0.187 NA
HETATM   28  N   UNL     1      44.775 -20.373   5.567  1.00  0.00    -0.289 N 
HETATM   29  H   UNL     1      45.083 -20.642   6.496  1.00  0.00     0.188 HD
HETATM   30  C   UNL     1      44.086 -19.254   5.194  1.00  0.00     0.123 A 
ENDBRANCH   4  25
TORSDOF 8
ENDMDL
MODEL 6
REMARK VINA RESULT:      -7.6      4.486      9.073
REMARK  8 active torsions:
REMARK  status: ('A' for Active; 'I' for Inactive)
REMARK    1  A    between atoms: O_1  and  C_2 
REMARK    2  A    between atoms: C_2  and  CA_3 
REMARK    3  A    between atoms: CA_3  and  N_4 
REMARK    4  A    between atoms: CA_3  and  C_23 
REMARK       I    between atoms: N_4  and  C_5 
REMARK    5  A    between atoms: C_5  and  C_7 
REMARK    6  A    between atoms: C_10  and  C_17 
REMARK    7  A    between atoms: C_11  and  O_12 
REMARK    8  A    between atoms: O_12  and  C_13 
ROOT
HETATM    1  C   UNL     1      40.906 -14.950   0.257  1.00  0.00     0.034 A 
HETATM    2  C   UNL     1      41.321 -13.622   0.390  1.00  0.00     0.018 A 
HETATM    3  C   UNL     1      41.532 -12.830  -0.743  1.00  0.00     0.016 A 
HETATM    4  C   UNL     1      41.350 -13.354  -2.033  1.00  0.00     0.011 A 
HETATM    5  C   UNL     1      40.973 -14.704  -2.160  1.00  0.00     0.087 A 
HETATM    6  C   UNL     1      40.739 -15.491  -1.023  1.00  0.00     0.054 A 
ENDROOT
BRANCH   1   7
HETATM    7  C   UNL     1      40.674 -15.750   1.494  1.00  0.00     0.252 C 
HETATM    8  N   UNL     1      41.802 -16.225   2.128  1.00  0.00    -0.346 N 
HETATM    9  H   UNL     1      42.642 -16.313   1.574  1.00  0.00     0.163 HD
HETATM   10  O   UNL     1      39.529 -15.979   1.863  1.00  0.00    -0.268 OA
BRANCH   8  11
HETATM   11  CA  UNL     1      41.745 -17.125   3.280  1.00  0.00     0.141 C 
BRANCH  11  12
HETATM   12  C   UNL     1      41.800 -16.349   4.615  1.00  0.00     0.194 C 
BRANCH  12  13
HETATM   13  O   UNL     1      40.476 -16.195   5.142  1.00  0.00    -0.399 OA
HETATM   14  H   UNL     1      40.372 -15.250   5.351  1.00  0.00     0.209 HD
ENDBRANCH  12  13
ENDBRANCH  11  12
BRANCH  11  15
HETATM   15  C   UNL     1      42.707 -18.294   3.132  1.00  0.00    -0.033 A 
HETATM   16  C   UNL     1      42.796 -19.064   1.963  1.00  0.00     0.009 A 
HETATM   17  C   UNL     1      43.705 -20.122   1.870  1.00  0.00     0.001 A 
HETATM   18  C   UNL     1      44.528 -20.436   2.948  1.00  0.00     0.000 A 
HETATM   19  C   UNL     1      44.441 -19.696   4.123  1.00  0.00     0.001 A 
HETATM   20  C   UNL     1      43.537 -18.636   4.216  1.00  0.00     0.009 A 
ENDBRANCH  11  15
ENDBRANCH   8  11
ENDBRANCH   1   7
BRANCH   5  21
HETATM   21  O   UNL     1      40.769 -15.232  -3.411  1.00  0.00    -0.289 OA
BRANCH  21  22
HETATM   22  C   UNL     1      39.409 -15.580  -3.637  1.00  0.00     0.505 C 
HETATM   23  F   UNL     1      38.705 -14.444  -3.873  1.00  0.00    -0.184 F 
HETATM   24  F   UNL     1      39.362 -16.305  -4.783  1.00  0.00    -0.184 F 
ENDBRANCH  21  22
ENDBRANCH   5  21
BRANCH   4  25
HETATM   25  C   UNL     1      41.557 -12.498  -3.194  1.00  0.00     0.013 A 
HETATM   26  C   UNL     1      40.646 -11.742  -3.969  1.00  0.00     0.152 A 
HETATM   27  N   UNL     1      41.241 -11.076  -4.963  1.00  0.00    -0.187 NA
HETATM   28  N   UNL     1      42.536 -11.400  -4.828  1.00  0.00    -0.289 N 
HETATM   29  H   UNL     1      43.201 -11.005  -5.485  1.00  0.00     0.188 HD
HETATM   30  C   UNL     1      42.778 -12.250  -3.787  1.00  0.00     0.123 A 
ENDBRANCH   4  25
TORSDOF 8
ENDMDL
MODEL 7
REMARK VINA RESULT:      -7.5      4.107      8.816
REMARK  8 active torsions:
REMARK  status: ('A' for Active; 'I' for Inactive)
REMARK    1  A    between atoms: O_1  and  C_2 
REMARK    2  A    between atoms: C_2  and  CA_3 
REMARK    3  A    between atoms: CA_3  and  N_4 
REMARK    4  A    between atoms: CA_3  and  C_23 
REMARK       I    between atoms: N_4  and  C_5 
REMARK    5  A    between atoms: C_5  and  C_7 
REMARK    6  A    between atoms: C_10  and  C_17 
REMARK    7  A    between atoms: C_11  and  O_12 
REMARK    8  A    between atoms: O_12  and  C_13 
ROOT
HETATM    1  C   UNL     1      41.274 -14.742   1.246  1.00  0.00     0.034 A 
HETATM    2  C   UNL     1      41.480 -13.492   1.836  1.00  0.00     0.018 A 
HETATM    3  C   UNL     1      41.780 -12.378   1.045  1.00  0.00     0.016 A 
HETATM    4  C   UNL     1      41.897 -12.493  -0.349  1.00  0.00     0.011 A 
HETATM    5  C   UNL     1      41.731 -13.764  -0.932  1.00  0.00     0.087 A 
HETATM    6  C   UNL     1      41.407 -14.876  -0.141  1.00  0.00     0.054 A 
ENDROOT
BRANCH   1   7
HETATM    7  C   UNL     1      40.937 -15.898   2.126  1.00  0.00     0.252 C 
HETATM    8  N   UNL     1      41.906 -16.271   3.032  1.00  0.00    -0.346 N 
HETATM    9  H   UNL     1      42.859 -16.004   2.828  1.00  0.00     0.163 HD
HETATM   10  O   UNL     1      39.865 -16.474   1.988  1.00  0.00    -0.268 OA
BRANCH   8  11
HETATM   11  CA  UNL     1      41.784 -17.456   3.882  1.00  0.00     0.141 C 
BRANCH  11  12
HETATM   12  C   UNL     1      41.731 -17.081   5.381  1.00  0.00     0.194 C 
BRANCH  12  13
HETATM   13  O   UNL     1      40.367 -17.043   5.824  1.00  0.00    -0.399 OA
HETATM   14  H   UNL     1      39.828 -16.861   5.035  1.00  0.00     0.209 HD
ENDBRANCH  12  13
ENDBRANCH  11  12
BRANCH  11  15
HETATM   15  C   UNL     1      42.773 -18.540   3.486  1.00  0.00    -0.033 A 
HETATM   16  C   UNL     1      42.804 -19.113   2.206  1.00  0.00     0.009 A 
HETATM   17  C   UNL     1      43.742 -20.099   1.885  1.00  0.00     0.001 A 
HETATM   18  C   UNL     1      44.652 -20.539   2.842  1.00  0.00     0.000 A 
HETATM   19  C   UNL     1      44.624 -19.997   4.124  1.00  0.00     0.001 A 
HETATM   20  C   UNL     1      43.691 -19.008   4.444  1.00  0.00     0.009 A 
ENDBRANCH  11  15
ENDBRANCH   8  11
ENDBRANCH   1   7
BRANCH   5  21
HETATM   21  O   UNL     1      41.821 -13.897  -2.295  1.00  0.00    -0.289 OA
BRANCH  21  22
HETATM   22  C   UNL     1      40.859 -14.804  -2.816  1.00  0.00     0.505 C 
HETATM   23  F   UNL     1      40.288 -14.246  -3.914  1.00  0.00    -0.184 F 
HETATM   24  F   UNL     1      41.529 -15.902  -3.248  1.00  0.00    -0.184 F 
ENDBRANCH  21  22
ENDBRANCH   5  21
BRANCH   4  25
HETATM   25  C   UNL     1      42.189 -11.310  -1.147  1.00  0.00     0.013 A 
HETATM   26  C   UNL     1      41.352 -10.492  -1.942  1.00  0.00     0.152 A 
HETATM   27  N   UNL     1      42.012  -9.484  -2.520  1.00  0.00    -0.187 NA
HETATM   28  N   UNL     1      43.274  -9.650  -2.098  1.00  0.00    -0.289 N 
HETATM   29  H   UNL     1      43.977  -8.989  -2.412  1.00  0.00     0.188 HD
HETATM   30  C   UNL     1      43.434 -10.730  -1.277  1.00  0.00     0.123 A 
ENDBRANCH   4  25
TORSDOF 8
ENDMDL
MODEL 8
REMARK VINA RESULT:      -7.4      2.571      3.925
REMARK  8 active torsions:
REMARK  status: ('A' for Active; 'I' for Inactive)
REMARK    1  A    between atoms: O_1  and  C_2 
REMARK    2  A    between atoms: C_2  and  CA_3 
REMARK    3  A    between atoms: CA_3  and  N_4 
REMARK    4  A    between atoms: CA_3  and  C_23 
REMARK       I    between atoms: N_4  and  C_5 
REMARK    5  A    between atoms: C_5  and  C_7 
REMARK    6  A    between atoms: C_10  and  C_17 
REMARK    7  A    between atoms: C_11  and  O_12 
REMARK    8  A    between atoms: O_12  and  C_13 
ROOT
HETATM    1  C   UNL     1      41.485 -15.995   1.909  1.00  0.00     0.034 A 
HETATM    2  C   UNL     1      41.783 -15.157   2.988  1.00  0.00     0.018 A 
HETATM    3  C   UNL     1      42.423 -15.666   4.122  1.00  0.00     0.016 A 
HETATM    4  C   UNL     1      42.763 -17.026   4.210  1.00  0.00     0.011 A 
HETATM    5  C   UNL     1      42.423 -17.871   3.138  1.00  0.00     0.087 A 
HETATM    6  C   UNL     1      41.802 -17.356   1.990  1.00  0.00     0.054 A 
ENDROOT
BRANCH   1   7
HETATM    7  C   UNL     1      40.820 -15.405   0.712  1.00  0.00     0.252 C 
HETATM    8  N   UNL     1      41.604 -15.275  -0.414  1.00  0.00    -0.346 N 
HETATM    9  H   UNL     1      42.604 -15.247  -0.280  1.00  0.00     0.163 HD
HETATM   10  O   UNL     1      39.653 -15.036   0.786  1.00  0.00    -0.268 OA
BRANCH   8  11
HETATM   11  CA  UNL     1      41.141 -14.607  -1.631  1.00  0.00     0.141 C 
BRANCH  11  12
HETATM   12  C   UNL     1      41.162 -15.558  -2.849  1.00  0.00     0.194 C 
BRANCH  12  13
HETATM   13  O   UNL     1      40.065 -16.477  -2.767  1.00  0.00    -0.399 OA
HETATM   14  H   UNL     1      40.394 -17.255  -2.285  1.00  0.00     0.209 HD
ENDBRANCH  12  13
ENDBRANCH  11  12
BRANCH  11  15
HETATM   15  C   UNL     1      41.799 -13.249  -1.815  1.00  0.00    -0.033 A 
HETATM   16  C   UNL     1      42.095 -12.709  -3.075  1.00  0.00     0.009 A 
HETATM   17  C   UNL     1      42.690 -11.450  -3.193  1.00  0.00     0.001 A 
HETATM   18  C   UNL     1      43.011 -10.717  -2.054  1.00  0.00     0.000 A 
HETATM   19  C   UNL     1      42.744 -11.244  -0.794  1.00  0.00     0.001 A 
HETATM   20  C   UNL     1      42.145 -12.499  -0.675  1.00  0.00     0.009 A 
ENDBRANCH  11  15
ENDBRANCH   8  11
ENDBRANCH   1   7
BRANCH   5  21
HETATM   21  O   UNL     1      42.764 -19.200   3.193  1.00  0.00    -0.289 OA
BRANCH  21  22
HETATM   22  C   UNL     1      43.481 -19.623   2.040  1.00  0.00     0.505 C 
HETATM   23  F   UNL     1      44.768 -19.868   2.398  1.00  0.00    -0.184 F 
HETATM   24  F   UNL     1      42.958 -20.813   1.652  1.00  0.00    -0.184 F 
ENDBRANCH  21  22
ENDBRANCH   5  21
BRANCH   4  25
HETATM   25  C   UNL     1      43.449 -17.521   5.396  1.00  0.00     0.013 A 
HETATM   26  C   UNL     1      44.750 -18.051   5.568  1.00  0.00     0.152 A 
HETATM   27  N   UNL     1      45.006 -18.393   6.834  1.00  0.00    -0.187 NA
HETATM   28  N   UNL     1      43.872 -18.082   7.480  1.00  0.00    -0.289 N 
HETATM   29  H   UNL     1      43.825 -18.255   8.479  1.00  0.00     0.188 HD
HETATM   30  C   UNL     1      42.908 -17.560   6.665  1.00  0.00     0.123 A 
ENDBRANCH   4  25
TORSDOF 8
ENDMDL
MODEL 9
REMARK VINA RESULT:      -7.4      3.484      8.373
REMARK  8 active torsions:
REMARK  status: ('A' for Active; 'I' for Inactive)
REMARK    1  A    between atoms: O_1  and  C_2 
REMARK    2  A    between atoms: C_2  and  CA_3 
REMARK    3  A    between atoms: CA_3  and  N_4 
REMARK    4  A    between atoms: CA_3  and  C_23 
REMARK       I    between atoms: N_4  and  C_5 
REMARK    5  A    between atoms: C_5  and  C_7 
REMARK    6  A    between atoms: C_10  and  C_17 
REMARK    7  A    between atoms: C_11  and  O_12 
REMARK    8  A    between atoms: O_12  and  C_13 
ROOT
HETATM    1  C   UNL     1      41.278 -16.150   3.927  1.00  0.00     0.034 A 
HETATM    2  C   UNL     1      41.007 -14.986   4.651  1.00  0.00     0.018 A 
HETATM    3  C   UNL     1      40.464 -13.867   4.012  1.00  0.00     0.016 A 
HETATM    4  C   UNL     1      40.197 -13.881   2.634  1.00  0.00     0.011 A 
HETATM    5  C   UNL     1      40.512 -15.042   1.904  1.00  0.00     0.087 A 
HETATM    6  C   UNL     1      41.035 -16.173   2.548  1.00  0.00     0.054 A 
ENDROOT
BRANCH   1   7
HETATM    7  C   UNL     1      41.839 -17.326   4.653  1.00  0.00     0.252 C 
HETATM    8  N   UNL     1      43.193 -17.536   4.511  1.00  0.00    -0.346 N 
HETATM    9  H   UNL     1      43.641 -17.136   3.699  1.00  0.00     0.163 HD
HETATM   10  O   UNL     1      41.092 -18.056   5.294  1.00  0.00    -0.268 OA
BRANCH   8  11
HETATM   11  CA  UNL     1      43.876 -18.709   5.057  1.00  0.00     0.141 C 
BRANCH  11  12
HETATM   12  C   UNL     1      45.156 -18.318   5.830  1.00  0.00     0.194 C 
BRANCH  12  13
HETATM   13  O   UNL     1      44.877 -17.217   6.705  1.00  0.00    -0.399 OA
HETATM   14  H   UNL     1      45.411 -16.470   6.384  1.00  0.00     0.209 HD
ENDBRANCH  12  13
ENDBRANCH  11  12
BRANCH  11  15
HETATM   15  C   UNL     1      44.017 -19.813   4.021  1.00  0.00    -0.033 A 
HETATM   16  C   UNL     1      43.595 -19.669   2.691  1.00  0.00     0.009 A 
HETATM   17  C   UNL     1      43.758 -20.710   1.771  1.00  0.00     0.001 A 
HETATM   18  C   UNL     1      44.331 -21.914   2.170  1.00  0.00     0.000 A 
HETATM   19  C   UNL     1      44.738 -22.084   3.490  1.00  0.00     0.001 A 
HETATM   20  C   UNL     1      44.580 -21.043   4.408  1.00  0.00     0.009 A 
ENDBRANCH  11  15
ENDBRANCH   8  11
ENDBRANCH   1   7
BRANCH   5  21
HETATM   21  O   UNL     1      40.241 -15.086   0.558  1.00  0.00    -0.289 OA
BRANCH  21  22
HETATM   22  C   UNL     1      41.422 -15.152  -0.231  1.00  0.00     0.505 C 
HETATM   23  F   UNL     1      41.284 -16.157  -1.132  1.00  0.00    -0.184 F 
HETATM   24  F   UNL     1      41.495 -14.002  -0.947  1.00  0.00    -0.184 F 
ENDBRANCH  21  22
ENDBRANCH   5  21
BRANCH   4  25
HETATM   25  C   UNL     1      39.611 -12.707   2.002  1.00  0.00     0.013 A 
HETATM   26  C   UNL     1      38.262 -12.323   1.818  1.00  0.00     0.152 A 
HETATM   27  N   UNL     1      38.139 -11.152   1.184  1.00  0.00    -0.187 NA
HETATM   28  N   UNL     1      39.408 -10.780   0.961  1.00  0.00    -0.289 N 
HETATM   29  H   UNL     1      39.574  -9.901   0.482  1.00  0.00     0.188 HD
HETATM   30  C   UNL     1      40.327 -11.676   1.428  1.00  0.00     0.123 A 
ENDBRANCH   4  25
TORSDOF 8
ENDMDL
MODEL 10
REMARK VINA RESULT:      -7.3      4.017      8.722
REMARK  8 active torsions:
REMARK  status: ('A' for Active; 'I' for Inactive)
REMARK    1  A    between atoms: O_1  and  C_2 
REMARK    2  A    between atoms: C_2  and  CA_3 
REMARK    3  A    between atoms: CA_3  and  N_4 
REMARK    4  A    between atoms: CA_3  and  C_23 
REMARK       I    between atoms: N_4  and  C_5 
REMARK    5  A    between atoms: C_5  and  C_7 
REMARK    6  A    between atoms: C_10  and  C_17 
REMARK    7  A    between atoms: C_11  and  O_12 
REMARK    8  A    between atoms: O_12  and  C_13 
ROOT
HETATM    1  C   UNL     1      40.479 -15.132   1.818  1.00  0.00     0.034 A 
HETATM    2  C   UNL     1      39.128 -14.813   1.981  1.00  0.00     0.018 A 
HETATM    3  C   UNL     1      38.402 -14.253   0.924  1.00  0.00     0.016 A 
HETATM    4  C   UNL     1      39.015 -13.985  -0.310  1.00  0.00     0.011 A 
HETATM    5  C   UNL     1      40.385 -14.271  -0.453  1.00  0.00     0.087 A 
HETATM    6  C   UNL     1      41.108 -14.853   0.598  1.00  0.00     0.054 A 
ENDROOT
BRANCH   1   7
HETATM    7  C   UNL     1      41.209 -15.745   2.965  1.00  0.00     0.252 C 
HETATM    8  N   UNL     1      40.661 -16.899   3.484  1.00  0.00    -0.346 N 
HETATM    9  H   UNL     1      39.678 -17.060   3.317  1.00  0.00     0.163 HD
HETATM   10  O   UNL     1      42.210 -15.197   3.410  1.00  0.00    -0.268 OA
BRANCH   8  11
HETATM   11  CA  UNL     1      41.184 -17.556   4.682  1.00  0.00     0.141 C 
BRANCH  11  12
HETATM   12  C   UNL     1      41.252 -16.586   5.883  1.00  0.00     0.194 C 
BRANCH  12  13
HETATM   13  O   UNL     1      39.927 -16.184   6.258  1.00  0.00    -0.399 OA
HETATM   14  H   UNL     1      39.962 -15.222   6.400  1.00  0.00     0.209 HD
ENDBRANCH  12  13
ENDBRANCH  11  12
BRANCH  11  15
HETATM   15  C   UNL     1      42.440 -18.359   4.383  1.00  0.00    -0.033 A 
HETATM   16  C   UNL     1      42.814 -18.734   3.085  1.00  0.00     0.009 A 
HETATM   17  C   UNL     1      43.986 -19.462   2.859  1.00  0.00     0.001 A 
HETATM   18  C   UNL     1      44.794 -19.839   3.929  1.00  0.00     0.000 A 
HETATM   19  C   UNL     1      44.429 -19.494   5.227  1.00  0.00     0.001 A 
HETATM   20  C   UNL     1      43.262 -18.762   5.452  1.00  0.00     0.009 A 
ENDBRANCH  11  15
ENDBRANCH   8  11
ENDBRANCH   1   7
BRANCH   5  21
HETATM   21  O   UNL     1      41.000 -14.036  -1.658  1.00  0.00    -0.289 OA
BRANCH  21  22
HETATM   22  C   UNL     1      41.483 -15.230  -2.261  1.00  0.00     0.505 C 
HETATM   23  F   UNL     1      40.438 -16.076  -2.441  1.00  0.00    -0.184 F 
HETATM   24  F   UNL     1      41.931 -14.905  -3.500  1.00  0.00    -0.184 F 
ENDBRANCH  21  22
ENDBRANCH   5  21
BRANCH   4  25
HETATM   25  C   UNL     1      38.226 -13.422  -1.398  1.00  0.00     0.013 A 
HETATM   26  C   UNL     1      37.696 -12.124  -1.591  1.00  0.00     0.152 A 
HETATM   27  N   UNL     1      37.023 -12.006  -2.740  1.00  0.00    -0.187 NA
HETATM   28  N   UNL     1      37.119 -13.226  -3.288  1.00  0.00    -0.289 N 
HETATM   29  H   UNL     1      36.675 -13.385  -4.187  1.00  0.00     0.188 HD
HETATM   30  C   UNL     1      37.826 -14.111  -2.525  1.00  0.00     0.123 A 
ENDBRANCH   4  25
TORSDOF 8
ENDMDL
