MODEL 1
REMARK VINA RESULT:      -8.7      0.000      0.000
REMARK  8 active torsions:
REMARK  status: ('A' for Active; 'I' for Inactive)
REMARK    1  A    between atoms: O_2  and  C_3 
REMARK    2  A    between atoms: C_4  and  O_5 
REMARK    3  A    between atoms: C_7  and  C_8 
REMARK    4  A    between atoms: N_9  and  N_10 
REMARK       I    between atoms: N_10  and  C_11 
REMARK    5  A    between atoms: C_11  and  C_12 
REMARK    6  A    between atoms: C_12  and  N_13 
REMARK       I    between atoms: N_13  and  C_14 
REMARK       I    between atoms: C_14  and  N_15 
REMARK    7  A    between atoms: N_15  and  C_16 
REMARK    8  A    between atoms: C_18  and  C_19 
ROOT
HETATM    1  C   UNL     1      39.377 -13.140   6.090  1.00  0.00     0.228 C 
ENDROOT
BRANCH   1   2
HETATM    2  C   UNL     1      40.527 -14.129   5.854  1.00  0.00     0.255 C 
HETATM    3  N   UNL     1      40.116 -15.449   5.760  1.00  0.00    -0.246 N 
HETATM    4  H   UNL     1      39.116 -15.661   5.796  1.00  0.00     0.192 HD
HETATM    5  O   UNL     1      41.674 -13.729   5.659  1.00  0.00    -0.270 OA
BRANCH   3   6
HETATM    6  N   UNL     1      41.007 -16.440   5.484  1.00  0.00    -0.184 NA
HETATM    7  C   UNL     1      41.213 -16.649   4.222  1.00  0.00     0.150 C 
BRANCH   7   8
HETATM    8  C   UNL     1      42.164 -17.677   3.757  1.00  0.00    -0.014 A 
HETATM    9  C   UNL     1      42.974 -18.320   4.691  1.00  0.00     0.052 A 
HETATM   10  C   UNL     1      43.867 -19.288   4.247  1.00  0.00     0.099 A 
HETATM   11  C   UNL     1      43.972 -19.634   2.892  1.00  0.00     0.101 A 
HETATM   12  C   UNL     1      43.152 -18.987   1.967  1.00  0.00     0.040 A 
HETATM   13  C   UNL     1      42.250 -18.008   2.400  1.00  0.00     0.016 A 
BRANCH  10  14
HETATM   14  O   UNL     1      44.659 -19.907   5.175  1.00  0.00    -0.358 OA
HETATM   15  H   UNL     1      45.146 -19.183   5.616  1.00  0.00     0.218 HD
ENDBRANCH  10  14
BRANCH  11  16
HETATM   16  O   UNL     1      44.899 -20.603   2.611  1.00  0.00    -0.353 OA
HETATM   17  C   UNL     1      44.393 -21.842   2.125  1.00  0.00     0.210 C 
ENDBRANCH  11  16
ENDBRANCH   7   8
ENDBRANCH   3   6
ENDBRANCH   1   2
BRANCH   1  18
HETATM   18  N   UNL     1      39.124 -12.784   7.486  1.00  0.00    -0.334 N 
HETATM   19  C   UNL     1      39.837 -11.778   8.094  1.00  0.00     0.321 C 
HETATM   20  N   UNL     1      39.517 -11.663   9.424  1.00  0.00    -0.309 N 
HETATM   21  O   UNL     1      40.593 -11.054   7.456  1.00  0.00    -0.247 OA
HETATM   22  H   UNL     1      38.665 -12.126   9.706  1.00  0.00     0.170 HD
HETATM   23  H   UNL     1      38.872 -13.554   8.086  1.00  0.00     0.164 HD
BRANCH  20  24
HETATM   24  C   UNL     1      40.088 -10.772  10.355  1.00  0.00     0.037 A 
HETATM   25  C   UNL     1      41.303 -11.008  11.003  1.00  0.00     0.045 A 
HETATM   26  C   UNL     1      41.825 -10.079  11.921  1.00  0.00     0.050 A 
HETATM   27  C   UNL     1      41.112  -8.899  12.176  1.00  0.00     0.016 A 
HETATM   28  C   UNL     1      39.892  -8.664  11.545  1.00  0.00     0.003 A 
HETATM   29  C   UNL     1      39.379  -9.601  10.645  1.00  0.00     0.029 A 
BRANCH  26  30
HETATM   30  C   UNL     1      43.150 -10.328  12.600  1.00  0.00     0.417 C 
HETATM   31  F   UNL     1      43.333  -9.589  13.729  1.00  0.00    -0.166 F 
HETATM   32  F   UNL     1      43.304 -11.629  12.972  1.00  0.00    -0.166 F 
HETATM   33  F   UNL     1      44.212 -10.043  11.795  1.00  0.00    -0.166 F 
ENDBRANCH  26  30
ENDBRANCH  20  24
ENDBRANCH   1  18
TORSDOF 8
ENDMDL
MODEL 2
REMARK VINA RESULT:      -8.4      5.519     11.793
REMARK  8 active torsions:
REMARK  status: ('A' for Active; 'I' for Inactive)
REMARK    1  A    between atoms: O_2  and  C_3 
REMARK    2  A    between atoms: C_4  and  O_5 
REMARK    3  A    between atoms: C_7  and  C_8 
REMARK    4  A    between atoms: N_9  and  N_10 
REMARK       I    between atoms: N_10  and  C_11 
REMARK    5  A    between atoms: C_11  and  C_12 
REMARK    6  A    between atoms: C_12  and  N_13 
REMARK       I    between atoms: N_13  and  C_14 
REMARK       I    between atoms: C_14  and  N_15 
REMARK    7  A    between atoms: N_15  and  C_16 
REMARK    8  A    between atoms: C_18  and  C_19 
ROOT
HETATM    1  C   UNL     1      45.029 -12.903   8.088  1.00  0.00     0.228 C 
ENDROOT
BRANCH   1   2
HETATM    2  C   UNL     1      44.709 -12.359   9.488  1.00  0.00     0.255 C 
HETATM    3  N   UNL     1      43.459 -11.770   9.584  1.00  0.00    -0.246 N 
HETATM    4  H   UNL     1      42.839 -11.785   8.771  1.00  0.00     0.192 HD
HETATM    5  O   UNL     1      45.475 -12.554  10.431  1.00  0.00    -0.270 OA
BRANCH   3   6
HETATM    6  N   UNL     1      42.998 -11.299  10.776  1.00  0.00    -0.184 NA
HETATM    7  C   UNL     1      43.266 -10.053  11.008  1.00  0.00     0.150 C 
BRANCH   7   8
HETATM    8  C   UNL     1      42.821  -9.388  12.247  1.00  0.00    -0.014 A 
HETATM    9  C   UNL     1      42.691 -10.145  13.410  1.00  0.00     0.052 A 
HETATM   10  C   UNL     1      42.272  -9.512  14.575  1.00  0.00     0.099 A 
HETATM   11  C   UNL     1      41.980  -8.141  14.610  1.00  0.00     0.101 A 
HETATM   12  C   UNL     1      42.120  -7.393  13.441  1.00  0.00     0.040 A 
HETATM   13  C   UNL     1      42.538  -8.018  12.260  1.00  0.00     0.016 A 
BRANCH  10  14
HETATM   14  O   UNL     1      42.144 -10.269  15.708  1.00  0.00    -0.358 OA
HETATM   15  H   UNL     1      41.228 -10.611  15.682  1.00  0.00     0.218 HD
ENDBRANCH  10  14
BRANCH  11  16
HETATM   16  O   UNL     1      41.577  -7.665  15.831  1.00  0.00    -0.353 OA
HETATM   17  C   UNL     1      40.212  -7.276  15.940  1.00  0.00     0.210 C 
ENDBRANCH  11  16
ENDBRANCH   7   8
ENDBRANCH   3   6
ENDBRANCH   1   2
BRANCH   1  18
HETATM   18  N   UNL     1      44.387 -14.170   7.740  1.00  0.00    -0.334 N 
HETATM   19  C   UNL     1      44.036 -14.445   6.439  1.00  0.00     0.321 C 
HETATM   20  N   UNL     1      43.366 -15.638   6.337  1.00  0.00    -0.309 N 
HETATM   21  O   UNL     1      44.379 -13.715   5.517  1.00  0.00    -0.247 OA
HETATM   22  H   UNL     1      43.441 -16.248   7.138  1.00  0.00     0.170 HD
HETATM   23  H   UNL     1      43.764 -14.543   8.440  1.00  0.00     0.164 HD
BRANCH  20  24
HETATM   24  C   UNL     1      42.822 -16.203   5.164  1.00  0.00     0.037 A 
HETATM   25  C   UNL     1      43.490 -17.151   4.385  1.00  0.00     0.045 A 
HETATM   26  C   UNL     1      42.896 -17.682   3.226  1.00  0.00     0.050 A 
HETATM   27  C   UNL     1      41.612 -17.254   2.862  1.00  0.00     0.016 A 
HETATM   28  C   UNL     1      40.946 -16.298   3.626  1.00  0.00     0.003 A 
HETATM   29  C   UNL     1      41.553 -15.769   4.767  1.00  0.00     0.029 A 
BRANCH  26  30
HETATM   30  C   UNL     1      43.613 -18.724   2.402  1.00  0.00     0.417 C 
HETATM   31  F   UNL     1      42.779 -19.629   1.820  1.00  0.00    -0.166 F 
HETATM   32  F   UNL     1      44.337 -18.174   1.388  1.00  0.00    -0.166 F 
HETATM   33  F   UNL     1      44.497 -19.456   3.136  1.00  0.00    -0.166 F 
ENDBRANCH  26  30
ENDBRANCH  20  24
ENDBRANCH   1  18
TORSDOF 8
ENDMDL
MODEL 3
REMARK VINA RESULT:      -8.3      6.014     10.937
REMARK  8 active torsions:
REMARK  status: ('A' for Active; 'I' for Inactive)
REMARK    1  A    between atoms: O_2  and  C_3 
REMARK    2  A    between atoms: C_4  and  O_5 
REMARK    3  A    between atoms: C_7  and  C_8 
REMARK    4  A    between atoms: N_9  and  N_10 
REMARK       I    between atoms: N_10  and  C_11 
REMARK    5  A    between atoms: C_11  and  C_12 
REMARK    6  A    between atoms: C_12  and  N_13 
REMARK       I    between atoms: N_13  and  C_14 
REMARK       I    between atoms: C_14  and  N_15 
REMARK    7  A    between atoms: N_15  and  C_16 
REMARK    8  A    between atoms: C_18  and  C_19 
ROOT
HETATM    1  C   UNL     1      40.815 -14.769  -0.661  1.00  0.00     0.228 C 
ENDROOT
BRANCH   1   2
HETATM    2  C   UNL     1      40.505 -13.630   0.321  1.00  0.00     0.255 C 
HETATM    3  N   UNL     1      39.661 -14.000   1.356  1.00  0.00    -0.246 N 
HETATM    4  H   UNL     1      39.360 -14.975   1.426  1.00  0.00     0.192 HD
HETATM    5  O   UNL     1      41.068 -12.540   0.220  1.00  0.00    -0.270 OA
BRANCH   3   6
HETATM    6  N   UNL     1      39.345 -13.122   2.347  1.00  0.00    -0.184 NA
HETATM    7  C   UNL     1      39.955 -13.329   3.471  1.00  0.00     0.150 C 
BRANCH   7   8
HETATM    8  C   UNL     1      39.735 -12.455   4.638  1.00  0.00    -0.014 A 
HETATM    9  C   UNL     1      39.507 -13.037   5.884  1.00  0.00     0.052 A 
HETATM   10  C   UNL     1      39.301 -12.208   6.981  1.00  0.00     0.099 A 
HETATM   11  C   UNL     1      39.317 -10.810   6.867  1.00  0.00     0.101 A 
HETATM   12  C   UNL     1      39.552 -10.240   5.616  1.00  0.00     0.040 A 
HETATM   13  C   UNL     1      39.758 -11.062   4.502  1.00  0.00     0.016 A 
BRANCH  10  14
HETATM   14  O   UNL     1      39.073 -12.794   8.197  1.00  0.00    -0.358 OA
HETATM   15  H   UNL     1      38.124 -12.641   8.377  1.00  0.00     0.218 HD
ENDBRANCH  10  14
BRANCH  11  16
HETATM   16  O   UNL     1      39.095 -10.131   8.037  1.00  0.00    -0.353 OA
HETATM   17  C   UNL     1      40.077  -9.169   8.406  1.00  0.00     0.210 C 
ENDBRANCH  11  16
ENDBRANCH   7   8
ENDBRANCH   3   6
ENDBRANCH   1   2
BRANCH   1  18
HETATM   18  N   UNL     1      42.006 -15.561  -0.356  1.00  0.00    -0.334 N 
HETATM   19  C   UNL     1      41.981 -16.515   0.635  1.00  0.00     0.321 C 
HETATM   20  N   UNL     1      43.218 -17.078   0.827  1.00  0.00    -0.309 N 
HETATM   21  O   UNL     1      40.935 -16.835   1.187  1.00  0.00    -0.247 OA
HETATM   22  H   UNL     1      43.887 -16.919   0.087  1.00  0.00     0.170 HD
HETATM   23  H   UNL     1      42.884 -15.074  -0.460  1.00  0.00     0.164 HD
BRANCH  20  24
HETATM   24  C   UNL     1      43.562 -18.050   1.789  1.00  0.00     0.037 A 
HETATM   25  C   UNL     1      43.644 -19.417   1.508  1.00  0.00     0.045 A 
HETATM   26  C   UNL     1      43.996 -20.341   2.508  1.00  0.00     0.050 A 
HETATM   27  C   UNL     1      44.275 -19.872   3.799  1.00  0.00     0.016 A 
HETATM   28  C   UNL     1      44.181 -18.513   4.091  1.00  0.00     0.003 A 
HETATM   29  C   UNL     1      43.818 -17.608   3.091  1.00  0.00     0.029 A 
BRANCH  26  30
HETATM   30  C   UNL     1      44.106 -21.812   2.192  1.00  0.00     0.417 C 
HETATM   31  F   UNL     1      44.108 -22.609   3.296  1.00  0.00    -0.166 F 
HETATM   32  F   UNL     1      43.081 -22.252   1.411  1.00  0.00    -0.166 F 
HETATM   33  F   UNL     1      45.248 -22.119   1.514  1.00  0.00    -0.166 F 
ENDBRANCH  26  30
ENDBRANCH  20  24
ENDBRANCH   1  18
TORSDOF 8
ENDMDL
MODEL 4
REMARK VINA RESULT:      -8.0      6.569      9.474
REMARK  8 active torsions:
REMARK  status: ('A' for Active; 'I' for Inactive)
REMARK    1  A    between atoms: O_2  and  C_3 
REMARK    2  A    between atoms: C_4  and  O_5 
REMARK    3  A    between atoms: C_7  and  C_8 
REMARK    4  A    between atoms: N_9  and  N_10 
REMARK       I    between atoms: N_10  and  C_11 
REMARK    5  A    between atoms: C_11  and  C_12 
REMARK    6  A    between atoms: C_12  and  N_13 
REMARK       I    between atoms: N_13  and  C_14 
REMARK       I    between atoms: C_14  and  N_15 
REMARK    7  A    between atoms: N_15  and  C_16 
REMARK    8  A    between atoms: C_18  and  C_19 
ROOT
HETATM    1  C   UNL     1      39.714 -13.359   5.266  1.00  0.00     0.228 C 
ENDROOT
BRANCH   1   2
HETATM    2  C   UNL     1      39.801 -12.713   3.875  1.00  0.00     0.255 C 
HETATM    3  N   UNL     1      41.089 -12.651   3.370  1.00  0.00    -0.246 N 
HETATM    4  H   UNL     1      41.854 -13.069   3.905  1.00  0.00     0.192 HD
HETATM    5  O   UNL     1      38.782 -12.401   3.260  1.00  0.00    -0.270 OA
BRANCH   3   6
HETATM    6  N   UNL     1      41.326 -12.168   2.119  1.00  0.00    -0.184 NA
HETATM    7  C   UNL     1      41.598 -13.072   1.231  1.00  0.00     0.150 C 
BRANCH   7   8
HETATM    8  C   UNL     1      41.861 -12.714  -0.175  1.00  0.00    -0.014 A 
HETATM    9  C   UNL     1      41.846 -13.718  -1.142  1.00  0.00     0.052 A 
HETATM   10  C   UNL     1      42.094 -13.373  -2.466  1.00  0.00     0.099 A 
HETATM   11  C   UNL     1      42.358 -12.051  -2.852  1.00  0.00     0.101 A 
HETATM   12  C   UNL     1      42.366 -11.054  -1.875  1.00  0.00     0.040 A 
HETATM   13  C   UNL     1      42.120 -11.387  -0.538  1.00  0.00     0.016 A 
BRANCH  10  14
HETATM   14  O   UNL     1      42.080 -14.370  -3.404  1.00  0.00    -0.358 OA
HETATM   15  H   UNL     1      42.824 -14.956  -3.161  1.00  0.00     0.218 HD
ENDBRANCH  10  14
BRANCH  11  16
HETATM   16  O   UNL     1      42.586 -11.872  -4.191  1.00  0.00    -0.353 OA
HETATM   17  C   UNL     1      42.434 -10.547  -4.688  1.00  0.00     0.210 C 
ENDBRANCH  11  16
ENDBRANCH   7   8
ENDBRANCH   3   6
ENDBRANCH   1   2
BRANCH   1  18
HETATM   18  N   UNL     1      39.839 -14.815   5.297  1.00  0.00    -0.334 N 
HETATM   19  C   UNL     1      41.074 -15.416   5.220  1.00  0.00     0.321 C 
HETATM   20  N   UNL     1      40.969 -16.783   5.171  1.00  0.00    -0.309 N 
HETATM   21  O   UNL     1      42.107 -14.760   5.274  1.00  0.00    -0.247 OA
HETATM   22  H   UNL     1      40.073 -17.160   5.444  1.00  0.00     0.170 HD
HETATM   23  H   UNL     1      39.088 -15.320   4.851  1.00  0.00     0.164 HD
BRANCH  20  24
HETATM   24  C   UNL     1      42.027 -17.707   5.043  1.00  0.00     0.037 A 
HETATM   25  C   UNL     1      42.456 -18.222   3.817  1.00  0.00     0.045 A 
HETATM   26  C   UNL     1      43.521 -19.139   3.752  1.00  0.00     0.050 A 
HETATM   27  C   UNL     1      44.159 -19.527   4.938  1.00  0.00     0.016 A 
HETATM   28  C   UNL     1      43.727 -19.029   6.165  1.00  0.00     0.003 A 
HETATM   29  C   UNL     1      42.661 -18.128   6.217  1.00  0.00     0.029 A 
BRANCH  26  30
HETATM   30  C   UNL     1      43.995 -19.674   2.422  1.00  0.00     0.417 C 
HETATM   31  F   UNL     1      43.076 -20.451   1.786  1.00  0.00    -0.166 F 
HETATM   32  F   UNL     1      44.317 -18.680   1.550  1.00  0.00    -0.166 F 
HETATM   33  F   UNL     1      45.114 -20.445   2.537  1.00  0.00    -0.166 F 
ENDBRANCH  26  30
ENDBRANCH  20  24
ENDBRANCH   1  18
TORSDOF 8
ENDMDL
MODEL 5
REMARK VINA RESULT:      -8.0      1.959      2.161
REMARK  8 active torsions:
REMARK  status: ('A' for Active; 'I' for Inactive)
REMARK    1  A    between atoms: O_2  and  C_3 
REMARK    2  A    between atoms: C_4  and  O_5 
REMARK    3  A    between atoms: C_7  and  C_8 
REMARK    4  A    between atoms: N_9  and  N_10 
REMARK       I    between atoms: N_10  and  C_11 
REMARK    5  A    between atoms: C_11  and  C_12 
REMARK    6  A    between atoms: C_12  and  N_13 
REMARK       I    between atoms: N_13  and  C_14 
REMARK       I    between atoms: C_14  and  N_15 
REMARK    7  A    between atoms: N_15  and  C_16 
REMARK    8  A    between atoms: C_18  and  C_19 
ROOT
HETATM    1  C   UNL     1      41.264 -11.871   3.818  1.00  0.00     0.228 C 
ENDROOT
BRANCH   1   2
HETATM    2  C   UNL     1      42.205 -13.033   3.469  1.00  0.00     0.255 C 
HETATM    3  N   UNL     1      42.142 -14.090   4.363  1.00  0.00    -0.246 N 
HETATM    4  H   UNL     1      41.464 -14.052   5.128  1.00  0.00     0.192 HD
HETATM    5  O   UNL     1      42.851 -13.028   2.422  1.00  0.00    -0.270 OA
BRANCH   3   6
HETATM    6  N   UNL     1      42.865 -15.224   4.156  1.00  0.00    -0.184 NA
HETATM    7  C   UNL     1      42.179 -16.232   3.718  1.00  0.00     0.150 C 
BRANCH   7   8
HETATM    8  C   UNL     1      42.819 -17.530   3.427  1.00  0.00    -0.014 A 
HETATM    9  C   UNL     1      43.650 -18.103   4.388  1.00  0.00     0.052 A 
HETATM   10  C   UNL     1      44.249 -19.326   4.108  1.00  0.00     0.099 A 
HETATM   11  C   UNL     1      44.039 -19.994   2.893  1.00  0.00     0.101 A 
HETATM   12  C   UNL     1      43.200 -19.412   1.941  1.00  0.00     0.040 A 
HETATM   13  C   UNL     1      42.593 -18.180   2.208  1.00  0.00     0.016 A 
BRANCH  10  14
HETATM   14  O   UNL     1      45.066 -19.875   5.059  1.00  0.00    -0.358 OA
HETATM   15  H   UNL     1      44.514 -19.935   5.863  1.00  0.00     0.218 HD
ENDBRANCH  10  14
BRANCH  11  16
HETATM   16  O   UNL     1      44.700 -21.187   2.765  1.00  0.00    -0.353 OA
HETATM   17  C   UNL     1      44.309 -22.015   1.675  1.00  0.00     0.210 C 
ENDBRANCH  11  16
ENDBRANCH   7   8
ENDBRANCH   3   6
ENDBRANCH   1   2
BRANCH   1  18
HETATM   18  N   UNL     1      41.714 -10.993   4.897  1.00  0.00    -0.334 N 
HETATM   19  C   UNL     1      41.473 -11.317   6.212  1.00  0.00     0.321 C 
HETATM   20  N   UNL     1      41.890 -10.323   7.062  1.00  0.00    -0.309 N 
HETATM   21  O   UNL     1      41.013 -12.408   6.528  1.00  0.00    -0.247 OA
HETATM   22  H   UNL     1      42.517  -9.642   6.659  1.00  0.00     0.170 HD
HETATM   23  H   UNL     1      41.690 -10.007   4.687  1.00  0.00     0.164 HD
BRANCH  20  24
HETATM   24  C   UNL     1      41.756 -10.303   8.466  1.00  0.00     0.037 A 
HETATM   25  C   UNL     1      42.805 -10.587   9.344  1.00  0.00     0.045 A 
HETATM   26  C   UNL     1      42.613 -10.547  10.736  1.00  0.00     0.050 A 
HETATM   27  C   UNL     1      41.349 -10.208  11.240  1.00  0.00     0.016 A 
HETATM   28  C   UNL     1      40.295  -9.938  10.370  1.00  0.00     0.003 A 
HETATM   29  C   UNL     1      40.497  -9.993   8.989  1.00  0.00     0.029 A 
BRANCH  26  30
HETATM   30  C   UNL     1      43.756 -10.831  11.680  1.00  0.00     0.417 C 
HETATM   31  F   UNL     1      44.953 -11.000  11.054  1.00  0.00    -0.166 F 
HETATM   32  F   UNL     1      43.942  -9.830  12.584  1.00  0.00    -0.166 F 
HETATM   33  F   UNL     1      43.561 -11.964  12.413  1.00  0.00    -0.166 F 
ENDBRANCH  26  30
ENDBRANCH  20  24
ENDBRANCH   1  18
TORSDOF 8
ENDMDL
MODEL 6
REMARK VINA RESULT:      -7.9      5.946      8.850
REMARK  8 active torsions:
REMARK  status: ('A' for Active; 'I' for Inactive)
REMARK    1  A    between atoms: O_2  and  C_3 
REMARK    2  A    between atoms: C_4  and  O_5 
REMARK    3  A    between atoms: C_7  and  C_8 
REMARK    4  A    between atoms: N_9  and  N_10 
REMARK       I    between atoms: N_10  and  C_11 
REMARK    5  A    between atoms: C_11  and  C_12 
REMARK    6  A    between atoms: C_12  and  N_13 
REMARK       I    between atoms: N_13  and  C_14 
REMARK       I    between atoms: C_14  and  N_15 
REMARK    7  A    between atoms: N_15  and  C_16 
REMARK    8  A    between atoms: C_18  and  C_19 
ROOT
HETATM    1  C   UNL     1      40.246 -13.318   6.144  1.00  0.00     0.228 C 
ENDROOT
BRANCH   1   2
HETATM    2  C   UNL     1      39.823 -12.952   4.714  1.00  0.00     0.255 C 
HETATM    3  N   UNL     1      40.528 -13.631   3.734  1.00  0.00    -0.246 N 
HETATM    4  H   UNL     1      41.212 -14.338   4.014  1.00  0.00     0.192 HD
HETATM    5  O   UNL     1      38.865 -12.208   4.511  1.00  0.00    -0.270 OA
BRANCH   3   6
HETATM    6  N   UNL     1      40.225 -13.469   2.417  1.00  0.00    -0.184 NA
HETATM    7  C   UNL     1      40.362 -14.535   1.693  1.00  0.00     0.150 C 
BRANCH   7   8
HETATM    8  C   UNL     1      40.057 -14.529   0.250  1.00  0.00    -0.014 A 
HETATM    9  C   UNL     1      40.966 -15.106  -0.635  1.00  0.00     0.052 A 
HETATM   10  C   UNL     1      40.672 -15.098  -1.994  1.00  0.00     0.099 A 
HETATM   11  C   UNL     1      39.492 -14.529  -2.494  1.00  0.00     0.101 A 
HETATM   12  C   UNL     1      38.587 -13.960  -1.598  1.00  0.00     0.040 A 
HETATM   13  C   UNL     1      38.872 -13.957  -0.227  1.00  0.00     0.016 A 
BRANCH  10  14
HETATM   14  O   UNL     1      41.577 -15.665  -2.851  1.00  0.00    -0.358 OA
HETATM   15  H   UNL     1      41.714 -16.571  -2.511  1.00  0.00     0.218 HD
ENDBRANCH  10  14
BRANCH  11  16
HETATM   16  O   UNL     1      39.348 -14.598  -3.855  1.00  0.00    -0.353 OA
HETATM   17  C   UNL     1      38.389 -15.530  -4.344  1.00  0.00     0.210 C 
ENDBRANCH  11  16
ENDBRANCH   7   8
ENDBRANCH   3   6
ENDBRANCH   1   2
BRANCH   1  18
HETATM   18  N   UNL     1      40.450 -14.744   6.399  1.00  0.00    -0.334 N 
HETATM   19  C   UNL     1      41.601 -15.373   5.987  1.00  0.00     0.321 C 
HETATM   20  N   UNL     1      41.558 -16.722   6.237  1.00  0.00    -0.309 N 
HETATM   21  O   UNL     1      42.547 -14.741   5.532  1.00  0.00    -0.247 OA
HETATM   22  H   UNL     1      40.845 -17.020   6.886  1.00  0.00     0.170 HD
HETATM   23  H   UNL     1      39.616 -15.310   6.364  1.00  0.00     0.164 HD
BRANCH  20  24
HETATM   24  C   UNL     1      42.544 -17.673   5.903  1.00  0.00     0.037 A 
HETATM   25  C   UNL     1      42.794 -18.099   4.596  1.00  0.00     0.045 A 
HETATM   26  C   UNL     1      43.793 -19.049   4.323  1.00  0.00     0.050 A 
HETATM   27  C   UNL     1      44.550 -19.565   5.385  1.00  0.00     0.016 A 
HETATM   28  C   UNL     1      44.297 -19.157   6.693  1.00  0.00     0.003 A 
HETATM   29  C   UNL     1      43.292 -18.221   6.951  1.00  0.00     0.029 A 
BRANCH  26  30
HETATM   30  C   UNL     1      44.075 -19.487   2.906  1.00  0.00     0.417 C 
HETATM   31  F   UNL     1      44.445 -18.468   2.083  1.00  0.00    -0.166 F 
HETATM   32  F   UNL     1      45.075 -20.408   2.839  1.00  0.00    -0.166 F 
HETATM   33  F   UNL     1      42.994 -20.066   2.312  1.00  0.00    -0.166 F 
ENDBRANCH  26  30
ENDBRANCH  20  24
ENDBRANCH   1  18
TORSDOF 8
ENDMDL
MODEL 7
REMARK VINA RESULT:      -7.9      7.941     11.257
REMARK  8 active torsions:
REMARK  status: ('A' for Active; 'I' for Inactive)
REMARK    1  A    between atoms: O_2  and  C_3 
REMARK    2  A    between atoms: C_4  and  O_5 
REMARK    3  A    between atoms: C_7  and  C_8 
REMARK    4  A    between atoms: N_9  and  N_10 
REMARK       I    between atoms: N_10  and  C_11 
REMARK    5  A    between atoms: C_11  and  C_12 
REMARK    6  A    between atoms: C_12  and  N_13 
REMARK       I    between atoms: N_13  and  C_14 
REMARK       I    between atoms: C_14  and  N_15 
REMARK    7  A    between atoms: N_15  and  C_16 
REMARK    8  A    between atoms: C_18  and  C_19 
ROOT
HETATM    1  C   UNL     1      41.258 -14.153   2.875  1.00  0.00     0.228 C 
ENDROOT
BRANCH   1   2
HETATM    2  C   UNL     1      40.119 -14.309   1.857  1.00  0.00     0.255 C 
HETATM    3  N   UNL     1      40.465 -13.925   0.571  1.00  0.00    -0.246 N 
HETATM    4  H   UNL     1      41.426 -13.631   0.382  1.00  0.00     0.192 HD
HETATM    5  O   UNL     1      39.055 -14.836   2.177  1.00  0.00    -0.270 OA
BRANCH   3   6
HETATM    6  N   UNL     1      39.587 -14.067  -0.460  1.00  0.00    -0.184 NA
HETATM    7  C   UNL     1      39.109 -12.955  -0.922  1.00  0.00     0.150 C 
BRANCH   7   8
HETATM    8  C   UNL     1      38.158 -12.937  -2.050  1.00  0.00    -0.014 A 
HETATM    9  C   UNL     1      38.147 -14.008  -2.942  1.00  0.00     0.052 A 
HETATM   10  C   UNL     1      37.248 -13.984  -4.002  1.00  0.00     0.099 A 
HETATM   11  C   UNL     1      36.358 -12.918  -4.196  1.00  0.00     0.101 A 
HETATM   12  C   UNL     1      36.375 -11.854  -3.294  1.00  0.00     0.040 A 
HETATM   13  C   UNL     1      37.277 -11.863  -2.223  1.00  0.00     0.016 A 
BRANCH  10  14
HETATM   14  O   UNL     1      37.252 -15.041  -4.872  1.00  0.00    -0.358 OA
HETATM   15  H   UNL     1      37.411 -14.644  -5.751  1.00  0.00     0.218 HD
ENDBRANCH  10  14
BRANCH  11  16
HETATM   16  O   UNL     1      35.537 -13.040  -5.287  1.00  0.00    -0.353 OA
HETATM   17  C   UNL     1      34.188 -12.619  -5.115  1.00  0.00     0.210 C 
ENDBRANCH  11  16
ENDBRANCH   7   8
ENDBRANCH   3   6
ENDBRANCH   1   2
BRANCH   1  18
HETATM   18  N   UNL     1      42.396 -15.054   2.695  1.00  0.00    -0.334 N 
HETATM   19  C   UNL     1      42.402 -16.302   3.274  1.00  0.00     0.321 C 
HETATM   20  N   UNL     1      43.592 -16.951   3.064  1.00  0.00    -0.309 N 
HETATM   21  O   UNL     1      41.406 -16.754   3.827  1.00  0.00    -0.247 OA
HETATM   22  H   UNL     1      44.176 -16.563   2.338  1.00  0.00     0.170 HD
HETATM   23  H   UNL     1      43.296 -14.603   2.640  1.00  0.00     0.164 HD
BRANCH  20  24
HETATM   24  C   UNL     1      43.958 -18.222   3.554  1.00  0.00     0.037 A 
HETATM   25  C   UNL     1      43.929 -19.384   2.777  1.00  0.00     0.045 A 
HETATM   26  C   UNL     1      44.308 -20.625   3.320  1.00  0.00     0.050 A 
HETATM   27  C   UNL     1      44.727 -20.684   4.656  1.00  0.00     0.016 A 
HETATM   28  C   UNL     1      44.744 -19.533   5.440  1.00  0.00     0.003 A 
HETATM   29  C   UNL     1      44.353 -18.309   4.893  1.00  0.00     0.029 A 
BRANCH  26  30
HETATM   30  C   UNL     1      44.299 -21.872   2.469  1.00  0.00     0.417 C 
HETATM   31  F   UNL     1      44.473 -23.020   3.181  1.00  0.00    -0.166 F 
HETATM   32  F   UNL     1      43.130 -22.025   1.788  1.00  0.00    -0.166 F 
HETATM   33  F   UNL     1      45.283 -21.871   1.526  1.00  0.00    -0.166 F 
ENDBRANCH  26  30
ENDBRANCH  20  24
ENDBRANCH   1  18
TORSDOF 8
ENDMDL
MODEL 8
REMARK VINA RESULT:      -7.8      4.547     10.075
REMARK  8 active torsions:
REMARK  status: ('A' for Active; 'I' for Inactive)
REMARK    1  A    between atoms: O_2  and  C_3 
REMARK    2  A    between atoms: C_4  and  O_5 
REMARK    3  A    between atoms: C_7  and  C_8 
REMARK    4  A    between atoms: N_9  and  N_10 
REMARK       I    between atoms: N_10  and  C_11 
REMARK    5  A    between atoms: C_11  and  C_12 
REMARK    6  A    between atoms: C_12  and  N_13 
REMARK       I    between atoms: N_13  and  C_14 
REMARK       I    between atoms: C_14  and  N_15 
REMARK    7  A    between atoms: N_15  and  C_16 
REMARK    8  A    between atoms: C_18  and  C_19 
ROOT
HETATM    1  C   UNL     1      41.012 -15.595  -0.535  1.00  0.00     0.228 C 
ENDROOT
BRANCH   1   2
HETATM    2  C   UNL     1      40.651 -14.394   0.351  1.00  0.00     0.255 C 
HETATM    3  N   UNL     1      39.797 -14.710   1.395  1.00  0.00    -0.246 N 
HETATM    4  H   UNL     1      39.520 -15.684   1.533  1.00  0.00     0.192 HD
HETATM    5  O   UNL     1      41.187 -13.300   0.179  1.00  0.00    -0.270 OA
BRANCH   3   6
HETATM    6  N   UNL     1      39.436 -13.769   2.311  1.00  0.00    -0.184 NA
HETATM    7  C   UNL     1      40.043 -13.863   3.452  1.00  0.00     0.150 C 
BRANCH   7   8
HETATM    8  C   UNL     1      39.777 -12.909   4.545  1.00  0.00    -0.014 A 
HETATM    9  C   UNL     1      39.600 -11.561   4.237  1.00  0.00     0.052 A 
HETATM   10  C   UNL     1      39.349 -10.667   5.272  1.00  0.00     0.099 A 
HETATM   11  C   UNL     1      39.268 -11.083   6.609  1.00  0.00     0.101 A 
HETATM   12  C   UNL     1      39.441 -12.436   6.904  1.00  0.00     0.040 A 
HETATM   13  C   UNL     1      39.698 -13.347   5.872  1.00  0.00     0.016 A 
BRANCH  10  14
HETATM   14  O   UNL     1      39.183  -9.346   4.955  1.00  0.00    -0.358 OA
HETATM   15  H   UNL     1      38.544  -9.006   5.614  1.00  0.00     0.218 HD
ENDBRANCH  10  14
BRANCH  11  16
HETATM   16  O   UNL     1      39.017 -10.085   7.513  1.00  0.00    -0.353 OA
HETATM   17  C   UNL     1      39.240 -10.400   8.883  1.00  0.00     0.210 C 
ENDBRANCH  11  16
ENDBRANCH   7   8
ENDBRANCH   3   6
ENDBRANCH   1   2
BRANCH   1  18
HETATM   18  N   UNL     1      42.223 -16.322  -0.155  1.00  0.00    -0.334 N 
HETATM   19  C   UNL     1      42.220 -17.176   0.923  1.00  0.00     0.321 C 
HETATM   20  N   UNL     1      43.470 -17.685   1.169  1.00  0.00    -0.309 N 
HETATM   21  O   UNL     1      41.181 -17.469   1.503  1.00  0.00    -0.247 OA
HETATM   22  H   UNL     1      44.137 -17.580   0.418  1.00  0.00     0.170 HD
HETATM   23  H   UNL     1      43.087 -15.824  -0.305  1.00  0.00     0.164 HD
BRANCH  20  24
HETATM   24  C   UNL     1      43.837 -18.550   2.220  1.00  0.00     0.037 A 
HETATM   25  C   UNL     1      44.027 -18.126   3.538  1.00  0.00     0.045 A 
HETATM   26  C   UNL     1      44.389 -19.037   4.546  1.00  0.00     0.050 A 
HETATM   27  C   UNL     1      44.552 -20.389   4.215  1.00  0.00     0.016 A 
HETATM   28  C   UNL     1      44.379 -20.817   2.901  1.00  0.00     0.003 A 
HETATM   29  C   UNL     1      44.031 -19.900   1.907  1.00  0.00     0.029 A 
BRANCH  26  30
HETATM   30  C   UNL     1      44.569 -18.576   5.972  1.00  0.00     0.417 C 
HETATM   31  F   UNL     1      44.262 -19.527   6.896  1.00  0.00    -0.166 F 
HETATM   32  F   UNL     1      45.849 -18.194   6.235  1.00  0.00    -0.166 F 
HETATM   33  F   UNL     1      43.789 -17.501   6.278  1.00  0.00    -0.166 F 
ENDBRANCH  26  30
ENDBRANCH  20  24
ENDBRANCH   1  18
TORSDOF 8
ENDMDL
MODEL 9
REMARK VINA RESULT:      -7.7      2.041      2.569
REMARK  8 active torsions:
REMARK  status: ('A' for Active; 'I' for Inactive)
REMARK    1  A    between atoms: O_2  and  C_3 
REMARK    2  A    between atoms: C_4  and  O_5 
REMARK    3  A    between atoms: C_7  and  C_8 
REMARK    4  A    between atoms: N_9  and  N_10 
REMARK       I    between atoms: N_10  and  C_11 
REMARK    5  A    between atoms: C_11  and  C_12 
REMARK    6  A    between atoms: C_12  and  N_13 
REMARK       I    between atoms: N_13  and  C_14 
REMARK       I    between atoms: C_14  and  N_15 
REMARK    7  A    between atoms: N_15  and  C_16 
REMARK    8  A    between atoms: C_18  and  C_19 
ROOT
HETATM    1  C   UNL     1      40.819 -11.240   6.122  1.00  0.00     0.228 C 
ENDROOT
BRANCH   1   2
HETATM    2  C   UNL     1      41.511 -12.351   5.319  1.00  0.00     0.255 C 
HETATM    3  N   UNL     1      41.529 -13.577   5.964  1.00  0.00    -0.246 N 
HETATM    4  H   UNL     1      41.054 -13.671   6.864  1.00  0.00     0.192 HD
HETATM    5  O   UNL     1      41.896 -12.150   4.168  1.00  0.00    -0.270 OA
BRANCH   3   6
HETATM    6  N   UNL     1      42.046 -14.679   5.355  1.00  0.00    -0.184 NA
HETATM    7  C   UNL     1      42.415 -15.622   6.162  1.00  0.00     0.150 C 
BRANCH   7   8
HETATM    8  C   UNL     1      42.980 -16.889   5.659  1.00  0.00    -0.014 A 
HETATM    9  C   UNL     1      43.062 -17.981   6.522  1.00  0.00     0.052 A 
HETATM   10  C   UNL     1      43.595 -19.172   6.041  1.00  0.00     0.099 A 
HETATM   11  C   UNL     1      44.047 -19.303   4.720  1.00  0.00     0.101 A 
HETATM   12  C   UNL     1      43.954 -18.204   3.865  1.00  0.00     0.040 A 
HETATM   13  C   UNL     1      43.423 -16.998   4.336  1.00  0.00     0.016 A 
BRANCH  10  14
HETATM   14  O   UNL     1      43.674 -20.235   6.900  1.00  0.00    -0.358 OA
HETATM   15  H   UNL     1      43.907 -19.843   7.765  1.00  0.00     0.218 HD
ENDBRANCH  10  14
BRANCH  11  16
HETATM   16  O   UNL     1      44.547 -20.537   4.398  1.00  0.00    -0.353 OA
HETATM   17  C   UNL     1      44.671 -20.828   3.010  1.00  0.00     0.210 C 
ENDBRANCH  11  16
ENDBRANCH   7   8
ENDBRANCH   3   6
ENDBRANCH   1   2
BRANCH   1  18
HETATM   18  N   UNL     1      40.726 -11.465   7.564  1.00  0.00    -0.334 N 
HETATM   19  C   UNL     1      41.506 -10.745   8.438  1.00  0.00     0.321 C 
HETATM   20  N   UNL     1      41.339 -11.169   9.732  1.00  0.00    -0.309 N 
HETATM   21  O   UNL     1      42.185  -9.798   8.058  1.00  0.00    -0.247 OA
HETATM   22  H   UNL     1      40.524 -11.741   9.900  1.00  0.00     0.170 HD
HETATM   23  H   UNL     1      40.543 -12.418   7.839  1.00  0.00     0.164 HD
BRANCH  20  24
HETATM   24  C   UNL     1      42.013 -10.684  10.873  1.00  0.00     0.037 A 
HETATM   25  C   UNL     1      41.358 -10.176  11.997  1.00  0.00     0.045 A 
HETATM   26  C   UNL     1      42.084  -9.710  13.108  1.00  0.00     0.050 A 
HETATM   27  C   UNL     1      43.484  -9.769  13.079  1.00  0.00     0.016 A 
HETATM   28  C   UNL     1      44.145 -10.260  11.955  1.00  0.00     0.003 A 
HETATM   29  C   UNL     1      43.411 -10.708  10.854  1.00  0.00     0.029 A 
BRANCH  26  30
HETATM   30  C   UNL     1      41.370  -9.185  14.330  1.00  0.00     0.417 C 
HETATM   31  F   UNL     1      41.233 -10.108  15.321  1.00  0.00    -0.166 F 
HETATM   32  F   UNL     1      42.014  -8.124  14.889  1.00  0.00    -0.166 F 
HETATM   33  F   UNL     1      40.108  -8.751  14.053  1.00  0.00    -0.166 F 
ENDBRANCH  26  30
ENDBRANCH  20  24
ENDBRANCH   1  18
TORSDOF 8
ENDMDL
MODEL 10
REMARK VINA RESULT:      -7.7      5.688     11.314
REMARK  8 active torsions:
REMARK  status: ('A' for Active; 'I' for Inactive)
REMARK    1  A    between atoms: O_2  and  C_3 
REMARK    2  A    between atoms: C_4  and  O_5 
REMARK    3  A    between atoms: C_7  and  C_8 
REMARK    4  A    between atoms: N_9  and  N_10 
REMARK       I    between atoms: N_10  and  C_11 
REMARK    5  A    between atoms: C_11  and  C_12 
REMARK    6  A    between atoms: C_12  and  N_13 
REMARK       I    between atoms: N_13  and  C_14 
REMARK       I    between atoms: C_14  and  N_15 
REMARK    7  A    between atoms: N_15  and  C_16 
REMARK    8  A    between atoms: C_18  and  C_19 
ROOT
HETATM    1  C   UNL     1      41.404 -13.973   2.870  1.00  0.00     0.228 C 
ENDROOT
BRANCH   1   2
HETATM    2  C   UNL     1      41.701 -12.924   3.951  1.00  0.00     0.255 C 
HETATM    3  N   UNL     1      40.565 -12.326   4.473  1.00  0.00    -0.246 N 
HETATM    4  H   UNL     1      39.646 -12.646   4.160  1.00  0.00     0.192 HD
HETATM    5  O   UNL     1      42.847 -12.748   4.362  1.00  0.00    -0.270 OA
BRANCH   3   6
HETATM    6  N   UNL     1      40.655 -11.423   5.489  1.00  0.00    -0.184 NA
HETATM    7  C   UNL     1      40.338 -11.886   6.656  1.00  0.00     0.150 C 
BRANCH   7   8
HETATM    8  C   UNL     1      40.400 -11.040   7.863  1.00  0.00    -0.014 A 
HETATM    9  C   UNL     1      39.255 -10.894   8.644  1.00  0.00     0.052 A 
HETATM   10  C   UNL     1      39.320 -10.095   9.781  1.00  0.00     0.099 A 
HETATM   11  C   UNL     1      40.500  -9.438  10.159  1.00  0.00     0.101 A 
HETATM   12  C   UNL     1      41.640  -9.597   9.371  1.00  0.00     0.040 A 
HETATM   13  C   UNL     1      41.589 -10.395   8.222  1.00  0.00     0.016 A 
BRANCH  10  14
HETATM   14  O   UNL     1      38.187  -9.957  10.536  1.00  0.00    -0.358 OA
HETATM   15  H   UNL     1      37.449 -10.012   9.896  1.00  0.00     0.218 HD
ENDBRANCH  10  14
BRANCH  11  16
HETATM   16  O   UNL     1      40.404  -8.687  11.301  1.00  0.00    -0.353 OA
HETATM   17  C   UNL     1      40.540  -7.278  11.146  1.00  0.00     0.210 C 
ENDBRANCH  11  16
ENDBRANCH   7   8
ENDBRANCH   3   6
ENDBRANCH   1   2
BRANCH   1  18
HETATM   18  N   UNL     1      42.472 -14.939   2.615  1.00  0.00    -0.334 N 
HETATM   19  C   UNL     1      42.472 -16.166   3.235  1.00  0.00     0.321 C 
HETATM   20  N   UNL     1      43.603 -16.884   2.937  1.00  0.00    -0.309 N 
HETATM   21  O   UNL     1      41.514 -16.547   3.897  1.00  0.00    -0.247 OA
HETATM   22  H   UNL     1      44.132 -16.550   2.144  1.00  0.00     0.170 HD
HETATM   23  H   UNL     1      43.385 -14.538   2.457  1.00  0.00     0.164 HD
BRANCH  20  24
HETATM   24  C   UNL     1      43.950 -18.157   3.435  1.00  0.00     0.037 A 
HETATM   25  C   UNL     1      43.904 -19.323   2.667  1.00  0.00     0.045 A 
HETATM   26  C   UNL     1      44.266 -20.566   3.218  1.00  0.00     0.050 A 
HETATM   27  C   UNL     1      44.685 -20.622   4.554  1.00  0.00     0.016 A 
HETATM   28  C   UNL     1      44.719 -19.465   5.330  1.00  0.00     0.003 A 
HETATM   29  C   UNL     1      44.345 -18.240   4.774  1.00  0.00     0.029 A 
BRANCH  26  30
HETATM   30  C   UNL     1      44.238 -21.819   2.376  1.00  0.00     0.417 C 
HETATM   31  F   UNL     1      43.061 -22.009   1.719  1.00  0.00    -0.166 F 
HETATM   32  F   UNL     1      45.208 -21.822   1.421  1.00  0.00    -0.166 F 
HETATM   33  F   UNL     1      44.436 -22.949   3.112  1.00  0.00    -0.166 F 
ENDBRANCH  26  30
ENDBRANCH  20  24
ENDBRANCH   1  18
TORSDOF 8
ENDMDL
