MODEL 1
REMARK VINA RESULT:      -8.3      0.000      0.000
REMARK  4 active torsions:
REMARK  status: ('A' for Active; 'I' for Inactive)
REMARK    1  A    between atoms: C_9  and  C_10 
REMARK    2  A    between atoms: C_20  and  C_21 
REMARK       I    between atoms: C_21  and  N_22 
REMARK    3  A    between atoms: N_22  and  C_23 
REMARK    4  A    between atoms: C_26  and  O_27 
ROOT
HETATM    1  C   UNL     1      40.995 -15.592  -1.246  1.00  0.00     0.070 C 
HETATM    2  C   UNL     1      41.002 -14.727  -0.010  1.00  0.00     0.037 A 
HETATM    3  N   UNL     1      40.841 -13.366  -0.232  1.00  0.00    -0.192 N 
HETATM    4  C   UNL     1      40.749 -12.458   0.756  1.00  0.00     0.725 A 
HETATM    5  N   UNL     1      40.794 -12.871   2.062  1.00  0.00    -0.084 N 
HETATM    6  N   UNL     1      40.586 -11.834   2.902  1.00  0.00    -0.149 NA
HETATM    7  C   UNL     1      40.505 -10.820   2.035  1.00  0.00     0.275 A 
HETATM    8  N   UNL     1      40.589 -11.160   0.710  1.00  0.00    -0.054 NA
HETATM    9  C   UNL     1      40.917 -14.275   2.476  1.00  0.00     0.203 A 
HETATM   10  C   UNL     1      41.102 -15.192   1.260  1.00  0.00     0.062 A 
HETATM   11  H   UNL     1      40.744 -13.046  -1.192  1.00  0.00     0.184 HD
ENDROOT
BRANCH  10  12
HETATM   12  C   UNL     1      41.345 -16.622   1.601  1.00  0.00     0.256 C 
HETATM   13  N   UNL     1      42.692 -16.906   1.722  1.00  0.00    -0.323 N 
HETATM   14  H   UNL     1      43.343 -16.181   1.456  1.00  0.00     0.169 HD
HETATM   15  O   UNL     1      40.397 -17.367   1.790  1.00  0.00    -0.267 OA
BRANCH  13  16
HETATM   16  C   UNL     1      43.278 -18.080   2.232  1.00  0.00     0.035 A 
HETATM   17  C   UNL     1      43.360 -19.278   1.530  1.00  0.00     0.032 A 
HETATM   18  C   UNL     1      43.902 -20.415   2.141  1.00  0.00     0.039 A 
HETATM   19  C   UNL     1      44.382 -20.366   3.453  1.00  0.00     0.068 A 
HETATM   20  C   UNL     1      44.318 -19.164   4.151  1.00  0.00     0.039 A 
HETATM   21  C   UNL     1      43.761 -18.030   3.547  1.00  0.00     0.032 A 
BRANCH  19  22
HETATM   22  O   UNL     1      44.876 -21.548   3.930  1.00  0.00    -0.356 OA
HETATM   23  C   UNL     1      44.788 -21.763   5.334  1.00  0.00     0.210 C 
ENDBRANCH  19  22
ENDBRANCH  13  16
ENDBRANCH  10  12
BRANCH   9  24
HETATM   24  C   UNL     1      41.992 -14.416   3.564  1.00  0.00    -0.017 A 
HETATM   25  C   UNL     1      41.797 -15.258   4.707  1.00  0.00    -0.017 A 
HETATM   26  C   UNL     1      42.864 -15.405   5.633  1.00  0.00    -0.025 A 
HETATM   27  C   UNL     1      40.599 -15.960   5.000  1.00  0.00     0.013 A 
HETATM   28  C   UNL     1      42.720 -16.237   6.758  1.00  0.00     0.012 A 
HETATM   29  C   UNL     1      44.065 -14.714   5.435  1.00  0.00     0.012 A 
HETATM   30  C   UNL     1      41.533 -16.919   7.004  1.00  0.00     0.001 A 
HETATM   31  C   UNL     1      40.469 -16.775   6.128  1.00  0.00     0.001 A 
HETATM   32  C   UNL     1      44.229 -13.856   4.355  1.00  0.00     0.002 A 
HETATM   33  C   UNL     1      43.199 -13.696   3.435  1.00  0.00     0.010 A 
ENDBRANCH   9  24
TORSDOF 4
ENDMDL
MODEL 2
REMARK VINA RESULT:      -8.2      1.319      2.535
REMARK  4 active torsions:
REMARK  status: ('A' for Active; 'I' for Inactive)
REMARK    1  A    between atoms: C_9  and  C_10 
REMARK    2  A    between atoms: C_20  and  C_21 
REMARK       I    between atoms: C_21  and  N_22 
REMARK    3  A    between atoms: N_22  and  C_23 
REMARK    4  A    between atoms: C_26  and  O_27 
ROOT
HETATM    1  C   UNL     1      41.699 -14.185   0.369  1.00  0.00     0.070 C 
HETATM    2  C   UNL     1      41.244 -14.087   1.804  1.00  0.00     0.037 A 
HETATM    3  N   UNL     1      40.964 -12.805   2.256  1.00  0.00    -0.192 N 
HETATM    4  C   UNL     1      40.477 -12.538   3.481  1.00  0.00     0.725 A 
HETATM    5  N   UNL     1      40.217 -13.570   4.345  1.00  0.00    -0.084 N 
HETATM    6  N   UNL     1      39.643 -13.113   5.479  1.00  0.00    -0.149 NA
HETATM    7  C   UNL     1      39.664 -11.795   5.260  1.00  0.00     0.275 A 
HETATM    8  N   UNL     1      40.157 -11.401   4.044  1.00  0.00    -0.054 NA
HETATM    9  C   UNL     1      40.415 -14.987   4.016  1.00  0.00     0.203 A 
HETATM   10  C   UNL     1      41.054 -15.145   2.630  1.00  0.00     0.062 A 
HETATM   11  H   UNL     1      41.092 -12.031   1.608  1.00  0.00     0.184 HD
ENDROOT
BRANCH  10  12
HETATM   12  C   UNL     1      41.390 -16.550   2.266  1.00  0.00     0.256 C 
HETATM   13  N   UNL     1      42.647 -16.916   2.707  1.00  0.00    -0.323 N 
HETATM   14  H   UNL     1      43.228 -16.190   3.100  1.00  0.00     0.169 HD
HETATM   15  O   UNL     1      40.561 -17.241   1.695  1.00  0.00    -0.267 OA
BRANCH  13  16
HETATM   16  C   UNL     1      43.206 -18.208   2.729  1.00  0.00     0.035 A 
HETATM   17  C   UNL     1      43.157 -19.096   1.658  1.00  0.00     0.032 A 
HETATM   18  C   UNL     1      43.684 -20.386   1.792  1.00  0.00     0.039 A 
HETATM   19  C   UNL     1      44.277 -20.800   2.988  1.00  0.00     0.068 A 
HETATM   20  C   UNL     1      44.343 -19.908   4.054  1.00  0.00     0.039 A 
HETATM   21  C   UNL     1      43.802 -18.622   3.927  1.00  0.00     0.032 A 
BRANCH  19  22
HETATM   22  O   UNL     1      44.741 -22.086   2.986  1.00  0.00    -0.356 OA
HETATM   23  C   UNL     1      44.739 -22.773   4.231  1.00  0.00     0.210 C 
ENDBRANCH  19  22
ENDBRANCH  13  16
ENDBRANCH  10  12
BRANCH   9  24
HETATM   24  C   UNL     1      41.156 -15.699   5.157  1.00  0.00    -0.017 A 
HETATM   25  C   UNL     1      42.422 -15.228   5.639  1.00  0.00    -0.017 A 
HETATM   26  C   UNL     1      43.013 -15.885   6.750  1.00  0.00    -0.025 A 
HETATM   27  C   UNL     1      43.149 -14.147   5.078  1.00  0.00     0.013 A 
HETATM   28  C   UNL     1      44.244 -15.443   7.266  1.00  0.00     0.012 A 
HETATM   29  C   UNL     1      42.376 -16.986   7.336  1.00  0.00     0.012 A 
HETATM   30  C   UNL     1      44.922 -14.370   6.695  1.00  0.00     0.001 A 
HETATM   31  C   UNL     1      44.377 -13.726   5.596  1.00  0.00     0.001 A 
HETATM   32  C   UNL     1      41.176 -17.472   6.830  1.00  0.00     0.002 A 
HETATM   33  C   UNL     1      40.578 -16.845   5.743  1.00  0.00     0.010 A 
ENDBRANCH   9  24
TORSDOF 4
ENDMDL
MODEL 3
REMARK VINA RESULT:      -8.0      2.136      4.966
REMARK  4 active torsions:
REMARK  status: ('A' for Active; 'I' for Inactive)
REMARK    1  A    between atoms: C_9  and  C_10 
REMARK    2  A    between atoms: C_20  and  C_21 
REMARK       I    between atoms: C_21  and  N_22 
REMARK    3  A    between atoms: N_22  and  C_23 
REMARK    4  A    between atoms: C_26  and  O_27 
ROOT
HETATM    1  C   UNL     1      40.302 -15.790   6.152  1.00  0.00     0.070 C 
HETATM    2  C   UNL     1      40.084 -14.623   5.223  1.00  0.00     0.037 A 
HETATM    3  N   UNL     1      39.557 -13.481   5.811  1.00  0.00    -0.192 N 
HETATM    4  C   UNL     1      39.368 -12.324   5.150  1.00  0.00     0.725 A 
HETATM    5  N   UNL     1      39.722 -12.234   3.829  1.00  0.00    -0.084 N 
HETATM    6  N   UNL     1      39.550 -10.975   3.371  1.00  0.00    -0.149 NA
HETATM    7  C   UNL     1      39.017 -10.386   4.446  1.00  0.00     0.275 A 
HETATM    8  N   UNL     1      38.898 -11.174   5.560  1.00  0.00    -0.054 NA
HETATM    9  C   UNL     1      40.330 -13.330   3.064  1.00  0.00     0.203 A 
HETATM   10  C   UNL     1      40.408 -14.610   3.906  1.00  0.00     0.062 A 
HETATM   11  H   UNL     1      39.347 -13.509   6.805  1.00  0.00     0.184 HD
ENDROOT
BRANCH  10  12
HETATM   12  C   UNL     1      40.912 -15.802   3.167  1.00  0.00     0.256 C 
HETATM   13  N   UNL     1      42.209 -16.122   3.517  1.00  0.00    -0.323 N 
HETATM   14  H   UNL     1      42.701 -15.471   4.114  1.00  0.00     0.169 HD
HETATM   15  O   UNL     1      40.168 -16.397   2.404  1.00  0.00    -0.267 OA
BRANCH  13  16
HETATM   16  C   UNL     1      42.925 -17.288   3.186  1.00  0.00     0.035 A 
HETATM   17  C   UNL     1      43.249 -17.659   1.884  1.00  0.00     0.032 A 
HETATM   18  C   UNL     1      43.907 -18.871   1.644  1.00  0.00     0.039 A 
HETATM   19  C   UNL     1      44.262 -19.718   2.697  1.00  0.00     0.068 A 
HETATM   20  C   UNL     1      43.954 -19.341   4.001  1.00  0.00     0.039 A 
HETATM   21  C   UNL     1      43.281 -18.136   4.242  1.00  0.00     0.032 A 
BRANCH  19  22
HETATM   22  O   UNL     1      44.890 -20.873   2.321  1.00  0.00    -0.356 OA
HETATM   23  C   UNL     1      44.093 -21.861   1.680  1.00  0.00     0.210 C 
ENDBRANCH  19  22
ENDBRANCH  13  16
ENDBRANCH  10  12
BRANCH   9  24
HETATM   24  C   UNL     1      39.625 -13.487   1.709  1.00  0.00    -0.017 A 
HETATM   25  C   UNL     1      40.323 -13.292   0.472  1.00  0.00    -0.017 A 
HETATM   26  C   UNL     1      39.632 -13.532  -0.744  1.00  0.00    -0.025 A 
HETATM   27  C   UNL     1      41.670 -12.858   0.364  1.00  0.00     0.013 A 
HETATM   28  C   UNL     1      40.286 -13.371  -1.979  1.00  0.00     0.012 A 
HETATM   29  C   UNL     1      38.288 -13.924  -0.723  1.00  0.00     0.012 A 
HETATM   30  C   UNL     1      41.613 -12.955  -2.043  1.00  0.00     0.001 A 
HETATM   31  C   UNL     1      42.303 -12.693  -0.871  1.00  0.00     0.001 A 
HETATM   32  C   UNL     1      37.600 -14.059   0.477  1.00  0.00     0.002 A 
HETATM   33  C   UNL     1      38.256 -13.829   1.681  1.00  0.00     0.010 A 
ENDBRANCH   9  24
TORSDOF 4
ENDMDL
MODEL 4
REMARK VINA RESULT:      -7.9      2.343      4.894
REMARK  4 active torsions:
REMARK  status: ('A' for Active; 'I' for Inactive)
REMARK    1  A    between atoms: C_9  and  C_10 
REMARK    2  A    between atoms: C_20  and  C_21 
REMARK       I    between atoms: C_21  and  N_22 
REMARK    3  A    between atoms: N_22  and  C_23 
REMARK    4  A    between atoms: C_26  and  O_27 
ROOT
HETATM    1  C   UNL     1      43.780 -14.249   6.894  1.00  0.00     0.070 C 
HETATM    2  C   UNL     1      42.862 -13.461   5.993  1.00  0.00     0.037 A 
HETATM    3  N   UNL     1      42.136 -12.454   6.614  1.00  0.00    -0.192 N 
HETATM    4  C   UNL     1      41.327 -11.605   5.954  1.00  0.00     0.725 A 
HETATM    5  N   UNL     1      41.208 -11.706   4.592  1.00  0.00    -0.084 N 
HETATM    6  N   UNL     1      40.435 -10.712   4.103  1.00  0.00    -0.149 NA
HETATM    7  C   UNL     1      40.061 -10.104   5.233  1.00  0.00     0.275 A 
HETATM    8  N   UNL     1      40.594 -10.613   6.388  1.00  0.00    -0.054 NA
HETATM    9  C   UNL     1      41.935 -12.684   3.773  1.00  0.00     0.203 A 
HETATM   10  C   UNL     1      42.749 -13.641   4.654  1.00  0.00     0.062 A 
HETATM   11  H   UNL     1      42.258 -12.323   7.615  1.00  0.00     0.184 HD
ENDROOT
BRANCH  10  12
HETATM   12  C   UNL     1      43.430 -14.735   3.906  1.00  0.00     0.256 C 
HETATM   13  N   UNL     1      42.891 -15.975   4.191  1.00  0.00    -0.323 N 
HETATM   14  H   UNL     1      42.210 -16.023   4.936  1.00  0.00     0.169 HD
HETATM   15  O   UNL     1      44.313 -14.462   3.109  1.00  0.00    -0.267 OA
BRANCH  13  16
HETATM   16  C   UNL     1      43.136 -17.191   3.525  1.00  0.00     0.035 A 
HETATM   17  C   UNL     1      42.579 -17.530   2.296  1.00  0.00     0.032 A 
HETATM   18  C   UNL     1      42.827 -18.790   1.738  1.00  0.00     0.039 A 
HETATM   19  C   UNL     1      43.643 -19.718   2.391  1.00  0.00     0.068 A 
HETATM   20  C   UNL     1      44.215 -19.374   3.612  1.00  0.00     0.039 A 
HETATM   21  C   UNL     1      43.955 -18.120   4.179  1.00  0.00     0.032 A 
BRANCH  19  22
HETATM   22  O   UNL     1      43.793 -20.912   1.740  1.00  0.00    -0.356 OA
HETATM   23  C   UNL     1      44.346 -21.987   2.489  1.00  0.00     0.210 C 
ENDBRANCH  19  22
ENDBRANCH  13  16
ENDBRANCH  10  12
BRANCH   9  24
HETATM   24  C   UNL     1      40.978 -13.367   2.786  1.00  0.00    -0.017 A 
HETATM   25  C   UNL     1      41.117 -13.201   1.368  1.00  0.00    -0.017 A 
HETATM   26  C   UNL     1      40.248 -13.925   0.511  1.00  0.00    -0.025 A 
HETATM   27  C   UNL     1      42.062 -12.346   0.743  1.00  0.00     0.013 A 
HETATM   28  C   UNL     1      40.364 -13.805  -0.886  1.00  0.00     0.012 A 
HETATM   29  C   UNL     1      39.262 -14.760   1.051  1.00  0.00     0.012 A 
HETATM   30  C   UNL     1      41.312 -12.966  -1.462  1.00  0.00     0.001 A 
HETATM   31  C   UNL     1      42.157 -12.230  -0.646  1.00  0.00     0.001 A 
HETATM   32  C   UNL     1      39.096 -14.875   2.426  1.00  0.00     0.002 A 
HETATM   33  C   UNL     1      39.935 -14.175   3.286  1.00  0.00     0.010 A 
ENDBRANCH   9  24
TORSDOF 4
ENDMDL
MODEL 5
REMARK VINA RESULT:      -7.7      2.172      5.193
REMARK  4 active torsions:
REMARK  status: ('A' for Active; 'I' for Inactive)
REMARK    1  A    between atoms: C_9  and  C_10 
REMARK    2  A    between atoms: C_20  and  C_21 
REMARK       I    between atoms: C_21  and  N_22 
REMARK    3  A    between atoms: N_22  and  C_23 
REMARK    4  A    between atoms: C_26  and  O_27 
ROOT
HETATM    1  C   UNL     1      39.846 -14.434   5.342  1.00  0.00     0.070 C 
HETATM    2  C   UNL     1      39.872 -13.498   4.159  1.00  0.00     0.037 A 
HETATM    3  N   UNL     1      39.476 -12.193   4.421  1.00  0.00    -0.192 N 
HETATM    4  C   UNL     1      39.509 -11.209   3.504  1.00  0.00     0.725 A 
HETATM    5  N   UNL     1      39.969 -11.476   2.241  1.00  0.00    -0.084 N 
HETATM    6  N   UNL     1      40.020 -10.347   1.500  1.00  0.00    -0.149 NA
HETATM    7  C   UNL     1      39.500  -9.461   2.355  1.00  0.00     0.275 A 
HETATM    8  N   UNL     1      39.184  -9.945   3.597  1.00  0.00    -0.054 NA
HETATM    9  C   UNL     1      40.465 -12.788   1.807  1.00  0.00     0.203 A 
HETATM   10  C   UNL     1      40.291 -13.835   2.915  1.00  0.00     0.062 A 
HETATM   11  H   UNL     1      39.190 -11.961   5.368  1.00  0.00     0.184 HD
ENDROOT
BRANCH  10  12
HETATM   12  C   UNL     1      40.669 -15.220   2.515  1.00  0.00     0.256 C 
HETATM   13  N   UNL     1      42.020 -15.458   2.673  1.00  0.00    -0.323 N 
HETATM   14  H   UNL     1      42.604 -14.668   2.911  1.00  0.00     0.169 HD
HETATM   15  O   UNL     1      39.802 -16.002   2.158  1.00  0.00    -0.267 OA
BRANCH  13  16
HETATM   16  C   UNL     1      42.688 -16.695   2.598  1.00  0.00     0.035 A 
HETATM   17  C   UNL     1      43.245 -17.209   1.432  1.00  0.00     0.032 A 
HETATM   18  C   UNL     1      43.834 -18.479   1.436  1.00  0.00     0.039 A 
HETATM   19  C   UNL     1      43.888 -19.243   2.605  1.00  0.00     0.068 A 
HETATM   20  C   UNL     1      43.347 -18.723   3.777  1.00  0.00     0.039 A 
HETATM   21  C   UNL     1      42.743 -17.460   3.771  1.00  0.00     0.032 A 
BRANCH  19  22
HETATM   22  O   UNL     1      44.482 -20.467   2.467  1.00  0.00    -0.356 OA
HETATM   23  C   UNL     1      43.749 -21.462   1.763  1.00  0.00     0.210 C 
ENDBRANCH  19  22
ENDBRANCH  13  16
ENDBRANCH  10  12
BRANCH   9  24
HETATM   24  C   UNL     1      39.848 -13.167   0.453  1.00  0.00    -0.017 A 
HETATM   25  C   UNL     1      40.629 -13.187  -0.750  1.00  0.00    -0.017 A 
HETATM   26  C   UNL     1      40.015 -13.625  -1.952  1.00  0.00    -0.025 A 
HETATM   27  C   UNL     1      41.987 -12.784  -0.838  1.00  0.00     0.013 A 
HETATM   28  C   UNL     1      40.751 -13.677  -3.149  1.00  0.00     0.012 A 
HETATM   29  C   UNL     1      38.666 -14.002  -1.955  1.00  0.00     0.012 A 
HETATM   30  C   UNL     1      42.085 -13.285  -3.193  1.00  0.00     0.001 A 
HETATM   31  C   UNL     1      42.702 -12.832  -2.038  1.00  0.00     0.001 A 
HETATM   32  C   UNL     1      37.899 -13.929  -0.799  1.00  0.00     0.002 A 
HETATM   33  C   UNL     1      38.479 -13.503   0.391  1.00  0.00     0.010 A 
ENDBRANCH   9  24
TORSDOF 4
ENDMDL
MODEL 6
REMARK VINA RESULT:      -7.3      2.037      5.008
REMARK  4 active torsions:
REMARK  status: ('A' for Active; 'I' for Inactive)
REMARK    1  A    between atoms: C_9  and  C_10 
REMARK    2  A    between atoms: C_20  and  C_21 
REMARK       I    between atoms: C_21  and  N_22 
REMARK    3  A    between atoms: N_22  and  C_23 
REMARK    4  A    between atoms: C_26  and  O_27 
ROOT
HETATM    1  C   UNL     1      41.104 -14.067   6.063  1.00  0.00     0.070 C 
HETATM    2  C   UNL     1      40.777 -13.345   4.779  1.00  0.00     0.037 A 
HETATM    3  N   UNL     1      39.692 -12.480   4.840  1.00  0.00    -0.192 N 
HETATM    4  C   UNL     1      39.305 -11.701   3.814  1.00  0.00     0.725 A 
HETATM    5  N   UNL     1      40.011 -11.728   2.640  1.00  0.00    -0.084 N 
HETATM    6  N   UNL     1      39.534 -10.810   1.771  1.00  0.00    -0.149 NA
HETATM    7  C   UNL     1      38.494 -10.328   2.460  1.00  0.00     0.275 A 
HETATM    8  N   UNL     1      38.326 -10.839   3.720  1.00  0.00    -0.054 NA
HETATM    9  C   UNL     1      41.207 -12.551   2.418  1.00  0.00     0.203 A 
HETATM   10  C   UNL     1      41.486 -13.452   3.628  1.00  0.00     0.062 A 
HETATM   11  H   UNL     1      39.194 -12.400   5.723  1.00  0.00     0.184 HD
ENDROOT
BRANCH  10  12
HETATM   12  C   UNL     1      42.619 -14.400   3.440  1.00  0.00     0.256 C 
HETATM   13  N   UNL     1      42.220 -15.718   3.550  1.00  0.00    -0.323 N 
HETATM   14  H   UNL     1      41.273 -15.890   3.857  1.00  0.00     0.169 HD
HETATM   15  O   UNL     1      43.727 -13.969   3.164  1.00  0.00    -0.267 OA
BRANCH  13  16
HETATM   16  C   UNL     1      42.963 -16.870   3.228  1.00  0.00     0.035 A 
HETATM   17  C   UNL     1      43.310 -17.234   1.930  1.00  0.00     0.032 A 
HETATM   18  C   UNL     1      43.994 -18.433   1.698  1.00  0.00     0.039 A 
HETATM   19  C   UNL     1      44.354 -19.273   2.755  1.00  0.00     0.068 A 
HETATM   20  C   UNL     1      44.023 -18.901   4.056  1.00  0.00     0.039 A 
HETATM   21  C   UNL     1      43.324 -17.711   4.288  1.00  0.00     0.032 A 
BRANCH  19  22
HETATM   22  O   UNL     1      45.010 -20.415   2.388  1.00  0.00    -0.356 OA
HETATM   23  C   UNL     1      44.390 -21.650   2.724  1.00  0.00     0.210 C 
ENDBRANCH  19  22
ENDBRANCH  13  16
ENDBRANCH  10  12
BRANCH   9  24
HETATM   24  C   UNL     1      41.105 -13.285   1.073  1.00  0.00    -0.017 A 
HETATM   25  C   UNL     1      41.727 -12.770  -0.112  1.00  0.00    -0.017 A 
HETATM   26  C   UNL     1      41.661 -13.540  -1.303  1.00  0.00    -0.025 A 
HETATM   27  C   UNL     1      42.404 -11.526  -0.195  1.00  0.00     0.013 A 
HETATM   28  C   UNL     1      42.274 -13.081  -2.482  1.00  0.00     0.012 A 
HETATM   29  C   UNL     1      40.976 -14.762  -1.313  1.00  0.00     0.012 A 
HETATM   30  C   UNL     1      42.940 -11.860  -2.520  1.00  0.00     0.001 A 
HETATM   31  C   UNL     1      42.999 -11.079  -1.377  1.00  0.00     0.001 A 
HETATM   32  C   UNL     1      40.329 -15.229  -0.176  1.00  0.00     0.002 A 
HETATM   33  C   UNL     1      40.379 -14.493   1.002  1.00  0.00     0.010 A 
ENDBRANCH   9  24
TORSDOF 4
ENDMDL
MODEL 7
REMARK VINA RESULT:      -7.2      1.708      2.031
REMARK  4 active torsions:
REMARK  status: ('A' for Active; 'I' for Inactive)
REMARK    1  A    between atoms: C_9  and  C_10 
REMARK    2  A    between atoms: C_20  and  C_21 
REMARK       I    between atoms: C_21  and  N_22 
REMARK    3  A    between atoms: N_22  and  C_23 
REMARK    4  A    between atoms: C_26  and  O_27 
ROOT
HETATM    1  C   UNL     1      41.014 -15.880  -1.819  1.00  0.00     0.070 C 
HETATM    2  C   UNL     1      40.836 -14.734  -0.855  1.00  0.00     0.037 A 
HETATM    3  N   UNL     1      40.693 -13.481  -1.436  1.00  0.00    -0.192 N 
HETATM    4  C   UNL     1      40.450 -12.360  -0.734  1.00  0.00     0.725 A 
HETATM    5  N   UNL     1      40.315 -12.430   0.628  1.00  0.00    -0.084 N 
HETATM    6  N   UNL     1      39.977 -11.226   1.140  1.00  0.00    -0.149 NA
HETATM    7  C   UNL     1      40.008 -10.467   0.040  1.00  0.00     0.275 A 
HETATM    8  N   UNL     1      40.283 -11.124  -1.130  1.00  0.00    -0.054 NA
HETATM    9  C   UNL     1      40.394 -13.677   1.399  1.00  0.00     0.203 A 
HETATM   10  C   UNL     1      40.760 -14.860   0.493  1.00  0.00     0.062 A 
HETATM   11  H   UNL     1      40.729 -13.418  -2.450  1.00  0.00     0.184 HD
ENDROOT
BRANCH  10  12
HETATM   12  C   UNL     1      40.969 -16.146   1.217  1.00  0.00     0.256 C 
HETATM   13  N   UNL     1      42.299 -16.520   1.239  1.00  0.00    -0.323 N 
HETATM   14  H   UNL     1      42.942 -15.976   0.682  1.00  0.00     0.169 HD
HETATM   15  O   UNL     1      40.021 -16.701   1.748  1.00  0.00    -0.267 OA
BRANCH  13  16
HETATM   16  C   UNL     1      42.888 -17.548   2.000  1.00  0.00     0.035 A 
HETATM   17  C   UNL     1      43.470 -18.687   1.450  1.00  0.00     0.032 A 
HETATM   18  C   UNL     1      43.974 -19.690   2.287  1.00  0.00     0.039 A 
HETATM   19  C   UNL     1      43.917 -19.563   3.677  1.00  0.00     0.068 A 
HETATM   20  C   UNL     1      43.351 -18.417   4.228  1.00  0.00     0.039 A 
HETATM   21  C   UNL     1      42.832 -17.421   3.394  1.00  0.00     0.032 A 
BRANCH  19  22
HETATM   22  O   UNL     1      44.436 -20.619   4.374  1.00  0.00    -0.356 OA
HETATM   23  C   UNL     1      44.420 -20.524   5.793  1.00  0.00     0.210 C 
ENDBRANCH  19  22
ENDBRANCH  13  16
ENDBRANCH  10  12
BRANCH   9  24
HETATM   24  C   UNL     1      41.305 -13.489   2.621  1.00  0.00    -0.017 A 
HETATM   25  C   UNL     1      40.781 -13.088   3.894  1.00  0.00    -0.017 A 
HETATM   26  C   UNL     1      41.667 -13.013   5.000  1.00  0.00    -0.025 A 
HETATM   27  C   UNL     1      39.426 -12.743   4.138  1.00  0.00     0.013 A 
HETATM   28  C   UNL     1      41.190 -12.641   6.270  1.00  0.00     0.012 A 
HETATM   29  C   UNL     1      43.027 -13.299   4.832  1.00  0.00     0.012 A 
HETATM   30  C   UNL     1      39.851 -12.322   6.472  1.00  0.00     0.001 A 
HETATM   31  C   UNL     1      38.970 -12.367   5.404  1.00  0.00     0.001 A 
HETATM   32  C   UNL     1      43.540 -13.634   3.584  1.00  0.00     0.002 A 
HETATM   33  C   UNL     1      42.691 -13.715   2.486  1.00  0.00     0.010 A 
ENDBRANCH   9  24
TORSDOF 4
ENDMDL
MODEL 8
REMARK VINA RESULT:      -7.0      2.970      5.260
REMARK  4 active torsions:
REMARK  status: ('A' for Active; 'I' for Inactive)
REMARK    1  A    between atoms: C_9  and  C_10 
REMARK    2  A    between atoms: C_20  and  C_21 
REMARK       I    between atoms: C_21  and  N_22 
REMARK    3  A    between atoms: N_22  and  C_23 
REMARK    4  A    between atoms: C_26  and  O_27 
ROOT
HETATM    1  C   UNL     1      39.857 -15.876  -3.512  1.00  0.00     0.070 C 
HETATM    2  C   UNL     1      39.193 -14.630  -2.982  1.00  0.00     0.037 A 
HETATM    3  N   UNL     1      38.230 -14.069  -3.809  1.00  0.00    -0.192 N 
HETATM    4  C   UNL     1      37.486 -13.002  -3.465  1.00  0.00     0.725 A 
HETATM    5  N   UNL     1      37.653 -12.429  -2.232  1.00  0.00    -0.084 N 
HETATM    6  N   UNL     1      36.754 -11.441  -2.035  1.00  0.00    -0.149 NA
HETATM    7  C   UNL     1      36.135 -11.424  -3.219  1.00  0.00     0.275 A 
HETATM    8  N   UNL     1      36.545 -12.371  -4.120  1.00  0.00    -0.054 NA
HETATM    9  C   UNL     1      38.596 -12.920  -1.219  1.00  0.00     0.203 A 
HETATM   10  C   UNL     1      39.439 -14.078  -1.768  1.00  0.00     0.062 A 
HETATM   11  H   UNL     1      38.047 -14.517  -4.703  1.00  0.00     0.184 HD
ENDROOT
BRANCH  10  12
HETATM   12  C   UNL     1      40.498 -14.562  -0.838  1.00  0.00     0.256 C 
HETATM   13  N   UNL     1      39.973 -15.259   0.232  1.00  0.00    -0.323 N 
HETATM   14  H   UNL     1      38.968 -15.260   0.335  1.00  0.00     0.169 HD
HETATM   15  O   UNL     1      41.672 -14.367  -1.108  1.00  0.00    -0.267 OA
BRANCH  13  16
HETATM   16  C   UNL     1      40.672 -16.029   1.181  1.00  0.00     0.035 A 
HETATM   17  C   UNL     1      41.431 -17.152   0.865  1.00  0.00     0.032 A 
HETATM   18  C   UNL     1      42.039 -17.897   1.883  1.00  0.00     0.039 A 
HETATM   19  C   UNL     1      41.911 -17.522   3.223  1.00  0.00     0.068 A 
HETATM   20  C   UNL     1      41.167 -16.389   3.539  1.00  0.00     0.039 A 
HETATM   21  C   UNL     1      40.544 -15.653   2.524  1.00  0.00     0.032 A 
BRANCH  19  22
HETATM   22  O   UNL     1      42.547 -18.341   4.114  1.00  0.00    -0.356 OA
HETATM   23  C   UNL     1      43.697 -19.033   3.644  1.00  0.00     0.210 C 
ENDBRANCH  19  22
ENDBRANCH  13  16
ENDBRANCH  10  12
BRANCH   9  24
HETATM   24  C   UNL     1      39.403 -11.752  -0.633  1.00  0.00    -0.017 A 
HETATM   25  C   UNL     1      39.428 -11.488   0.776  1.00  0.00    -0.017 A 
HETATM   26  C   UNL     1      40.258 -10.443   1.258  1.00  0.00    -0.025 A 
HETATM   27  C   UNL     1      38.666 -12.193   1.744  1.00  0.00     0.013 A 
HETATM   28  C   UNL     1      40.326 -10.164   2.635  1.00  0.00     0.012 A 
HETATM   29  C   UNL     1      41.011  -9.674   0.361  1.00  0.00     0.012 A 
HETATM   30  C   UNL     1      39.573 -10.887   3.555  1.00  0.00     0.001 A 
HETATM   31  C   UNL     1      38.737 -11.898   3.108  1.00  0.00     0.001 A 
HETATM   32  C   UNL     1      40.941  -9.898  -1.009  1.00  0.00     0.002 A 
HETATM   33  C   UNL     1      40.135 -10.916  -1.503  1.00  0.00     0.010 A 
ENDBRANCH   9  24
TORSDOF 4
ENDMDL
MODEL 9
REMARK VINA RESULT:      -7.0      2.378      3.144
REMARK  4 active torsions:
REMARK  status: ('A' for Active; 'I' for Inactive)
REMARK    1  A    between atoms: C_9  and  C_10 
REMARK    2  A    between atoms: C_20  and  C_21 
REMARK       I    between atoms: C_21  and  N_22 
REMARK    3  A    between atoms: N_22  and  C_23 
REMARK    4  A    between atoms: C_26  and  O_27 
ROOT
HETATM    1  C   UNL     1      40.990 -15.039  -2.047  1.00  0.00     0.070 C 
HETATM    2  C   UNL     1      40.105 -14.217  -1.143  1.00  0.00     0.037 A 
HETATM    3  N   UNL     1      39.062 -13.552  -1.773  1.00  0.00    -0.192 N 
HETATM    4  C   UNL     1      38.133 -12.836  -1.115  1.00  0.00     0.725 A 
HETATM    5  N   UNL     1      38.183 -12.756   0.253  1.00  0.00    -0.084 N 
HETATM    6  N   UNL     1      37.116 -12.082   0.734  1.00  0.00    -0.149 NA
HETATM    7  C   UNL     1      36.514 -11.718  -0.403  1.00  0.00     0.275 A 
HETATM    8  N   UNL     1      37.098 -12.168  -1.557  1.00  0.00    -0.054 NA
HETATM    9  C   UNL     1      39.191 -13.432   1.079  1.00  0.00     0.203 A 
HETATM   10  C   UNL     1      40.236 -14.137   0.204  1.00  0.00     0.062 A 
HETATM   11  H   UNL     1      38.972 -13.649  -2.781  1.00  0.00     0.184 HD
ENDROOT
BRANCH  10  12
HETATM   12  C   UNL     1      41.358 -14.755   0.965  1.00  0.00     0.256 C 
HETATM   13  N   UNL     1      41.075 -16.051   1.349  1.00  0.00    -0.323 N 
HETATM   14  H   UNL     1      40.135 -16.385   1.192  1.00  0.00     0.169 HD
HETATM   15  O   UNL     1      42.393 -14.129   1.127  1.00  0.00    -0.267 OA
BRANCH  13  16
HETATM   16  C   UNL     1      41.964 -17.000   1.889  1.00  0.00     0.035 A 
HETATM   17  C   UNL     1      42.969 -17.629   1.160  1.00  0.00     0.032 A 
HETATM   18  C   UNL     1      43.765 -18.609   1.764  1.00  0.00     0.039 A 
HETATM   19  C   UNL     1      43.579 -18.962   3.104  1.00  0.00     0.068 A 
HETATM   20  C   UNL     1      42.587 -18.321   3.840  1.00  0.00     0.039 A 
HETATM   21  C   UNL     1      41.779 -17.352   3.232  1.00  0.00     0.032 A 
BRANCH  19  22
HETATM   22  O   UNL     1      44.418 -19.938   3.564  1.00  0.00    -0.356 OA
HETATM   23  C   UNL     1      44.617 -20.005   4.971  1.00  0.00     0.210 C 
ENDBRANCH  19  22
ENDBRANCH  13  16
ENDBRANCH  10  12
BRANCH   9  24
HETATM   24  C   UNL     1      39.765 -12.459   2.118  1.00  0.00    -0.017 A 
HETATM   25  C   UNL     1      39.987 -12.856   3.478  1.00  0.00    -0.017 A 
HETATM   26  C   UNL     1      40.596 -11.931   4.366  1.00  0.00    -0.025 A 
HETATM   27  C   UNL     1      39.628 -14.118   4.020  1.00  0.00     0.013 A 
HETATM   28  C   UNL     1      40.848 -12.288   5.703  1.00  0.00     0.012 A 
HETATM   29  C   UNL     1      40.943 -10.651   3.918  1.00  0.00     0.012 A 
HETATM   30  C   UNL     1      40.492 -13.541   6.194  1.00  0.00     0.001 A 
HETATM   31  C   UNL     1      39.876 -14.454   5.354  1.00  0.00     0.001 A 
HETATM   32  C   UNL     1      40.677 -10.252   2.613  1.00  0.00     0.002 A 
HETATM   33  C   UNL     1      40.081 -11.140   1.725  1.00  0.00     0.010 A 
ENDBRANCH   9  24
TORSDOF 4
ENDMDL
MODEL 10
REMARK VINA RESULT:      -6.9      2.199      5.104
REMARK  4 active torsions:
REMARK  status: ('A' for Active; 'I' for Inactive)
REMARK    1  A    between atoms: C_9  and  C_10 
REMARK    2  A    between atoms: C_20  and  C_21 
REMARK       I    between atoms: C_21  and  N_22 
REMARK    3  A    between atoms: N_22  and  C_23 
REMARK    4  A    between atoms: C_26  and  O_27 
ROOT
HETATM    1  C   UNL     1      39.884 -13.967   4.082  1.00  0.00     0.070 C 
HETATM    2  C   UNL     1      40.362 -13.037   2.996  1.00  0.00     0.037 A 
HETATM    3  N   UNL     1      40.036 -11.698   3.170  1.00  0.00    -0.192 N 
HETATM    4  C   UNL     1      40.444 -10.720   2.340  1.00  0.00     0.725 A 
HETATM    5  N   UNL     1      41.239 -11.030   1.268  1.00  0.00    -0.084 N 
HETATM    6  N   UNL     1      41.625  -9.912   0.616  1.00  0.00    -0.149 NA
HETATM    7  C   UNL     1      40.958  -8.978   1.303  1.00  0.00     0.275 A 
HETATM    8  N   UNL     1      40.232  -9.430   2.373  1.00  0.00    -0.054 NA
HETATM    9  C   UNL     1      41.712 -12.386   0.960  1.00  0.00     0.203 A 
HETATM   10  C   UNL     1      41.106 -13.412   1.927  1.00  0.00     0.062 A 
HETATM   11  H   UNL     1      39.499 -11.440   3.993  1.00  0.00     0.184 HD
ENDROOT
BRANCH  10  12
HETATM   12  C   UNL     1      41.449 -14.828   1.613  1.00  0.00     0.256 C 
HETATM   13  N   UNL     1      42.638 -15.218   2.198  1.00  0.00    -0.323 N 
HETATM   14  H   UNL     1      43.188 -14.500   2.649  1.00  0.00     0.169 HD
HETATM   15  O   UNL     1      40.674 -15.505   0.957  1.00  0.00    -0.267 OA
BRANCH  13  16
HETATM   16  C   UNL     1      43.161 -16.521   2.293  1.00  0.00     0.035 A 
HETATM   17  C   UNL     1      43.628 -17.254   1.206  1.00  0.00     0.032 A 
HETATM   18  C   UNL     1      44.070 -18.570   1.385  1.00  0.00     0.039 A 
HETATM   19  C   UNL     1      44.067 -19.164   2.650  1.00  0.00     0.068 A 
HETATM   20  C   UNL     1      43.618 -18.426   3.742  1.00  0.00     0.039 A 
HETATM   21  C   UNL     1      43.159 -17.116   3.562  1.00  0.00     0.032 A 
BRANCH  19  22
HETATM   22  O   UNL     1      44.516 -20.455   2.682  1.00  0.00    -0.356 OA
HETATM   23  C   UNL     1      43.822 -21.398   1.874  1.00  0.00     0.210 C 
ENDBRANCH  19  22
ENDBRANCH  13  16
ENDBRANCH  10  12
BRANCH   9  24
HETATM   24  C   UNL     1      41.504 -12.696  -0.529  1.00  0.00    -0.017 A 
HETATM   25  C   UNL     1      40.193 -12.760  -1.107  1.00  0.00    -0.017 A 
HETATM   26  C   UNL     1      40.077 -12.970  -2.506  1.00  0.00    -0.025 A 
HETATM   27  C   UNL     1      38.982 -12.640  -0.378  1.00  0.00     0.013 A 
HETATM   28  C   UNL     1      38.810 -13.020  -3.115  1.00  0.00     0.012 A 
HETATM   29  C   UNL     1      41.225 -13.138  -3.289  1.00  0.00     0.012 A 
HETATM   30  C   UNL     1      37.644 -12.886  -2.367  1.00  0.00     0.001 A 
HETATM   31  C   UNL     1      37.730 -12.702  -0.997  1.00  0.00     0.001 A 
HETATM   32  C   UNL     1      42.491 -13.130  -2.716  1.00  0.00     0.002 A 
HETATM   33  C   UNL     1      42.630 -12.925  -1.348  1.00  0.00     0.010 A 
ENDBRANCH   9  24
TORSDOF 4
ENDMDL
