MODEL 1
REMARK VINA RESULT:      -9.2      0.000      0.000
REMARK  4 active torsions:
REMARK  status: ('A' for Active; 'I' for Inactive)
REMARK       I    between atoms: C_2  and  N_3 
REMARK    1  A    between atoms: N_3  and  C_4 
REMARK    2  A    between atoms: C_7  and  C_8 
REMARK    3  A    between atoms: C_12  and  N_13 
REMARK    4  A    between atoms: C_20  and  C_21 
ROOT
HETATM    1  C   UNL     1      44.186 -18.381   4.389  1.00  0.00     0.105 C 
HETATM    2  C   UNL     1      44.366 -19.893   4.536  1.00  0.00     0.067 C 
HETATM    3  C   UNL     1      44.676 -20.701   3.288  1.00  0.00     0.020 C 
HETATM    4  N   UNL     1      44.934 -21.373   2.252  1.00  0.00    -0.096 N 
HETATM    5  C   UNL     1      44.228 -20.544   5.722  1.00  0.00     0.139 C 
HETATM    6  O   UNL     1      43.876 -19.866   6.900  1.00  0.00    -0.279 OA
HETATM    7  C   UNL     1      43.518 -18.595   6.759  1.00  0.00     0.175 A 
HETATM    8  C   UNL     1      43.585 -17.807   5.635  1.00  0.00     0.040 A 
HETATM    9  N   UNL     1      42.955 -17.851   7.739  1.00  0.00    -0.256 N 
HETATM   10  H   UNL     1      42.749 -18.122   8.694  1.00  0.00     0.191 HD
HETATM   11  N   UNL     1      42.610 -16.621   7.326  1.00  0.00    -0.172 NA
HETATM   12  C   UNL     1      42.983 -16.575   6.030  1.00  0.00     0.099 A 
ENDROOT
BRANCH   1  13
HETATM   13  C   UNL     1      43.348 -17.952   3.198  1.00  0.00    -0.044 A 
HETATM   14  C   UNL     1      41.952 -18.087   3.144  1.00  0.00     0.010 A 
HETATM   15  C   UNL     1      41.224 -17.600   2.050  1.00  0.00     0.030 A 
HETATM   16  C   UNL     1      41.875 -16.994   0.975  1.00  0.00     0.034 A 
HETATM   17  C   UNL     1      43.271 -16.918   0.992  1.00  0.00     0.030 A 
HETATM   18  C   UNL     1      43.998 -17.392   2.086  1.00  0.00     0.010 A 
BRANCH  16  19
HETATM   19  N   UNL     1      41.222 -16.426  -0.138  1.00  0.00    -0.328 N 
HETATM   20  C   UNL     1      41.070 -15.084  -0.432  1.00  0.00     0.218 C 
HETATM   21  C   UNL     1      40.388 -14.862  -1.761  1.00  0.00     0.117 C 
HETATM   22  O   UNL     1      41.455 -14.132   0.238  1.00  0.00    -0.274 OA
HETATM   23  H   UNL     1      40.872 -17.083  -0.823  1.00  0.00     0.169 HD
ENDBRANCH  16  19
ENDBRANCH   1  13
BRANCH   5  24
HETATM   24  N   UNL     1      44.395 -21.895   5.920  1.00  0.00    -0.282 NA
HETATM   25  H   UNL     1      43.884 -22.303   6.699  1.00  0.00     0.126 HD
HETATM   26  H   UNL     1      44.307 -22.427   5.058  1.00  0.00     0.126 HD
ENDBRANCH   5  24
BRANCH  12  27
HETATM   27  C   UNL     1      42.684 -15.391   5.232  1.00  0.00    -0.005 A 
HETATM   28  C   UNL     1      43.698 -14.642   4.627  1.00  0.00     0.014 A 
HETATM   29  C   UNL     1      43.376 -13.537   3.831  1.00  0.00     0.001 A 
HETATM   30  C   UNL     1      42.042 -13.175   3.642  1.00  0.00     0.000 A 
HETATM   31  C   UNL     1      41.027 -13.906   4.254  1.00  0.00     0.001 A 
HETATM   32  C   UNL     1      41.347 -15.007   5.049  1.00  0.00     0.014 A 
ENDBRANCH  12  27
TORSDOF 4
ENDMDL
MODEL 2
REMARK VINA RESULT:      -8.9      1.337      1.488
REMARK  4 active torsions:
REMARK  status: ('A' for Active; 'I' for Inactive)
REMARK       I    between atoms: C_2  and  N_3 
REMARK    1  A    between atoms: N_3  and  C_4 
REMARK    2  A    between atoms: C_7  and  C_8 
REMARK    3  A    between atoms: C_12  and  N_13 
REMARK    4  A    between atoms: C_20  and  C_21 
ROOT
HETATM    1  C   UNL     1      44.431 -18.880   4.575  1.00  0.00     0.105 C 
HETATM    2  C   UNL     1      44.463 -20.367   4.219  1.00  0.00     0.067 C 
HETATM    3  C   UNL     1      44.501 -20.750   2.749  1.00  0.00     0.020 C 
HETATM    4  N   UNL     1      44.533 -21.068   1.529  1.00  0.00    -0.096 N 
HETATM    5  C   UNL     1      44.425 -21.354   5.154  1.00  0.00     0.139 C 
HETATM    6  O   UNL     1      44.321 -21.070   6.524  1.00  0.00    -0.279 OA
HETATM    7  C   UNL     1      44.088 -19.801   6.843  1.00  0.00     0.175 A 
HETATM    8  C   UNL     1      44.080 -18.701   6.020  1.00  0.00     0.040 A 
HETATM    9  N   UNL     1      43.756 -19.380   8.085  1.00  0.00    -0.256 N 
HETATM   10  H   UNL     1      43.660 -19.929   8.931  1.00  0.00     0.191 HD
HETATM   11  N   UNL     1      43.493 -18.064   8.133  1.00  0.00    -0.172 NA
HETATM   12  C   UNL     1      43.680 -17.627   6.870  1.00  0.00     0.099 A 
ENDROOT
BRANCH   1  13
HETATM   13  C   UNL     1      43.484 -18.043   3.734  1.00  0.00    -0.044 A 
HETATM   14  C   UNL     1      42.101 -18.275   3.662  1.00  0.00     0.010 A 
HETATM   15  C   UNL     1      41.266 -17.420   2.930  1.00  0.00     0.030 A 
HETATM   16  C   UNL     1      41.795 -16.334   2.233  1.00  0.00     0.034 A 
HETATM   17  C   UNL     1      43.179 -16.138   2.245  1.00  0.00     0.030 A 
HETATM   18  C   UNL     1      44.013 -16.981   2.982  1.00  0.00     0.010 A 
BRANCH  16  19
HETATM   19  N   UNL     1      41.027 -15.391   1.519  1.00  0.00    -0.328 N 
HETATM   20  C   UNL     1      40.837 -15.319   0.152  1.00  0.00     0.218 C 
HETATM   21  C   UNL     1      39.875 -14.222  -0.237  1.00  0.00     0.117 C 
HETATM   22  O   UNL     1      41.323 -16.053  -0.701  1.00  0.00    -0.274 OA
HETATM   23  H   UNL     1      40.518 -14.723   2.084  1.00  0.00     0.169 HD
ENDBRANCH  16  19
ENDBRANCH   1  13
BRANCH   5  24
HETATM   24  N   UNL     1      44.470 -22.705   4.896  1.00  0.00    -0.282 NA
HETATM   25  H   UNL     1      43.681 -23.253   5.229  1.00  0.00     0.126 HD
HETATM   26  H   UNL     1      44.722 -22.908   3.931  1.00  0.00     0.126 HD
ENDBRANCH   5  24
BRANCH  12  27
HETATM   27  C   UNL     1      43.401 -16.234   6.536  1.00  0.00    -0.005 A 
HETATM   28  C   UNL     1      44.407 -15.262   6.559  1.00  0.00     0.014 A 
HETATM   29  C   UNL     1      44.116 -13.944   6.191  1.00  0.00     0.001 A 
HETATM   30  C   UNL     1      42.823 -13.592   5.806  1.00  0.00     0.000 A 
HETATM   31  C   UNL     1      41.812 -14.551   5.797  1.00  0.00     0.001 A 
HETATM   32  C   UNL     1      42.100 -15.865   6.165  1.00  0.00     0.014 A 
ENDBRANCH  12  27
TORSDOF 4
ENDMDL
MODEL 3
REMARK VINA RESULT:      -8.5      2.182      6.257
REMARK  4 active torsions:
REMARK  status: ('A' for Active; 'I' for Inactive)
REMARK       I    between atoms: C_2  and  N_3 
REMARK    1  A    between atoms: N_3  and  C_4 
REMARK    2  A    between atoms: C_7  and  C_8 
REMARK    3  A    between atoms: C_12  and  N_13 
REMARK    4  A    between atoms: C_20  and  C_21 
ROOT
HETATM    1  C   UNL     1      41.239 -14.935   1.393  1.00  0.00     0.105 C 
HETATM    2  C   UNL     1      41.356 -14.193   0.061  1.00  0.00     0.067 C 
HETATM    3  C   UNL     1      41.152 -14.986  -1.219  1.00  0.00     0.020 C 
HETATM    4  N   UNL     1      40.983 -15.644  -2.282  1.00  0.00    -0.096 N 
HETATM    5  C   UNL     1      41.666 -12.872  -0.028  1.00  0.00     0.139 C 
HETATM    6  O   UNL     1      41.933 -12.098   1.113  1.00  0.00    -0.279 OA
HETATM    7  C   UNL     1      42.036 -12.761   2.259  1.00  0.00     0.175 A 
HETATM    8  C   UNL     1      41.773 -14.087   2.507  1.00  0.00     0.040 A 
HETATM    9  N   UNL     1      42.489 -12.217   3.412  1.00  0.00    -0.256 N 
HETATM   10  H   UNL     1      42.783 -11.263   3.585  1.00  0.00     0.191 HD
HETATM   11  N   UNL     1      42.576 -13.112   4.410  1.00  0.00    -0.172 NA
HETATM   12  C   UNL     1      42.146 -14.272   3.872  1.00  0.00     0.099 A 
ENDROOT
BRANCH   1  13
HETATM   13  C   UNL     1      41.929 -16.286   1.434  1.00  0.00    -0.044 A 
HETATM   14  C   UNL     1      43.313 -16.455   1.277  1.00  0.00     0.010 A 
HETATM   15  C   UNL     1      43.903 -17.720   1.402  1.00  0.00     0.030 A 
HETATM   16  C   UNL     1      43.121 -18.847   1.658  1.00  0.00     0.034 A 
HETATM   17  C   UNL     1      41.734 -18.696   1.748  1.00  0.00     0.030 A 
HETATM   18  C   UNL     1      41.145 -17.435   1.635  1.00  0.00     0.010 A 
BRANCH  16  19
HETATM   19  N   UNL     1      43.632 -20.146   1.856  1.00  0.00    -0.328 N 
HETATM   20  C   UNL     1      44.330 -20.621   2.950  1.00  0.00     0.218 C 
HETATM   21  C   UNL     1      44.637 -22.095   2.840  1.00  0.00     0.117 C 
HETATM   22  O   UNL     1      44.657 -19.989   3.949  1.00  0.00    -0.274 OA
HETATM   23  H   UNL     1      43.414 -20.817   1.131  1.00  0.00     0.169 HD
ENDBRANCH  16  19
ENDBRANCH   1  13
BRANCH   5  24
HETATM   24  N   UNL     1      41.767 -12.148  -1.193  1.00  0.00    -0.282 NA
HETATM   25  H   UNL     1      40.905 -11.739  -1.545  1.00  0.00     0.126 HD
HETATM   26  H   UNL     1      42.546 -11.495  -1.178  1.00  0.00     0.126 HD
ENDBRANCH   5  24
BRANCH  12  27
HETATM   27  C   UNL     1      42.180 -15.496   4.665  1.00  0.00    -0.005 A 
HETATM   28  C   UNL     1      41.007 -16.105   5.121  1.00  0.00     0.014 A 
HETATM   29  C   UNL     1      41.072 -17.302   5.842  1.00  0.00     0.001 A 
HETATM   30  C   UNL     1      42.307 -17.890   6.116  1.00  0.00     0.000 A 
HETATM   31  C   UNL     1      43.481 -17.280   5.680  1.00  0.00     0.001 A 
HETATM   32  C   UNL     1      43.418 -16.086   4.962  1.00  0.00     0.014 A 
ENDBRANCH  12  27
TORSDOF 4
ENDMDL
MODEL 4
REMARK VINA RESULT:      -8.5      2.483      5.904
REMARK  4 active torsions:
REMARK  status: ('A' for Active; 'I' for Inactive)
REMARK       I    between atoms: C_2  and  N_3 
REMARK    1  A    between atoms: N_3  and  C_4 
REMARK    2  A    between atoms: C_7  and  C_8 
REMARK    3  A    between atoms: C_12  and  N_13 
REMARK    4  A    between atoms: C_20  and  C_21 
ROOT
HETATM    1  C   UNL     1      41.732 -14.992   4.794  1.00  0.00     0.105 C 
HETATM    2  C   UNL     1      41.370 -13.718   4.030  1.00  0.00     0.067 C 
HETATM    3  C   UNL     1      40.581 -13.857   2.739  1.00  0.00     0.020 C 
HETATM    4  N   UNL     1      39.925 -13.972   1.668  1.00  0.00    -0.096 N 
HETATM    5  C   UNL     1      41.751 -12.476   4.436  1.00  0.00     0.139 C 
HETATM    6  O   UNL     1      42.539 -12.284   5.582  1.00  0.00    -0.279 OA
HETATM    7  C   UNL     1      43.032 -13.382   6.144  1.00  0.00     0.175 A 
HETATM    8  C   UNL     1      42.758 -14.694   5.843  1.00  0.00     0.040 A 
HETATM    9  N   UNL     1      43.970 -13.378   7.120  1.00  0.00    -0.256 N 
HETATM   10  H   UNL     1      44.405 -12.583   7.571  1.00  0.00     0.191 HD
HETATM   11  N   UNL     1      44.364 -14.615   7.465  1.00  0.00    -0.172 NA
HETATM   12  C   UNL     1      43.634 -15.440   6.686  1.00  0.00     0.099 A 
ENDROOT
BRANCH   1  13
HETATM   13  C   UNL     1      42.234 -16.133   3.928  1.00  0.00    -0.044 A 
HETATM   14  C   UNL     1      43.335 -16.024   3.064  1.00  0.00     0.010 A 
HETATM   15  C   UNL     1      43.801 -17.136   2.348  1.00  0.00     0.030 A 
HETATM   16  C   UNL     1      43.162 -18.371   2.458  1.00  0.00     0.034 A 
HETATM   17  C   UNL     1      42.025 -18.470   3.265  1.00  0.00     0.030 A 
HETATM   18  C   UNL     1      41.564 -17.367   3.987  1.00  0.00     0.010 A 
BRANCH  16  19
HETATM   19  N   UNL     1      43.594 -19.554   1.822  1.00  0.00    -0.328 N 
HETATM   20  C   UNL     1      44.156 -20.670   2.411  1.00  0.00     0.218 C 
HETATM   21  C   UNL     1      44.409 -21.777   1.415  1.00  0.00     0.117 C 
HETATM   22  O   UNL     1      44.409 -20.831   3.600  1.00  0.00    -0.274 OA
HETATM   23  H   UNL     1      43.421 -19.603   0.827  1.00  0.00     0.169 HD
ENDBRANCH  16  19
ENDBRANCH   1  13
BRANCH   5  24
HETATM   24  N   UNL     1      41.441 -11.295   3.802  1.00  0.00    -0.282 NA
HETATM   25  H   UNL     1      42.228 -10.713   3.526  1.00  0.00     0.126 HD
HETATM   26  H   UNL     1      40.754 -11.420   3.063  1.00  0.00     0.126 HD
ENDBRANCH   5  24
BRANCH  12  27
HETATM   27  C   UNL     1      43.864 -16.880   6.742  1.00  0.00    -0.005 A 
HETATM   28  C   UNL     1      43.027 -17.725   7.478  1.00  0.00     0.014 A 
HETATM   29  C   UNL     1      43.248 -19.107   7.476  1.00  0.00     0.001 A 
HETATM   30  C   UNL     1      44.307 -19.647   6.746  1.00  0.00     0.000 A 
HETATM   31  C   UNL     1      45.154 -18.810   6.024  1.00  0.00     0.001 A 
HETATM   32  C   UNL     1      44.936 -17.432   6.026  1.00  0.00     0.014 A 
ENDBRANCH  12  27
TORSDOF 4
ENDMDL
MODEL 5
REMARK VINA RESULT:      -8.4      2.354      4.905
REMARK  4 active torsions:
REMARK  status: ('A' for Active; 'I' for Inactive)
REMARK       I    between atoms: C_2  and  N_3 
REMARK    1  A    between atoms: N_3  and  C_4 
REMARK    2  A    between atoms: C_7  and  C_8 
REMARK    3  A    between atoms: C_12  and  N_13 
REMARK    4  A    between atoms: C_20  and  C_21 
ROOT
HETATM    1  C   UNL     1      42.377 -17.946   4.234  1.00  0.00     0.105 C 
HETATM    2  C   UNL     1      43.449 -18.841   4.859  1.00  0.00     0.067 C 
HETATM    3  C   UNL     1      43.532 -18.906   6.374  1.00  0.00     0.020 C 
HETATM    4  N   UNL     1      43.601 -18.960   7.633  1.00  0.00    -0.096 N 
HETATM    5  C   UNL     1      44.347 -19.548   4.121  1.00  0.00     0.139 C 
HETATM    6  O   UNL     1      44.368 -19.480   2.720  1.00  0.00    -0.279 OA
HETATM    7  C   UNL     1      43.585 -18.560   2.167  1.00  0.00     0.175 A 
HETATM    8  C   UNL     1      42.644 -17.762   2.772  1.00  0.00     0.040 A 
HETATM    9  N   UNL     1      43.629 -18.212   0.860  1.00  0.00    -0.256 N 
HETATM   10  H   UNL     1      44.217 -18.592   0.127  1.00  0.00     0.191 HD
HETATM   11  N   UNL     1      42.796 -17.202   0.563  1.00  0.00    -0.172 NA
HETATM   12  C   UNL     1      42.184 -16.906   1.728  1.00  0.00     0.099 A 
ENDROOT
BRANCH   1  13
HETATM   13  C   UNL     1      42.229 -16.581   4.880  1.00  0.00    -0.044 A 
HETATM   14  C   UNL     1      43.288 -15.671   5.020  1.00  0.00     0.010 A 
HETATM   15  C   UNL     1      43.074 -14.393   5.555  1.00  0.00     0.030 A 
HETATM   16  C   UNL     1      41.805 -14.008   5.987  1.00  0.00     0.034 A 
HETATM   17  C   UNL     1      40.760 -14.934   5.914  1.00  0.00     0.030 A 
HETATM   18  C   UNL     1      40.969 -16.204   5.372  1.00  0.00     0.010 A 
BRANCH  16  19
HETATM   19  N   UNL     1      41.484 -12.728   6.484  1.00  0.00    -0.328 N 
HETATM   20  C   UNL     1      41.405 -11.544   5.776  1.00  0.00     0.218 C 
HETATM   21  C   UNL     1      40.946 -10.390   6.636  1.00  0.00     0.117 C 
HETATM   22  O   UNL     1      41.624 -11.381   4.581  1.00  0.00    -0.274 OA
HETATM   23  H   UNL     1      41.234 -12.688   7.464  1.00  0.00     0.169 HD
ENDBRANCH  16  19
ENDBRANCH   1  13
BRANCH   5  24
HETATM   24  N   UNL     1      45.319 -20.382   4.625  1.00  0.00    -0.282 NA
HETATM   25  H   UNL     1      46.280 -20.143   4.395  1.00  0.00     0.126 HD
HETATM   26  H   UNL     1      45.180 -20.587   5.611  1.00  0.00     0.126 HD
ENDBRANCH   5  24
BRANCH  12  27
HETATM   27  C   UNL     1      41.252 -15.784   1.792  1.00  0.00    -0.005 A 
HETATM   28  C   UNL     1      39.870 -15.985   1.858  1.00  0.00     0.014 A 
HETATM   29  C   UNL     1      39.006 -14.890   1.963  1.00  0.00     0.001 A 
HETATM   30  C   UNL     1      39.518 -13.593   1.995  1.00  0.00     0.000 A 
HETATM   31  C   UNL     1      40.893 -13.383   1.913  1.00  0.00     0.001 A 
HETATM   32  C   UNL     1      41.755 -14.474   1.807  1.00  0.00     0.014 A 
ENDBRANCH  12  27
TORSDOF 4
ENDMDL
MODEL 6
REMARK VINA RESULT:      -8.0      2.563      7.469
REMARK  4 active torsions:
REMARK  status: ('A' for Active; 'I' for Inactive)
REMARK       I    between atoms: C_2  and  N_3 
REMARK    1  A    between atoms: N_3  and  C_4 
REMARK    2  A    between atoms: C_7  and  C_8 
REMARK    3  A    between atoms: C_12  and  N_13 
REMARK    4  A    between atoms: C_20  and  C_21 
ROOT
HETATM    1  C   UNL     1      40.972 -13.345   4.081  1.00  0.00     0.105 C 
HETATM    2  C   UNL     1      39.996 -12.326   4.670  1.00  0.00     0.067 C 
HETATM    3  C   UNL     1      40.245 -11.832   6.084  1.00  0.00     0.020 C 
HETATM    4  N   UNL     1      40.451 -11.421   7.259  1.00  0.00    -0.096 N 
HETATM    5  C   UNL     1      38.903 -11.872   3.999  1.00  0.00     0.139 C 
HETATM    6  O   UNL     1      38.578 -12.339   2.716  1.00  0.00    -0.279 OA
HETATM    7  C   UNL     1      39.291 -13.367   2.269  1.00  0.00     0.175 A 
HETATM    8  C   UNL     1      40.404 -13.944   2.831  1.00  0.00     0.040 A 
HETATM    9  N   UNL     1      38.988 -14.074   1.156  1.00  0.00    -0.256 N 
HETATM   10  H   UNL     1      38.224 -13.928   0.506  1.00  0.00     0.191 HD
HETATM   11  N   UNL     1      39.814 -15.114   0.960  1.00  0.00    -0.172 NA
HETATM   12  C   UNL     1      40.690 -15.056   1.984  1.00  0.00     0.099 A 
ENDROOT
BRANCH   1  13
HETATM   13  C   UNL     1      41.369 -14.467   5.024  1.00  0.00    -0.044 A 
HETATM   14  C   UNL     1      40.451 -15.361   5.595  1.00  0.00     0.010 A 
HETATM   15  C   UNL     1      40.886 -16.425   6.397  1.00  0.00     0.030 A 
HETATM   16  C   UNL     1      42.243 -16.602   6.667  1.00  0.00     0.034 A 
HETATM   17  C   UNL     1      43.157 -15.676   6.157  1.00  0.00     0.030 A 
HETATM   18  C   UNL     1      42.727 -14.621   5.349  1.00  0.00     0.010 A 
BRANCH  16  19
HETATM   19  N   UNL     1      42.776 -17.674   7.414  1.00  0.00    -0.328 N 
HETATM   20  C   UNL     1      43.387 -18.816   6.932  1.00  0.00     0.218 C 
HETATM   21  C   UNL     1      43.911 -19.698   8.040  1.00  0.00     0.117 C 
HETATM   22  O   UNL     1      43.560 -19.122   5.757  1.00  0.00    -0.274 OA
HETATM   23  H   UNL     1      42.750 -17.563   8.419  1.00  0.00     0.169 HD
ENDBRANCH  16  19
ENDBRANCH   1  13
BRANCH   5  24
HETATM   24  N   UNL     1      38.002 -10.945   4.468  1.00  0.00    -0.282 NA
HETATM   25  H   UNL     1      37.860 -10.122   3.888  1.00  0.00     0.126 HD
HETATM   26  H   UNL     1      37.133 -11.371   4.781  1.00  0.00     0.126 HD
ENDBRANCH   5  24
BRANCH  12  27
HETATM   27  C   UNL     1      41.701 -16.099   2.133  1.00  0.00    -0.005 A 
HETATM   28  C   UNL     1      41.374 -17.371   2.614  1.00  0.00     0.014 A 
HETATM   29  C   UNL     1      42.358 -18.361   2.702  1.00  0.00     0.001 A 
HETATM   30  C   UNL     1      43.670 -18.084   2.319  1.00  0.00     0.000 A 
HETATM   31  C   UNL     1      44.007 -16.814   1.854  1.00  0.00     0.001 A 
HETATM   32  C   UNL     1      43.028 -15.825   1.766  1.00  0.00     0.014 A 
ENDBRANCH  12  27
TORSDOF 4
ENDMDL
MODEL 7
REMARK VINA RESULT:      -8.0      2.608      5.550
REMARK  4 active torsions:
REMARK  status: ('A' for Active; 'I' for Inactive)
REMARK       I    between atoms: C_2  and  N_3 
REMARK    1  A    between atoms: N_3  and  C_4 
REMARK    2  A    between atoms: C_7  and  C_8 
REMARK    3  A    between atoms: C_12  and  N_13 
REMARK    4  A    between atoms: C_20  and  C_21 
ROOT
HETATM    1  C   UNL     1      42.014 -17.416   4.221  1.00  0.00     0.105 C 
HETATM    2  C   UNL     1      42.885 -18.532   3.641  1.00  0.00     0.067 C 
HETATM    3  C   UNL     1      43.910 -19.185   4.552  1.00  0.00     0.020 C 
HETATM    4  N   UNL     1      44.762 -19.727   5.309  1.00  0.00    -0.096 N 
HETATM    5  C   UNL     1      42.805 -18.938   2.346  1.00  0.00     0.139 C 
HETATM    6  O   UNL     1      41.927 -18.331   1.435  1.00  0.00    -0.279 OA
HETATM    7  C   UNL     1      41.310 -17.234   1.858  1.00  0.00     0.175 A 
HETATM    8  C   UNL     1      41.302 -16.691   3.120  1.00  0.00     0.040 A 
HETATM    9  N   UNL     1      40.596 -16.408   1.059  1.00  0.00    -0.256 N 
HETATM   10  H   UNL     1      40.407 -16.500   0.068  1.00  0.00     0.191 HD
HETATM   11  N   UNL     1      40.139 -15.324   1.707  1.00  0.00    -0.172 NA
HETATM   12  C   UNL     1      40.568 -15.476   2.977  1.00  0.00     0.099 A 
ENDROOT
BRANCH   1  13
HETATM   13  C   UNL     1      42.757 -16.405   5.073  1.00  0.00    -0.044 A 
HETATM   14  C   UNL     1      43.397 -15.271   4.550  1.00  0.00     0.010 A 
HETATM   15  C   UNL     1      44.001 -14.330   5.395  1.00  0.00     0.030 A 
HETATM   16  C   UNL     1      44.002 -14.515   6.778  1.00  0.00     0.034 A 
HETATM   17  C   UNL     1      43.426 -15.676   7.301  1.00  0.00     0.030 A 
HETATM   18  C   UNL     1      42.814 -16.609   6.462  1.00  0.00     0.010 A 
BRANCH  16  19
HETATM   19  N   UNL     1      44.533 -13.596   7.707  1.00  0.00    -0.328 N 
HETATM   20  C   UNL     1      45.742 -12.930   7.638  1.00  0.00     0.218 C 
HETATM   21  C   UNL     1      45.927 -11.957   8.777  1.00  0.00     0.117 C 
HETATM   22  O   UNL     1      46.594 -13.033   6.762  1.00  0.00    -0.274 OA
HETATM   23  H   UNL     1      43.931 -13.364   8.486  1.00  0.00     0.169 HD
ENDBRANCH  16  19
ENDBRANCH   1  13
BRANCH   5  24
HETATM   24  N   UNL     1      43.547 -19.946   1.774  1.00  0.00    -0.282 NA
HETATM   25  H   UNL     1      43.345 -20.890   2.094  1.00  0.00     0.126 HD
HETATM   26  H   UNL     1      43.596 -19.865   0.762  1.00  0.00     0.126 HD
ENDBRANCH   5  24
BRANCH  12  27
HETATM   27  C   UNL     1      40.314 -14.425   3.958  1.00  0.00    -0.005 A 
HETATM   28  C   UNL     1      39.842 -14.722   5.241  1.00  0.00     0.014 A 
HETATM   29  C   UNL     1      39.650 -13.696   6.172  1.00  0.00     0.001 A 
HETATM   30  C   UNL     1      39.922 -12.372   5.824  1.00  0.00     0.000 A 
HETATM   31  C   UNL     1      40.376 -12.067   4.543  1.00  0.00     0.001 A 
HETATM   32  C   UNL     1      40.566 -13.089   3.613  1.00  0.00     0.014 A 
ENDBRANCH  12  27
TORSDOF 4
ENDMDL
MODEL 8
REMARK VINA RESULT:      -7.9      2.471      5.132
REMARK  4 active torsions:
REMARK  status: ('A' for Active; 'I' for Inactive)
REMARK       I    between atoms: C_2  and  N_3 
REMARK    1  A    between atoms: N_3  and  C_4 
REMARK    2  A    between atoms: C_7  and  C_8 
REMARK    3  A    between atoms: C_12  and  N_13 
REMARK    4  A    between atoms: C_20  and  C_21 
ROOT
HETATM    1  C   UNL     1      43.000 -18.809   4.557  1.00  0.00     0.105 C 
HETATM    2  C   UNL     1      43.694 -20.137   4.861  1.00  0.00     0.067 C 
HETATM    3  C   UNL     1      43.755 -20.598   6.307  1.00  0.00     0.020 C 
HETATM    4  N   UNL     1      43.805 -20.981   7.508  1.00  0.00    -0.096 N 
HETATM    5  C   UNL     1      44.287 -20.900   3.903  1.00  0.00     0.139 C 
HETATM    6  O   UNL     1      44.325 -20.499   2.559  1.00  0.00    -0.279 OA
HETATM    7  C   UNL     1      43.911 -19.263   2.304  1.00  0.00     0.175 A 
HETATM    8  C   UNL     1      43.309 -18.370   3.158  1.00  0.00     0.040 A 
HETATM    9  N   UNL     1      44.069 -18.640   1.114  1.00  0.00    -0.256 N 
HETATM   10  H   UNL     1      44.484 -19.003   0.264  1.00  0.00     0.191 HD
HETATM   11  N   UNL     1      43.639 -17.368   1.133  1.00  0.00    -0.172 NA
HETATM   12  C   UNL     1      43.173 -17.179   2.384  1.00  0.00     0.099 A 
ENDROOT
BRANCH   1  13
HETATM   13  C   UNL     1      43.340 -17.678   5.510  1.00  0.00    -0.044 A 
HETATM   14  C   UNL     1      44.641 -17.408   5.959  1.00  0.00     0.010 A 
HETATM   15  C   UNL     1      44.905 -16.301   6.778  1.00  0.00     0.030 A 
HETATM   16  C   UNL     1      43.872 -15.458   7.189  1.00  0.00     0.034 A 
HETATM   17  C   UNL     1      42.564 -15.761   6.801  1.00  0.00     0.030 A 
HETATM   18  C   UNL     1      42.299 -16.857   5.976  1.00  0.00     0.010 A 
BRANCH  16  19
HETATM   19  N   UNL     1      44.051 -14.293   7.963  1.00  0.00    -0.328 N 
HETATM   20  C   UNL     1      45.030 -13.329   7.822  1.00  0.00     0.218 C 
HETATM   21  C   UNL     1      44.846 -12.178   8.782  1.00  0.00     0.117 C 
HETATM   22  O   UNL     1      45.947 -13.320   7.008  1.00  0.00    -0.274 OA
HETATM   23  H   UNL     1      43.346 -14.124   8.669  1.00  0.00     0.169 HD
ENDBRANCH  16  19
ENDBRANCH   1  13
BRANCH   5  24
HETATM   24  N   UNL     1      44.909 -22.109   4.113  1.00  0.00    -0.282 NA
HETATM   25  H   UNL     1      45.519 -22.436   3.369  1.00  0.00     0.126 HD
HETATM   26  H   UNL     1      45.329 -22.174   5.037  1.00  0.00     0.126 HD
ENDBRANCH   5  24
BRANCH  12  27
HETATM   27  C   UNL     1      42.691 -15.862   2.788  1.00  0.00    -0.005 A 
HETATM   28  C   UNL     1      43.574 -14.843   3.160  1.00  0.00     0.014 A 
HETATM   29  C   UNL     1      43.083 -13.578   3.499  1.00  0.00     0.001 A 
HETATM   30  C   UNL     1      41.711 -13.328   3.474  1.00  0.00     0.000 A 
HETATM   31  C   UNL     1      40.823 -14.343   3.120  1.00  0.00     0.001 A 
HETATM   32  C   UNL     1      41.312 -15.605   2.783  1.00  0.00     0.014 A 
ENDBRANCH  12  27
TORSDOF 4
ENDMDL
MODEL 9
REMARK VINA RESULT:      -7.8      3.311      7.088
REMARK  4 active torsions:
REMARK  status: ('A' for Active; 'I' for Inactive)
REMARK       I    between atoms: C_2  and  N_3 
REMARK    1  A    between atoms: N_3  and  C_4 
REMARK    2  A    between atoms: C_7  and  C_8 
REMARK    3  A    between atoms: C_12  and  N_13 
REMARK    4  A    between atoms: C_20  and  C_21 
ROOT
HETATM    1  C   UNL     1      42.168 -14.024   1.852  1.00  0.00     0.105 C 
HETATM    2  C   UNL     1      41.691 -13.247   0.624  1.00  0.00     0.067 C 
HETATM    3  C   UNL     1      41.658 -11.731   0.705  1.00  0.00     0.020 C 
HETATM    4  N   UNL     1      41.630 -10.471   0.772  1.00  0.00    -0.096 N 
HETATM    5  C   UNL     1      41.266 -13.853  -0.518  1.00  0.00     0.139 C 
HETATM    6  O   UNL     1      41.208 -15.251  -0.633  1.00  0.00    -0.279 OA
HETATM    7  C   UNL     1      41.423 -15.940   0.481  1.00  0.00     0.175 A 
HETATM    8  C   UNL     1      41.839 -15.478   1.706  1.00  0.00     0.040 A 
HETATM    9  N   UNL     1      41.205 -17.270   0.605  1.00  0.00    -0.256 N 
HETATM   10  H   UNL     1      40.884 -17.924  -0.101  1.00  0.00     0.191 HD
HETATM   11  N   UNL     1      41.420 -17.718   1.852  1.00  0.00    -0.172 NA
HETATM   12  C   UNL     1      41.805 -16.629   2.548  1.00  0.00     0.099 A 
ENDROOT
BRANCH   1  13
HETATM   13  C   UNL     1      41.615 -13.527   3.175  1.00  0.00    -0.044 A 
HETATM   14  C   UNL     1      40.243 -13.457   3.464  1.00  0.00     0.010 A 
HETATM   15  C   UNL     1      39.794 -13.063   4.732  1.00  0.00     0.030 A 
HETATM   16  C   UNL     1      40.702 -12.706   5.729  1.00  0.00     0.034 A 
HETATM   17  C   UNL     1      42.067 -12.709   5.426  1.00  0.00     0.030 A 
HETATM   18  C   UNL     1      42.518 -13.110   4.167  1.00  0.00     0.010 A 
BRANCH  16  19
HETATM   19  N   UNL     1      40.345 -12.353   7.047  1.00  0.00    -0.328 N 
HETATM   20  C   UNL     1      39.591 -11.270   7.455  1.00  0.00     0.218 C 
HETATM   21  C   UNL     1      39.343 -11.272   8.945  1.00  0.00     0.117 C 
HETATM   22  O   UNL     1      39.109 -10.395   6.745  1.00  0.00    -0.274 OA
HETATM   23  H   UNL     1      40.636 -13.002   7.767  1.00  0.00     0.169 HD
ENDBRANCH  16  19
ENDBRANCH   1  13
BRANCH   5  24
HETATM   24  N   UNL     1      40.844 -13.210  -1.658  1.00  0.00    -0.282 NA
HETATM   25  H   UNL     1      41.307 -12.331  -1.876  1.00  0.00     0.126 HD
HETATM   26  H   UNL     1      40.776 -13.837  -2.455  1.00  0.00     0.126 HD
ENDBRANCH   5  24
BRANCH  12  27
HETATM   27  C   UNL     1      42.050 -16.735   3.983  1.00  0.00    -0.005 A 
HETATM   28  C   UNL     1      43.348 -16.771   4.503  1.00  0.00     0.014 A 
HETATM   29  C   UNL     1      43.549 -16.828   5.886  1.00  0.00     0.001 A 
HETATM   30  C   UNL     1      42.456 -16.857   6.753  1.00  0.00     0.000 A 
HETATM   31  C   UNL     1      41.160 -16.839   6.243  1.00  0.00     0.001 A 
HETATM   32  C   UNL     1      40.958 -16.783   4.864  1.00  0.00     0.014 A 
ENDBRANCH  12  27
TORSDOF 4
ENDMDL
MODEL 10
REMARK VINA RESULT:      -7.7      3.032      5.749
REMARK  4 active torsions:
REMARK  status: ('A' for Active; 'I' for Inactive)
REMARK       I    between atoms: C_2  and  N_3 
REMARK    1  A    between atoms: N_3  and  C_4 
REMARK    2  A    between atoms: C_7  and  C_8 
REMARK    3  A    between atoms: C_12  and  N_13 
REMARK    4  A    between atoms: C_20  and  C_21 
ROOT
HETATM    1  C   UNL     1      40.677 -13.809   4.668  1.00  0.00     0.105 C 
HETATM    2  C   UNL     1      40.248 -12.343   4.738  1.00  0.00     0.067 C 
HETATM    3  C   UNL     1      39.167 -11.868   3.782  1.00  0.00     0.020 C 
HETATM    4  N   UNL     1      38.269 -11.474   2.988  1.00  0.00    -0.096 N 
HETATM    5  C   UNL     1      40.811 -11.444   5.589  1.00  0.00     0.139 C 
HETATM    6  O   UNL     1      41.860 -11.802   6.451  1.00  0.00    -0.279 OA
HETATM    7  C   UNL     1      42.384 -13.008   6.267  1.00  0.00     0.175 A 
HETATM    8  C   UNL     1      41.943 -14.015   5.443  1.00  0.00     0.040 A 
HETATM    9  N   UNL     1      43.523 -13.439   6.857  1.00  0.00    -0.256 N 
HETATM   10  H   UNL     1      44.115 -12.948   7.516  1.00  0.00     0.191 HD
HETATM   11  N   UNL     1      43.888 -14.665   6.447  1.00  0.00    -0.172 NA
HETATM   12  C   UNL     1      42.932 -15.035   5.571  1.00  0.00     0.099 A 
ENDROOT
BRANCH   1  13
HETATM   13  C   UNL     1      40.869 -14.352   3.264  1.00  0.00    -0.044 A 
HETATM   14  C   UNL     1      40.222 -15.500   2.782  1.00  0.00     0.010 A 
HETATM   15  C   UNL     1      40.377 -15.908   1.450  1.00  0.00     0.030 A 
HETATM   16  C   UNL     1      41.203 -15.196   0.580  1.00  0.00     0.034 A 
HETATM   17  C   UNL     1      41.904 -14.091   1.073  1.00  0.00     0.030 A 
HETATM   18  C   UNL     1      41.742 -13.676   2.396  1.00  0.00     0.010 A 
BRANCH  16  19
HETATM   19  N   UNL     1      41.375 -15.499  -0.787  1.00  0.00    -0.328 N 
HETATM   20  C   UNL     1      40.619 -15.048  -1.851  1.00  0.00     0.218 C 
HETATM   21  C   UNL     1      41.162 -15.518  -3.180  1.00  0.00     0.117 C 
HETATM   22  O   UNL     1      39.637 -14.316  -1.803  1.00  0.00    -0.274 OA
HETATM   23  H   UNL     1      42.178 -16.072  -1.010  1.00  0.00     0.169 HD
ENDBRANCH  16  19
ENDBRANCH   1  13
BRANCH   5  24
HETATM   24  N   UNL     1      40.455 -10.121   5.710  1.00  0.00    -0.282 NA
HETATM   25  H   UNL     1      40.281  -9.787   6.654  1.00  0.00     0.126 HD
HETATM   26  H   UNL     1      41.058  -9.506   5.170  1.00  0.00     0.126 HD
ENDBRANCH   5  24
BRANCH  12  27
HETATM   27  C   UNL     1      43.053 -16.304   4.860  1.00  0.00    -0.005 A 
HETATM   28  C   UNL     1      43.686 -16.387   3.615  1.00  0.00     0.014 A 
HETATM   29  C   UNL     1      43.824 -17.625   2.980  1.00  0.00     0.001 A 
HETATM   30  C   UNL     1      43.327 -18.782   3.581  1.00  0.00     0.000 A 
HETATM   31  C   UNL     1      42.681 -18.705   4.813  1.00  0.00     0.001 A 
HETATM   32  C   UNL     1      42.541 -17.471   5.447  1.00  0.00     0.014 A 
ENDBRANCH  12  27
TORSDOF 4
ENDMDL
