MODEL 1
REMARK VINA RESULT:      -8.8      0.000      0.000
REMARK  3 active torsions:
REMARK  status: ('A' for Active; 'I' for Inactive)
REMARK    1  A    between atoms: C_12  and  C_13 
REMARK    2  A    between atoms: C_13  and  N_14 
REMARK       I    between atoms: N_14  and  C_15 
REMARK    3  A    between atoms: C_15  and  C_16 
ROOT
HETATM    1  N   UNL     1      41.954 -17.142   4.504  1.00  0.00    -0.352 N 
HETATM    2  C   UNL     1      43.211 -17.358   5.006  1.00  0.00     0.254 C 
HETATM    3  O   UNL     1      43.895 -16.447   5.467  1.00  0.00    -0.268 OA
HETATM    4  H   UNL     1      41.454 -17.921   4.099  1.00  0.00     0.163 HD
ENDROOT
BRANCH   1   5
HETATM    5  C   UNL     1      41.363 -15.831   4.395  1.00  0.00     0.165 C 
BRANCH   5   6
HETATM    6  C   UNL     1      41.565 -15.253   3.024  1.00  0.00     0.008 C 
HETATM    7  C   UNL     1      42.346 -13.943   2.870  1.00  0.00     0.043 C 
HETATM    8  C   UNL     1      43.092 -13.398   4.071  1.00  0.00     0.071 C 
HETATM    9  N   UNL     1      42.461 -13.242   1.777  1.00  0.00    -0.234 NA
HETATM   10  C   UNL     1      41.817 -13.784   0.704  1.00  0.00     0.154 C 
HETATM   11  C   UNL     1      41.669 -13.158  -0.470  1.00  0.00     0.128 C 
HETATM   12  N   UNL     1      41.204 -15.023   0.694  1.00  0.00    -0.239 N 
HETATM   13  C   UNL     1      40.899 -14.105  -1.301  1.00  0.00     0.263 C 
HETATM   14  N   UNL     1      40.524 -15.166  -0.494  1.00  0.00    -0.258 N 
HETATM   15  O   UNL     1      40.685 -13.976  -2.494  1.00  0.00    -0.267 OA
HETATM   16  H   UNL     1      40.378 -16.078  -0.903  1.00  0.00     0.191 HD
HETATM   17  C   UNL     1      41.015 -15.726   1.873  1.00  0.00     0.042 C 
HETATM   18  C   UNL     1      40.188 -16.984   1.780  1.00  0.00     0.071 C 
ENDBRANCH   5   6
ENDBRANCH   1   5
BRANCH   2  19
HETATM   19  C   UNL     1      43.701 -18.741   4.954  1.00  0.00     0.062 A 
HETATM   20  C   UNL     1      43.842 -19.680   3.867  1.00  0.00     0.046 A 
HETATM   21  C   UNL     1      44.383 -20.858   4.397  1.00  0.00     0.046 A 
HETATM   22  C   UNL     1      43.581 -19.673   2.478  1.00  0.00     0.130 A 
HETATM   23  C   UNL     1      44.664 -21.992   3.620  1.00  0.00     0.030 A 
HETATM   24  N   UNL     1      44.562 -20.657   5.745  1.00  0.00    -0.364 N 
HETATM   25  C   UNL     1      44.389 -21.937   2.252  1.00  0.00     0.005 A 
HETATM   26  C   UNL     1      43.851 -20.788   1.683  1.00  0.00     0.043 A 
HETATM   27  H   UNL     1      44.940 -21.341   6.386  1.00  0.00     0.165 HD
HETATM   28  C   UNL     1      44.163 -19.397   6.085  1.00  0.00     0.106 A 
HETATM   29  F   UNL     1      43.065 -18.587   1.884  1.00  0.00    -0.205 F 
ENDBRANCH   2  19
TORSDOF 3
ENDMDL
MODEL 2
REMARK VINA RESULT:      -8.4      1.534      1.722
REMARK  3 active torsions:
REMARK  status: ('A' for Active; 'I' for Inactive)
REMARK    1  A    between atoms: C_12  and  C_13 
REMARK    2  A    between atoms: C_13  and  N_14 
REMARK       I    between atoms: N_14  and  C_15 
REMARK    3  A    between atoms: C_15  and  C_16 
ROOT
HETATM    1  N   UNL     1      41.829 -16.311   3.104  1.00  0.00    -0.352 N 
HETATM    2  C   UNL     1      41.834 -16.925   4.330  1.00  0.00     0.254 C 
HETATM    3  O   UNL     1      41.027 -16.633   5.210  1.00  0.00    -0.268 OA
HETATM    4  H   UNL     1      42.543 -16.561   2.434  1.00  0.00     0.163 HD
ENDROOT
BRANCH   1   5
HETATM    5  C   UNL     1      40.945 -15.221   2.772  1.00  0.00     0.165 C 
BRANCH   5   6
HETATM    6  C   UNL     1      41.515 -14.369   1.675  1.00  0.00     0.008 C 
HETATM    7  C   UNL     1      41.904 -12.918   1.979  1.00  0.00     0.043 C 
HETATM    8  C   UNL     1      41.927 -12.460   3.424  1.00  0.00     0.071 C 
HETATM    9  N   UNL     1      42.254 -12.017   1.104  1.00  0.00    -0.234 NA
HETATM   10  C   UNL     1      42.269 -12.475  -0.181  1.00  0.00     0.154 C 
HETATM   11  C   UNL     1      42.440 -11.687  -1.250  1.00  0.00     0.128 C 
HETATM   12  N   UNL     1      42.073 -13.791  -0.553  1.00  0.00    -0.239 N 
HETATM   13  C   UNL     1      42.358 -12.604  -2.404  1.00  0.00     0.263 C 
HETATM   14  N   UNL     1      41.994 -13.852  -1.926  1.00  0.00    -0.258 N 
HETATM   15  O   UNL     1      42.615 -12.304  -3.557  1.00  0.00    -0.267 OA
HETATM   16  H   UNL     1      42.278 -14.682  -2.427  1.00  0.00     0.191 HD
HETATM   17  C   UNL     1      41.624 -14.725   0.367  1.00  0.00     0.042 C 
HETATM   18  C   UNL     1      41.279 -16.090  -0.174  1.00  0.00     0.071 C 
ENDBRANCH   5   6
ENDBRANCH   1   5
BRANCH   2  19
HETATM   19  C   UNL     1      42.865 -17.949   4.538  1.00  0.00     0.062 A 
HETATM   20  C   UNL     1      43.353 -19.018   3.700  1.00  0.00     0.046 A 
HETATM   21  C   UNL     1      44.365 -19.678   4.408  1.00  0.00     0.046 A 
HETATM   22  C   UNL     1      43.062 -19.509   2.407  1.00  0.00     0.130 A 
HETATM   23  C   UNL     1      45.074 -20.773   3.892  1.00  0.00     0.030 A 
HETATM   24  N   UNL     1      44.492 -19.050   5.623  1.00  0.00    -0.364 N 
HETATM   25  C   UNL     1      44.750 -21.223   2.610  1.00  0.00     0.005 A 
HETATM   26  C   UNL     1      43.752 -20.598   1.872  1.00  0.00     0.043 A 
HETATM   27  H   UNL     1      45.150 -19.314   6.344  1.00  0.00     0.165 HD
HETATM   28  C   UNL     1      43.606 -18.015   5.708  1.00  0.00     0.106 A 
HETATM   29  F   UNL     1      42.108 -18.937   1.657  1.00  0.00    -0.205 F 
ENDBRANCH   2  19
TORSDOF 3
ENDMDL
MODEL 3
REMARK VINA RESULT:      -8.4      2.761      4.174
REMARK  3 active torsions:
REMARK  status: ('A' for Active; 'I' for Inactive)
REMARK    1  A    between atoms: C_12  and  C_13 
REMARK    2  A    between atoms: C_13  and  N_14 
REMARK       I    between atoms: N_14  and  C_15 
REMARK    3  A    between atoms: C_15  and  C_16 
ROOT
HETATM    1  N   UNL     1      43.683 -16.206   3.564  1.00  0.00    -0.352 N 
HETATM    2  C   UNL     1      43.176 -17.444   3.262  1.00  0.00     0.254 C 
HETATM    3  O   UNL     1      42.319 -17.604   2.396  1.00  0.00    -0.268 OA
HETATM    4  H   UNL     1      44.354 -16.127   4.314  1.00  0.00     0.163 HD
ENDROOT
BRANCH   1   5
HETATM    5  C   UNL     1      43.200 -14.988   2.960  1.00  0.00     0.165 C 
BRANCH   5   6
HETATM    6  C   UNL     1      42.058 -14.406   3.741  1.00  0.00     0.008 C 
HETATM    7  C   UNL     1      40.697 -14.228   3.058  1.00  0.00     0.043 C 
HETATM    8  C   UNL     1      40.479 -14.860   1.698  1.00  0.00     0.071 C 
HETATM    9  N   UNL     1      39.669 -13.593   3.549  1.00  0.00    -0.234 NA
HETATM   10  C   UNL     1      39.883 -13.078   4.793  1.00  0.00     0.154 C 
HETATM   11  C   UNL     1      39.027 -12.257   5.416  1.00  0.00     0.128 C 
HETATM   12  N   UNL     1      41.014 -13.296   5.555  1.00  0.00    -0.239 N 
HETATM   13  C   UNL     1      39.682 -11.944   6.702  1.00  0.00     0.263 C 
HETATM   14  N   UNL     1      40.953 -12.493   6.672  1.00  0.00    -0.258 N 
HETATM   15  O   UNL     1      39.161 -11.347   7.626  1.00  0.00    -0.267 OA
HETATM   16  H   UNL     1      41.399 -12.769   7.535  1.00  0.00     0.191 HD
HETATM   17  C   UNL     1      42.132 -13.900   5.001  1.00  0.00     0.042 C 
HETATM   18  C   UNL     1      43.371 -13.939   5.861  1.00  0.00     0.071 C 
ENDBRANCH   5   6
ENDBRANCH   1   5
BRANCH   2  19
HETATM   19  C   UNL     1      43.709 -18.569   4.040  1.00  0.00     0.062 A 
HETATM   20  C   UNL     1      44.018 -19.933   3.685  1.00  0.00     0.046 A 
HETATM   21  C   UNL     1      44.521 -20.562   4.831  1.00  0.00     0.046 A 
HETATM   22  C   UNL     1      43.941 -20.720   2.514  1.00  0.00     0.130 A 
HETATM   23  C   UNL     1      44.934 -21.902   4.853  1.00  0.00     0.030 A 
HETATM   24  N   UNL     1      44.516 -19.632   5.843  1.00  0.00    -0.364 N 
HETATM   25  C   UNL     1      44.838 -22.640   3.671  1.00  0.00     0.005 A 
HETATM   26  C   UNL     1      44.345 -22.056   2.509  1.00  0.00     0.043 A 
HETATM   27  H   UNL     1      44.828 -19.808   6.789  1.00  0.00     0.165 HD
HETATM   28  C   UNL     1      44.039 -18.441   5.381  1.00  0.00     0.106 A 
HETATM   29  F   UNL     1      43.474 -20.200   1.369  1.00  0.00    -0.205 F 
ENDBRANCH   2  19
TORSDOF 3
ENDMDL
MODEL 4
REMARK VINA RESULT:      -8.2      5.181      8.326
REMARK  3 active torsions:
REMARK  status: ('A' for Active; 'I' for Inactive)
REMARK    1  A    between atoms: C_12  and  C_13 
REMARK    2  A    between atoms: C_13  and  N_14 
REMARK       I    between atoms: N_14  and  C_15 
REMARK    3  A    between atoms: C_15  and  C_16 
ROOT
HETATM    1  N   UNL     1      44.318 -13.642   7.970  1.00  0.00    -0.352 N 
HETATM    2  C   UNL     1      45.124 -12.645   8.457  1.00  0.00     0.254 C 
HETATM    3  O   UNL     1      46.294 -12.521   8.103  1.00  0.00    -0.268 OA
HETATM    4  H   UNL     1      43.377 -13.722   8.327  1.00  0.00     0.163 HD
ENDROOT
BRANCH   1   5
HETATM    5  C   UNL     1      44.790 -14.672   7.077  1.00  0.00     0.165 C 
BRANCH   5   6
HETATM    6  C   UNL     1      43.652 -15.324   6.345  1.00  0.00     0.008 C 
HETATM    7  C   UNL     1      43.040 -16.612   6.908  1.00  0.00     0.043 C 
HETATM    8  C   UNL     1      43.436 -17.055   8.302  1.00  0.00     0.071 C 
HETATM    9  N   UNL     1      42.169 -17.374   6.307  1.00  0.00    -0.234 NA
HETATM   10  C   UNL     1      41.799 -16.921   5.075  1.00  0.00     0.154 C 
HETATM   11  C   UNL     1      41.044 -17.623   4.220  1.00  0.00     0.128 C 
HETATM   12  N   UNL     1      42.179 -15.709   4.532  1.00  0.00    -0.239 N 
HETATM   13  C   UNL     1      40.929 -16.756   3.029  1.00  0.00     0.263 C 
HETATM   14  N   UNL     1      41.756 -15.663   3.222  1.00  0.00    -0.258 N 
HETATM   15  O   UNL     1      40.194 -16.965   2.080  1.00  0.00    -0.267 OA
HETATM   16  H   UNL     1      41.533 -14.783   2.778  1.00  0.00     0.191 HD
HETATM   17  C   UNL     1      43.163 -14.942   5.135  1.00  0.00     0.042 C 
HETATM   18  C   UNL     1      43.626 -13.723   4.377  1.00  0.00     0.071 C 
ENDBRANCH   5   6
ENDBRANCH   1   5
BRANCH   2  19
HETATM   19  C   UNL     1      44.511 -11.736   9.433  1.00  0.00     0.062 A 
HETATM   20  C   UNL     1      43.313 -10.933   9.393  1.00  0.00     0.046 A 
HETATM   21  C   UNL     1      43.209 -10.271  10.622  1.00  0.00     0.046 A 
HETATM   22  C   UNL     1      42.284 -10.690   8.454  1.00  0.00     0.130 A 
HETATM   23  C   UNL     1      42.153  -9.403  10.940  1.00  0.00     0.030 A 
HETATM   24  N   UNL     1      44.292 -10.643  11.381  1.00  0.00    -0.364 N 
HETATM   25  C   UNL     1      41.161  -9.194   9.980  1.00  0.00     0.005 A 
HETATM   26  C   UNL     1      41.224  -9.830   8.746  1.00  0.00     0.043 A 
HETATM   27  H   UNL     1      44.478 -10.319  12.321  1.00  0.00     0.165 HD
HETATM   28  C   UNL     1      45.071 -11.520  10.683  1.00  0.00     0.106 A 
HETATM   29  F   UNL     1      42.301 -11.283   7.251  1.00  0.00    -0.205 F 
ENDBRANCH   2  19
TORSDOF 3
ENDMDL
MODEL 5
REMARK VINA RESULT:      -8.2      2.366      3.464
REMARK  3 active torsions:
REMARK  status: ('A' for Active; 'I' for Inactive)
REMARK    1  A    between atoms: C_12  and  C_13 
REMARK    2  A    between atoms: C_13  and  N_14 
REMARK       I    between atoms: N_14  and  C_15 
REMARK    3  A    between atoms: C_15  and  C_16 
ROOT
HETATM    1  N   UNL     1      41.776 -16.092   1.700  1.00  0.00    -0.352 N 
HETATM    2  C   UNL     1      41.650 -17.454   1.606  1.00  0.00     0.254 C 
HETATM    3  O   UNL     1      40.734 -17.983   0.980  1.00  0.00    -0.268 OA
HETATM    4  H   UNL     1      42.524 -15.712   2.263  1.00  0.00     0.163 HD
ENDROOT
BRANCH   1   5
HETATM    5  C   UNL     1      40.809 -15.172   1.154  1.00  0.00     0.165 C 
BRANCH   5   6
HETATM    6  C   UNL     1      41.447 -14.223   0.181  1.00  0.00     0.008 C 
HETATM    7  C   UNL     1      42.007 -12.890   0.691  1.00  0.00     0.043 C 
HETATM    8  C   UNL     1      42.117 -12.675   2.188  1.00  0.00     0.071 C 
HETATM    9  N   UNL     1      42.437 -11.905  -0.047  1.00  0.00    -0.234 NA
HETATM   10  C   UNL     1      42.368 -12.150  -1.386  1.00  0.00     0.154 C 
HETATM   11  C   UNL     1      42.603 -11.224  -2.325  1.00  0.00     0.128 C 
HETATM   12  N   UNL     1      42.014 -13.360  -1.951  1.00  0.00    -0.239 N 
HETATM   13  C   UNL     1      42.389 -11.931  -3.604  1.00  0.00     0.263 C 
HETATM   14  N   UNL     1      41.895 -13.191  -3.312  1.00  0.00    -0.258 N 
HETATM   15  O   UNL     1      42.650 -11.480  -4.705  1.00  0.00    -0.267 OA
HETATM   16  H   UNL     1      42.070 -13.956  -3.948  1.00  0.00     0.191 HD
HETATM   17  C   UNL     1      41.483 -14.375  -1.170  1.00  0.00     0.042 C 
HETATM   18  C   UNL     1      40.971 -15.590  -1.903  1.00  0.00     0.071 C 
ENDBRANCH   5   6
ENDBRANCH   1   5
BRANCH   2  19
HETATM   19  C   UNL     1      42.669 -18.248   2.303  1.00  0.00     0.062 A 
HETATM   20  C   UNL     1      42.946 -18.457   3.704  1.00  0.00     0.046 A 
HETATM   21  C   UNL     1      44.035 -19.333   3.792  1.00  0.00     0.046 A 
HETATM   22  C   UNL     1      42.393 -18.010   4.926  1.00  0.00     0.130 A 
HETATM   23  C   UNL     1      44.576 -19.766   5.012  1.00  0.00     0.030 A 
HETATM   24  N   UNL     1      44.414 -19.645   2.508  1.00  0.00    -0.364 N 
HETATM   25  C   UNL     1      43.996 -19.296   6.192  1.00  0.00     0.005 A 
HETATM   26  C   UNL     1      42.914 -18.425   6.153  1.00  0.00     0.043 A 
HETATM   27  H   UNL     1      45.177 -20.262   2.266  1.00  0.00     0.165 HD
HETATM   28  C   UNL     1      43.603 -19.008   1.615  1.00  0.00     0.106 A 
HETATM   29  F   UNL     1      41.347 -17.171   4.938  1.00  0.00    -0.205 F 
ENDBRANCH   2  19
TORSDOF 3
ENDMDL
MODEL 6
REMARK VINA RESULT:      -8.1      2.117      2.868
REMARK  3 active torsions:
REMARK  status: ('A' for Active; 'I' for Inactive)
REMARK    1  A    between atoms: C_12  and  C_13 
REMARK    2  A    between atoms: C_13  and  N_14 
REMARK       I    between atoms: N_14  and  C_15 
REMARK    3  A    between atoms: C_15  and  C_16 
ROOT
HETATM    1  N   UNL     1      42.504 -15.084   6.309  1.00  0.00    -0.352 N 
HETATM    2  C   UNL     1      43.716 -15.581   6.713  1.00  0.00     0.254 C 
HETATM    3  O   UNL     1      44.724 -14.879   6.765  1.00  0.00    -0.268 OA
HETATM    4  H   UNL     1      41.719 -15.716   6.245  1.00  0.00     0.163 HD
ENDROOT
BRANCH   1   5
HETATM    5  C   UNL     1      42.324 -13.734   5.833  1.00  0.00     0.165 C 
BRANCH   5   6
HETATM    6  C   UNL     1      41.656 -13.713   4.489  1.00  0.00     0.008 C 
HETATM    7  C   UNL     1      40.150 -13.439   4.405  1.00  0.00     0.043 C 
HETATM    8  C   UNL     1      39.428 -12.963   5.650  1.00  0.00     0.071 C 
HETATM    9  N   UNL     1      39.407 -13.550   3.339  1.00  0.00    -0.234 NA
HETATM   10  C   UNL     1      40.096 -13.934   2.226  1.00  0.00     0.154 C 
HETATM   11  C   UNL     1      39.513 -14.264   1.066  1.00  0.00     0.128 C 
HETATM   12  N   UNL     1      41.469 -14.072   2.155  1.00  0.00    -0.239 N 
HETATM   13  C   UNL     1      40.635 -14.629   0.178  1.00  0.00     0.263 C 
HETATM   14  N   UNL     1      41.792 -14.628   0.938  1.00  0.00    -0.258 N 
HETATM   15  O   UNL     1      40.540 -14.844  -1.017  1.00  0.00    -0.267 OA
HETATM   16  H   UNL     1      42.680 -14.433   0.496  1.00  0.00     0.191 HD
HETATM   17  C   UNL     1      42.243 -14.032   3.304  1.00  0.00     0.042 C 
HETATM   18  C   UNL     1      43.706 -14.361   3.142  1.00  0.00     0.071 C 
ENDBRANCH   5   6
ENDBRANCH   1   5
BRANCH   2  19
HETATM   19  C   UNL     1      43.746 -17.003   7.073  1.00  0.00     0.062 A 
HETATM   20  C   UNL     1      43.953 -18.198   6.290  1.00  0.00     0.046 A 
HETATM   21  C   UNL     1      43.894 -19.290   7.166  1.00  0.00     0.046 A 
HETATM   22  C   UNL     1      44.195 -18.491   4.929  1.00  0.00     0.130 A 
HETATM   23  C   UNL     1      44.061 -20.618   6.748  1.00  0.00     0.030 A 
HETATM   24  N   UNL     1      43.657 -18.792   8.425  1.00  0.00    -0.364 N 
HETATM   25  C   UNL     1      44.297 -20.858   5.393  1.00  0.00     0.005 A 
HETATM   26  C   UNL     1      44.364 -19.805   4.488  1.00  0.00     0.043 A 
HETATM   27  H   UNL     1      43.566 -19.356   9.260  1.00  0.00     0.165 HD
HETATM   28  C   UNL     1      43.572 -17.432   8.381  1.00  0.00     0.106 A 
HETATM   29  F   UNL     1      44.270 -17.508   4.020  1.00  0.00    -0.205 F 
ENDBRANCH   2  19
TORSDOF 3
ENDMDL
MODEL 7
REMARK VINA RESULT:      -8.1      5.622      8.885
REMARK  3 active torsions:
REMARK  status: ('A' for Active; 'I' for Inactive)
REMARK    1  A    between atoms: C_12  and  C_13 
REMARK    2  A    between atoms: C_13  and  N_14 
REMARK       I    between atoms: N_14  and  C_15 
REMARK    3  A    between atoms: C_15  and  C_16 
ROOT
HETATM    1  N   UNL     1      43.793 -13.293   7.612  1.00  0.00    -0.352 N 
HETATM    2  C   UNL     1      44.341 -12.299   8.381  1.00  0.00     0.254 C 
HETATM    3  O   UNL     1      45.546 -12.245   8.616  1.00  0.00    -0.268 OA
HETATM    4  H   UNL     1      42.791 -13.312   7.486  1.00  0.00     0.163 HD
ENDROOT
BRANCH   1   5
HETATM    5  C   UNL     1      44.558 -14.399   7.091  1.00  0.00     0.165 C 
BRANCH   5   6
HETATM    6  C   UNL     1      43.713 -15.289   6.225  1.00  0.00     0.008 C 
HETATM    7  C   UNL     1      43.249 -16.643   6.772  1.00  0.00     0.043 C 
HETATM    8  C   UNL     1      43.452 -16.941   8.244  1.00  0.00     0.071 C 
HETATM    9  N   UNL     1      42.657 -17.584   6.090  1.00  0.00    -0.234 NA
HETATM   10  C   UNL     1      42.447 -17.266   4.781  1.00  0.00     0.154 C 
HETATM   11  C   UNL     1      42.003 -18.137   3.865  1.00  0.00     0.128 C 
HETATM   12  N   UNL     1      42.697 -16.029   4.218  1.00  0.00    -0.239 N 
HETATM   13  C   UNL     1      41.957 -17.362   2.608  1.00  0.00     0.263 C 
HETATM   14  N   UNL     1      42.523 -16.123   2.856  1.00  0.00    -0.258 N 
HETATM   15  O   UNL     1      41.462 -17.749   1.565  1.00  0.00    -0.267 OA
HETATM   16  H   UNL     1      42.233 -15.323   2.312  1.00  0.00     0.191 HD
HETATM   17  C   UNL     1      43.397 -15.062   4.922  1.00  0.00     0.042 C 
HETATM   18  C   UNL     1      43.766 -13.812   4.163  1.00  0.00     0.071 C 
ENDBRANCH   5   6
ENDBRANCH   1   5
BRANCH   2  19
HETATM   19  C   UNL     1      43.405 -11.303   8.915  1.00  0.00     0.062 A 
HETATM   20  C   UNL     1      43.322 -10.636  10.192  1.00  0.00     0.046 A 
HETATM   21  C   UNL     1      42.227  -9.764  10.141  1.00  0.00     0.046 A 
HETATM   22  C   UNL     1      44.056 -10.659  11.400  1.00  0.00     0.130 A 
HETATM   23  C   UNL     1      41.850  -8.942  11.214  1.00  0.00     0.030 A 
HETATM   24  N   UNL     1      41.661  -9.891   8.896  1.00  0.00    -0.364 N 
HETATM   25  C   UNL     1      42.606  -9.001  12.386  1.00  0.00     0.005 A 
HETATM   26  C   UNL     1      43.700  -9.853  12.482  1.00  0.00     0.043 A 
HETATM   27  H   UNL     1      40.850  -9.378   8.576  1.00  0.00     0.165 HD
HETATM   28  C   UNL     1      42.358 -10.801   8.157  1.00  0.00     0.106 A 
HETATM   29  F   UNL     1      45.122 -11.463  11.538  1.00  0.00    -0.205 F 
ENDBRANCH   2  19
TORSDOF 3
ENDMDL
MODEL 8
REMARK VINA RESULT:      -8.0      1.422      1.858
REMARK  3 active torsions:
REMARK  status: ('A' for Active; 'I' for Inactive)
REMARK    1  A    between atoms: C_12  and  C_13 
REMARK    2  A    between atoms: C_13  and  N_14 
REMARK       I    between atoms: N_14  and  C_15 
REMARK    3  A    between atoms: C_15  and  C_16 
ROOT
HETATM    1  N   UNL     1      43.132 -17.107   5.182  1.00  0.00    -0.352 N 
HETATM    2  C   UNL     1      44.080 -17.736   5.948  1.00  0.00     0.254 C 
HETATM    3  O   UNL     1      44.857 -17.111   6.668  1.00  0.00    -0.268 OA
HETATM    4  H   UNL     1      42.548 -17.668   4.578  1.00  0.00     0.163 HD
ENDROOT
BRANCH   1   5
HETATM    5  C   UNL     1      43.020 -15.673   5.087  1.00  0.00     0.165 C 
BRANCH   5   6
HETATM    6  C   UNL     1      42.231 -15.265   3.876  1.00  0.00     0.008 C 
HETATM    7  C   UNL     1      40.770 -14.833   4.045  1.00  0.00     0.043 C 
HETATM    8  C   UNL     1      40.239 -14.600   5.445  1.00  0.00     0.071 C 
HETATM    9  N   UNL     1      39.918 -14.612   3.082  1.00  0.00    -0.234 NA
HETATM   10  C   UNL     1      40.441 -14.785   1.835  1.00  0.00     0.154 C 
HETATM   11  C   UNL     1      39.710 -14.769   0.712  1.00  0.00     0.128 C 
HETATM   12  N   UNL     1      41.772 -15.036   1.564  1.00  0.00    -0.239 N 
HETATM   13  C   UNL     1      40.685 -15.020  -0.369  1.00  0.00     0.263 C 
HETATM   14  N   UNL     1      41.903 -15.314   0.222  1.00  0.00    -0.258 N 
HETATM   15  O   UNL     1      40.446 -14.933  -1.560  1.00  0.00    -0.267 OA
HETATM   16  H   UNL     1      42.760 -15.108  -0.271  1.00  0.00     0.191 HD
HETATM   17  C   UNL     1      42.654 -15.348   2.587  1.00  0.00     0.042 C 
HETATM   18  C   UNL     1      44.041 -15.771   2.173  1.00  0.00     0.071 C 
ENDBRANCH   5   6
ENDBRANCH   1   5
BRANCH   2  19
HETATM   19  C   UNL     1      44.121 -19.200   5.856  1.00  0.00     0.062 A 
HETATM   20  C   UNL     1      44.295 -20.096   4.738  1.00  0.00     0.046 A 
HETATM   21  C   UNL     1      44.269 -21.404   5.240  1.00  0.00     0.046 A 
HETATM   22  C   UNL     1      44.482 -19.958   3.344  1.00  0.00     0.130 A 
HETATM   23  C   UNL     1      44.416 -22.540   4.431  1.00  0.00     0.030 A 
HETATM   24  N   UNL     1      44.083 -21.317   6.599  1.00  0.00    -0.364 N 
HETATM   25  C   UNL     1      44.598 -22.352   3.059  1.00  0.00     0.005 A 
HETATM   26  C   UNL     1      44.630 -21.073   2.517  1.00  0.00     0.043 A 
HETATM   27  H   UNL     1      44.024 -22.109   7.225  1.00  0.00     0.165 HD
HETATM   28  C   UNL     1      43.999 -20.008   6.976  1.00  0.00     0.106 A 
HETATM   29  F   UNL     1      44.522 -18.743   2.776  1.00  0.00    -0.205 F 
ENDBRANCH   2  19
TORSDOF 3
ENDMDL
MODEL 9
REMARK VINA RESULT:      -8.0      6.090      9.326
REMARK  3 active torsions:
REMARK  status: ('A' for Active; 'I' for Inactive)
REMARK    1  A    between atoms: C_12  and  C_13 
REMARK    2  A    between atoms: C_13  and  N_14 
REMARK       I    between atoms: N_14  and  C_15 
REMARK    3  A    between atoms: C_15  and  C_16 
ROOT
HETATM    1  N   UNL     1      41.473 -11.822   7.437  1.00  0.00    -0.352 N 
HETATM    2  C   UNL     1      41.635 -10.684   8.185  1.00  0.00     0.254 C 
HETATM    3  O   UNL     1      42.092  -9.648   7.707  1.00  0.00    -0.268 OA
HETATM    4  H   UNL     1      41.132 -12.656   7.893  1.00  0.00     0.163 HD
ENDROOT
BRANCH   1   5
HETATM    5  C   UNL     1      41.899 -11.929   6.064  1.00  0.00     0.165 C 
BRANCH   5   6
HETATM    6  C   UNL     1      41.921 -13.360   5.608  1.00  0.00     0.008 C 
HETATM    7  C   UNL     1      40.706 -13.928   4.865  1.00  0.00     0.043 C 
HETATM    8  C   UNL     1      39.626 -12.971   4.402  1.00  0.00     0.071 C 
HETATM    9  N   UNL     1      40.511 -15.180   4.556  1.00  0.00    -0.234 NA
HETATM   10  C   UNL     1      41.524 -16.006   4.945  1.00  0.00     0.154 C 
HETATM   11  C   UNL     1      41.462 -17.342   4.875  1.00  0.00     0.128 C 
HETATM   12  N   UNL     1      42.720 -15.586   5.494  1.00  0.00    -0.239 N 
HETATM   13  C   UNL     1      42.756 -17.802   5.420  1.00  0.00     0.263 C 
HETATM   14  N   UNL     1      43.425 -16.693   5.910  1.00  0.00    -0.258 N 
HETATM   15  O   UNL     1      43.159 -18.951   5.391  1.00  0.00    -0.267 OA
HETATM   16  H   UNL     1      44.435 -16.689   5.933  1.00  0.00     0.191 HD
HETATM   17  C   UNL     1      42.890 -14.270   5.892  1.00  0.00     0.042 C 
HETATM   18  C   UNL     1      44.165 -13.950   6.633  1.00  0.00     0.071 C 
ENDBRANCH   5   6
ENDBRANCH   1   5
BRANCH   2  19
HETATM   19  C   UNL     1      41.239 -10.774   9.596  1.00  0.00     0.062 A 
HETATM   20  C   UNL     1      41.970 -10.576  10.824  1.00  0.00     0.046 A 
HETATM   21  C   UNL     1      41.077 -10.778  11.883  1.00  0.00     0.046 A 
HETATM   22  C   UNL     1      43.298 -10.237  11.172  1.00  0.00     0.130 A 
HETATM   23  C   UNL     1      41.445 -10.659  13.231  1.00  0.00     0.030 A 
HETATM   24  N   UNL     1      39.856 -11.090  11.335  1.00  0.00    -0.364 N 
HETATM   25  C   UNL     1      42.768 -10.323  13.525  1.00  0.00     0.005 A 
HETATM   26  C   UNL     1      43.689 -10.114  12.506  1.00  0.00     0.043 A 
HETATM   27  H   UNL     1      39.018 -11.287  11.866  1.00  0.00     0.165 HD
HETATM   28  C   UNL     1      39.941 -11.085   9.973  1.00  0.00     0.106 A 
HETATM   29  F   UNL     1      44.221 -10.023  10.222  1.00  0.00    -0.205 F 
ENDBRANCH   2  19
TORSDOF 3
ENDMDL
MODEL 10
REMARK VINA RESULT:      -7.9      2.976      7.613
REMARK  3 active torsions:
REMARK  status: ('A' for Active; 'I' for Inactive)
REMARK    1  A    between atoms: C_12  and  C_13 
REMARK    2  A    between atoms: C_13  and  N_14 
REMARK       I    between atoms: N_14  and  C_15 
REMARK    3  A    between atoms: C_15  and  C_16 
ROOT
HETATM    1  N   UNL     1      42.612 -15.761   4.162  1.00  0.00    -0.352 N 
HETATM    2  C   UNL     1      41.284 -15.595   4.458  1.00  0.00     0.254 C 
HETATM    3  O   UNL     1      40.842 -15.762   5.593  1.00  0.00    -0.268 OA
HETATM    4  H   UNL     1      42.912 -15.652   3.204  1.00  0.00     0.163 HD
ENDROOT
BRANCH   1   5
HETATM    5  C   UNL     1      43.582 -16.225   5.123  1.00  0.00     0.165 C 
BRANCH   5   6
HETATM    6  C   UNL     1      43.684 -17.723   5.117  1.00  0.00     0.008 C 
HETATM    7  C   UNL     1      43.740 -18.476   6.451  1.00  0.00     0.043 C 
HETATM    8  C   UNL     1      43.450 -17.712   7.728  1.00  0.00     0.071 C 
HETATM    9  N   UNL     1      43.991 -19.746   6.606  1.00  0.00    -0.234 NA
HETATM   10  C   UNL     1      44.200 -20.412   5.435  1.00  0.00     0.154 C 
HETATM   11  C   UNL     1      44.629 -21.679   5.366  1.00  0.00     0.128 C 
HETATM   12  N   UNL     1      44.038 -19.867   4.176  1.00  0.00    -0.239 N 
HETATM   13  C   UNL     1      44.730 -21.958   3.919  1.00  0.00     0.263 C 
HETATM   14  N   UNL     1      44.492 -20.773   3.243  1.00  0.00    -0.258 N 
HETATM   15  O   UNL     1      44.942 -23.054   3.430  1.00  0.00    -0.267 OA
HETATM   16  H   UNL     1      44.103 -20.799   2.311  1.00  0.00     0.191 HD
HETATM   17  C   UNL     1      43.850 -18.504   4.016  1.00  0.00     0.042 C 
HETATM   18  C   UNL     1      43.854 -17.986   2.599  1.00  0.00     0.071 C 
ENDBRANCH   5   6
ENDBRANCH   1   5
BRANCH   2  19
HETATM   19  C   UNL     1      40.413 -15.212   3.340  1.00  0.00     0.062 A 
HETATM   20  C   UNL     1      39.688 -14.000   3.046  1.00  0.00     0.046 A 
HETATM   21  C   UNL     1      39.031 -14.189   1.823  1.00  0.00     0.046 A 
HETATM   22  C   UNL     1      39.511 -12.745   3.671  1.00  0.00     0.130 A 
HETATM   23  C   UNL     1      38.231 -13.206   1.221  1.00  0.00     0.030 A 
HETATM   24  N   UNL     1      39.333 -15.457   1.388  1.00  0.00    -0.364 N 
HETATM   25  C   UNL     1      38.087 -11.982   1.878  1.00  0.00     0.005 A 
HETATM   26  C   UNL     1      38.720 -11.751   3.093  1.00  0.00     0.043 A 
HETATM   27  H   UNL     1      38.996 -15.867   0.528  1.00  0.00     0.165 HD
HETATM   28  C   UNL     1      40.160 -16.072   2.282  1.00  0.00     0.106 A 
HETATM   29  F   UNL     1      40.104 -12.475   4.844  1.00  0.00    -0.205 F 
ENDBRANCH   2  19
TORSDOF 3
ENDMDL
