MODEL 1
REMARK VINA RESULT:      -8.4      0.000      0.000
REMARK  3 active torsions:
REMARK  status: ('A' for Active; 'I' for Inactive)
REMARK    1  A    between atoms: C_3  and  N_4 
REMARK       I    between atoms: N_4  and  C_5 
REMARK    2  A    between atoms: C_5  and  C_6 
REMARK    3  A    between atoms: C_6  and  C_7 
ROOT
HETATM    1  C   UNL     1      43.449 -16.776   7.067  1.00  0.00     0.286 C 
HETATM    2  N   UNL     1      42.407 -17.302   6.071  1.00  0.00    -0.056 N 
HETATM    3  H   UNL     1      42.742 -18.206   5.686  1.00  0.00     0.278 HD
HETATM    4  H   UNL     1      41.527 -17.501   6.563  1.00  0.00     0.278 HD
HETATM    5  C   UNL     1      42.155 -16.409   4.883  1.00  0.00     0.209 C 
HETATM    6  C   UNL     1      41.881 -14.974   5.371  1.00  0.00     0.115 C 
HETATM    7  N   UNL     1      42.990 -14.483   6.172  1.00  0.00    -0.353 N 
HETATM    8  C   UNL     1      43.743 -15.262   7.004  1.00  0.00     0.249 C 
HETATM    9  O   UNL     1      44.653 -14.754   7.654  1.00  0.00    -0.271 OA
HETATM   10  C   UNL     1      40.988 -16.952   4.067  1.00  0.00     0.035 C 
HETATM   11  C   UNL     1      40.721 -16.045   2.866  1.00  0.00     0.002 C 
HETATM   12  C   UNL     1      40.501 -14.591   3.285  1.00  0.00     0.002 C 
HETATM   13  C   UNL     1      41.629 -14.059   4.169  1.00  0.00     0.027 C 
HETATM   14  H   UNL     1      43.163 -13.481   6.244  1.00  0.00     0.163 HD
ENDROOT
BRANCH   1  15
HETATM   15  C   UNL     1      44.761 -17.567   7.000  1.00  0.00     0.146 C 
BRANCH  15  16
HETATM   16  C   UNL     1      44.488 -18.895   6.352  1.00  0.00     0.224 C 
HETATM   17  N   UNL     1      44.986 -19.023   5.075  1.00  0.00    -0.327 N 
HETATM   18  H   UNL     1      45.374 -18.190   4.637  1.00  0.00     0.169 HD
HETATM   19  O   UNL     1      43.698 -19.644   6.927  1.00  0.00    -0.273 OA
BRANCH  17  20
HETATM   20  C   UNL     1      44.699 -20.081   4.178  1.00  0.00     0.040 A 
HETATM   21  C   UNL     1      44.219 -19.933   2.865  1.00  0.00    -0.035 A 
HETATM   22  C   UNL     1      43.765 -18.634   2.258  1.00  0.00     0.050 C 
HETATM   23  C   UNL     1      44.078 -21.082   2.061  1.00  0.00     0.009 A 
HETATM   24  C   UNL     1      44.342 -22.355   2.562  1.00  0.00     0.001 A 
HETATM   25  C   UNL     1      44.740 -22.504   3.884  1.00  0.00     0.002 A 
HETATM   26  C   UNL     1      44.908 -21.375   4.688  1.00  0.00     0.030 A 
ENDBRANCH  17  20
ENDBRANCH  15  16
ENDBRANCH   1  15
TORSDOF 3
ENDMDL
MODEL 2
REMARK VINA RESULT:      -8.3      2.764      4.375
REMARK  3 active torsions:
REMARK  status: ('A' for Active; 'I' for Inactive)
REMARK    1  A    between atoms: C_3  and  N_4 
REMARK       I    between atoms: N_4  and  C_5 
REMARK    2  A    between atoms: C_5  and  C_6 
REMARK    3  A    between atoms: C_6  and  C_7 
ROOT
HETATM    1  C   UNL     1      41.540 -15.729   1.293  1.00  0.00     0.286 C 
HETATM    2  N   UNL     1      42.573 -14.762   1.885  1.00  0.00    -0.056 N 
HETATM    3  H   UNL     1      43.481 -14.909   1.403  1.00  0.00     0.278 HD
HETATM    4  H   UNL     1      42.292 -13.792   1.692  1.00  0.00     0.278 HD
HETATM    5  C   UNL     1      42.847 -14.947   3.357  1.00  0.00     0.209 C 
HETATM    6  C   UNL     1      41.513 -14.980   4.125  1.00  0.00     0.115 C 
HETATM    7  N   UNL     1      40.651 -16.032   3.614  1.00  0.00    -0.353 N 
HETATM    8  C   UNL     1      40.593 -16.412   2.303  1.00  0.00     0.249 C 
HETATM    9  O   UNL     1      39.822 -17.304   1.962  1.00  0.00    -0.271 OA
HETATM   10  C   UNL     1      43.752 -13.828   3.858  1.00  0.00     0.035 C 
HETATM   11  C   UNL     1      44.024 -14.004   5.352  1.00  0.00     0.002 C 
HETATM   12  C   UNL     1      42.732 -14.104   6.162  1.00  0.00     0.002 C 
HETATM   13  C   UNL     1      41.782 -15.173   5.620  1.00  0.00     0.027 C 
HETATM   14  H   UNL     1      39.939 -16.446   4.215  1.00  0.00     0.163 HD
ENDROOT
BRANCH   1  15
HETATM   15  C   UNL     1      42.189 -16.783   0.388  1.00  0.00     0.146 C 
BRANCH  15  16
HETATM   16  C   UNL     1      43.230 -17.521   1.182  1.00  0.00     0.224 C 
HETATM   17  N   UNL     1      42.733 -18.505   2.004  1.00  0.00    -0.327 N 
HETATM   18  H   UNL     1      41.722 -18.569   2.104  1.00  0.00     0.169 HD
HETATM   19  O   UNL     1      44.371 -17.055   1.173  1.00  0.00    -0.273 OA
BRANCH  17  20
HETATM   20  C   UNL     1      43.468 -19.204   2.995  1.00  0.00     0.040 A 
HETATM   21  C   UNL     1      44.030 -20.484   2.845  1.00  0.00    -0.035 A 
HETATM   22  C   UNL     1      43.796 -21.393   1.670  1.00  0.00     0.050 C 
HETATM   23  C   UNL     1      44.821 -21.003   3.890  1.00  0.00     0.009 A 
HETATM   24  C   UNL     1      44.996 -20.304   5.083  1.00  0.00     0.001 A 
HETATM   25  C   UNL     1      44.374 -19.076   5.257  1.00  0.00     0.002 A 
HETATM   26  C   UNL     1      43.607 -18.534   4.224  1.00  0.00     0.030 A 
ENDBRANCH  17  20
ENDBRANCH  15  16
ENDBRANCH   1  15
TORSDOF 3
ENDMDL
MODEL 3
REMARK VINA RESULT:      -8.2      1.887      2.353
REMARK  3 active torsions:
REMARK  status: ('A' for Active; 'I' for Inactive)
REMARK    1  A    between atoms: C_3  and  N_4 
REMARK       I    between atoms: N_4  and  C_5 
REMARK    2  A    between atoms: C_5  and  C_6 
REMARK    3  A    between atoms: C_6  and  C_7 
ROOT
HETATM    1  C   UNL     1      42.151 -15.869   4.780  1.00  0.00     0.286 C 
HETATM    2  N   UNL     1      41.651 -16.674   3.573  1.00  0.00    -0.056 N 
HETATM    3  H   UNL     1      42.142 -17.588   3.557  1.00  0.00     0.278 HD
HETATM    4  H   UNL     1      40.650 -16.880   3.686  1.00  0.00     0.278 HD
HETATM    5  C   UNL     1      41.909 -16.035   2.232  1.00  0.00     0.209 C 
HETATM    6  C   UNL     1      41.416 -14.576   2.256  1.00  0.00     0.115 C 
HETATM    7  N   UNL     1      42.061 -13.833   3.326  1.00  0.00    -0.353 N 
HETATM    8  C   UNL     1      42.405 -14.366   4.535  1.00  0.00     0.249 C 
HETATM    9  O   UNL     1      42.935 -13.655   5.384  1.00  0.00    -0.271 OA
HETATM   10  C   UNL     1      41.219 -16.839   1.136  1.00  0.00     0.035 C 
HETATM   11  C   UNL     1      41.469 -16.191  -0.225  1.00  0.00     0.002 C 
HETATM   12  C   UNL     1      41.054 -14.720  -0.244  1.00  0.00     0.002 C 
HETATM   13  C   UNL     1      41.680 -13.919   0.899  1.00  0.00     0.027 C 
HETATM   14  H   UNL     1      42.161 -12.822   3.255  1.00  0.00     0.163 HD
ENDROOT
BRANCH   1  15
HETATM   15  C   UNL     1      43.386 -16.509   5.428  1.00  0.00     0.146 C 
BRANCH  15  16
HETATM   16  C   UNL     1      43.281 -18.002   5.287  1.00  0.00     0.224 C 
HETATM   17  N   UNL     1      44.335 -18.590   4.627  1.00  0.00    -0.327 N 
HETATM   18  H   UNL     1      45.017 -17.975   4.187  1.00  0.00     0.169 HD
HETATM   19  O   UNL     1      42.203 -18.516   5.587  1.00  0.00    -0.273 OA
BRANCH  17  20
HETATM   20  C   UNL     1      44.389 -19.937   4.188  1.00  0.00     0.040 A 
HETATM   21  C   UNL     1      44.129 -20.381   2.880  1.00  0.00    -0.035 A 
HETATM   22  C   UNL     1      43.582 -19.522   1.773  1.00  0.00     0.050 C 
HETATM   23  C   UNL     1      44.323 -21.744   2.576  1.00  0.00     0.009 A 
HETATM   24  C   UNL     1      44.699 -22.659   3.558  1.00  0.00     0.001 A 
HETATM   25  C   UNL     1      44.877 -22.230   4.866  1.00  0.00     0.002 A 
HETATM   26  C   UNL     1      44.714 -20.880   5.180  1.00  0.00     0.030 A 
ENDBRANCH  17  20
ENDBRANCH  15  16
ENDBRANCH   1  15
TORSDOF 3
ENDMDL
MODEL 4
REMARK VINA RESULT:      -8.1      1.600      6.149
REMARK  3 active torsions:
REMARK  status: ('A' for Active; 'I' for Inactive)
REMARK    1  A    between atoms: C_3  and  N_4 
REMARK       I    between atoms: N_4  and  C_5 
REMARK    2  A    between atoms: C_5  and  C_6 
REMARK    3  A    between atoms: C_6  and  C_7 
ROOT
HETATM    1  C   UNL     1      43.850 -17.982   5.516  1.00  0.00     0.286 C 
HETATM    2  N   UNL     1      43.859 -18.232   4.001  1.00  0.00    -0.056 N 
HETATM    3  H   UNL     1      43.068 -17.711   3.574  1.00  0.00     0.278 HD
HETATM    4  H   UNL     1      44.720 -17.847   3.592  1.00  0.00     0.278 HD
HETATM    5  C   UNL     1      43.680 -19.673   3.593  1.00  0.00     0.209 C 
HETATM    6  C   UNL     1      44.673 -20.553   4.376  1.00  0.00     0.115 C 
HETATM    7  N   UNL     1      44.491 -20.385   5.808  1.00  0.00    -0.353 N 
HETATM    8  C   UNL     1      44.136 -19.210   6.407  1.00  0.00     0.249 C 
HETATM    9  O   UNL     1      44.019 -19.161   7.628  1.00  0.00    -0.271 OA
HETATM   10  C   UNL     1      43.878 -19.811   2.089  1.00  0.00     0.035 C 
HETATM   11  C   UNL     1      43.709 -21.271   1.671  1.00  0.00     0.002 C 
HETATM   12  C   UNL     1      44.629 -22.203   2.459  1.00  0.00     0.002 C 
HETATM   13  C   UNL     1      44.495 -22.019   3.971  1.00  0.00     0.027 C 
HETATM   14  H   UNL     1      44.761 -21.131   6.447  1.00  0.00     0.163 HD
ENDROOT
BRANCH   1  15
HETATM   15  C   UNL     1      42.563 -17.289   5.978  1.00  0.00     0.146 C 
BRANCH  15  16
HETATM   16  C   UNL     1      42.226 -16.200   4.998  1.00  0.00     0.224 C 
HETATM   17  N   UNL     1      40.973 -16.299   4.440  1.00  0.00    -0.327 N 
HETATM   18  H   UNL     1      40.439 -17.144   4.630  1.00  0.00     0.169 HD
HETATM   19  O   UNL     1      43.147 -15.461   4.648  1.00  0.00    -0.273 OA
BRANCH  17  20
HETATM   20  C   UNL     1      40.488 -15.528   3.353  1.00  0.00     0.040 A 
HETATM   21  C   UNL     1      40.513 -15.915   2.002  1.00  0.00    -0.035 A 
HETATM   22  C   UNL     1      41.216 -17.134   1.469  1.00  0.00     0.050 C 
HETATM   23  C   UNL     1      39.900 -15.080   1.046  1.00  0.00     0.009 A 
HETATM   24  C   UNL     1      39.333 -13.859   1.408  1.00  0.00     0.001 A 
HETATM   25  C   UNL     1      39.381 -13.444   2.732  1.00  0.00     0.002 A 
HETATM   26  C   UNL     1      39.963 -14.269   3.696  1.00  0.00     0.030 A 
ENDBRANCH  17  20
ENDBRANCH  15  16
ENDBRANCH   1  15
TORSDOF 3
ENDMDL
MODEL 5
REMARK VINA RESULT:      -7.8      1.548      6.311
REMARK  3 active torsions:
REMARK  status: ('A' for Active; 'I' for Inactive)
REMARK    1  A    between atoms: C_3  and  N_4 
REMARK       I    between atoms: N_4  and  C_5 
REMARK    2  A    between atoms: C_5  and  C_6 
REMARK    3  A    between atoms: C_6  and  C_7 
ROOT
HETATM    1  C   UNL     1      43.829 -17.721   5.509  1.00  0.00     0.286 C 
HETATM    2  N   UNL     1      43.736 -17.974   3.998  1.00  0.00    -0.056 N 
HETATM    3  H   UNL     1      42.890 -17.495   3.633  1.00  0.00     0.278 HD
HETATM    4  H   UNL     1      44.543 -17.547   3.525  1.00  0.00     0.278 HD
HETATM    5  C   UNL     1      43.600 -19.423   3.604  1.00  0.00     0.209 C 
HETATM    6  C   UNL     1      44.693 -20.249   4.308  1.00  0.00     0.115 C 
HETATM    7  N   UNL     1      44.612 -20.087   5.750  1.00  0.00    -0.353 N 
HETATM    8  C   UNL     1      44.244 -18.929   6.375  1.00  0.00     0.249 C 
HETATM    9  O   UNL     1      44.218 -18.883   7.602  1.00  0.00    -0.271 OA
HETATM   10  C   UNL     1      43.690 -19.555   2.088  1.00  0.00     0.035 C 
HETATM   11  C   UNL     1      43.564 -21.024   1.683  1.00  0.00     0.002 C 
HETATM   12  C   UNL     1      44.587 -21.906   2.398  1.00  0.00     0.002 C 
HETATM   13  C   UNL     1      44.559 -21.724   3.916  1.00  0.00     0.027 C 
HETATM   14  H   UNL     1      44.967 -20.816   6.366  1.00  0.00     0.163 HD
ENDROOT
BRANCH   1  15
HETATM   15  C   UNL     1      42.547 -17.092   6.068  1.00  0.00     0.146 C 
BRANCH  15  16
HETATM   16  C   UNL     1      42.155 -15.938   5.188  1.00  0.00     0.224 C 
HETATM   17  N   UNL     1      40.875 -16.007   4.690  1.00  0.00    -0.327 N 
HETATM   18  H   UNL     1      40.355 -16.868   4.847  1.00  0.00     0.169 HD
HETATM   19  O   UNL     1      43.054 -15.169   4.845  1.00  0.00    -0.273 OA
BRANCH  17  20
HETATM   20  C   UNL     1      40.331 -15.165   3.688  1.00  0.00     0.040 A 
HETATM   21  C   UNL     1      39.874 -13.850   3.885  1.00  0.00    -0.035 A 
HETATM   22  C   UNL     1      39.726 -13.183   5.225  1.00  0.00     0.050 C 
HETATM   23  C   UNL     1      39.453 -13.104   2.765  1.00  0.00     0.009 A 
HETATM   24  C   UNL     1      39.421 -13.666   1.490  1.00  0.00     0.001 A 
HETATM   25  C   UNL     1      39.797 -14.990   1.313  1.00  0.00     0.002 A 
HETATM   26  C   UNL     1      40.240 -15.736   2.406  1.00  0.00     0.030 A 
ENDBRANCH  17  20
ENDBRANCH  15  16
ENDBRANCH   1  15
TORSDOF 3
ENDMDL
MODEL 6
REMARK VINA RESULT:      -7.7      2.648      6.439
REMARK  3 active torsions:
REMARK  status: ('A' for Active; 'I' for Inactive)
REMARK    1  A    between atoms: C_3  and  N_4 
REMARK       I    between atoms: N_4  and  C_5 
REMARK    2  A    between atoms: C_5  and  C_6 
REMARK    3  A    between atoms: C_6  and  C_7 
ROOT
HETATM    1  C   UNL     1      42.424 -16.424   4.910  1.00  0.00     0.286 C 
HETATM    2  N   UNL     1      42.846 -16.993   3.548  1.00  0.00    -0.056 N 
HETATM    3  H   UNL     1      42.070 -16.848   2.873  1.00  0.00     0.278 HD
HETATM    4  H   UNL     1      43.651 -16.466   3.188  1.00  0.00     0.278 HD
HETATM    5  C   UNL     1      43.137 -18.472   3.540  1.00  0.00     0.209 C 
HETATM    6  C   UNL     1      44.111 -18.808   4.685  1.00  0.00     0.115 C 
HETATM    7  N   UNL     1      43.566 -18.387   5.964  1.00  0.00    -0.353 N 
HETATM    8  C   UNL     1      42.797 -17.272   6.144  1.00  0.00     0.249 C 
HETATM    9  O   UNL     1      42.392 -16.988   7.268  1.00  0.00    -0.271 OA
HETATM   10  C   UNL     1      43.706 -18.878   2.186  1.00  0.00     0.035 C 
HETATM   11  C   UNL     1      44.013 -20.376   2.175  1.00  0.00     0.002 C 
HETATM   12  C   UNL     1      44.931 -20.781   3.328  1.00  0.00     0.002 C 
HETATM   13  C   UNL     1      44.408 -20.310   4.686  1.00  0.00     0.027 C 
HETATM   14  H   UNL     1      43.861 -18.851   6.822  1.00  0.00     0.163 HD
ENDROOT
BRANCH   1  15
HETATM   15  C   UNL     1      40.932 -16.070   4.949  1.00  0.00     0.146 C 
BRANCH  15  16
HETATM   16  C   UNL     1      40.636 -15.114   3.828  1.00  0.00     0.224 C 
HETATM   17  N   UNL     1      39.810 -15.617   2.849  1.00  0.00    -0.327 N 
HETATM   18  H   UNL     1      39.577 -16.607   2.894  1.00  0.00     0.169 HD
HETATM   19  O   UNL     1      41.298 -14.077   3.791  1.00  0.00    -0.273 OA
BRANCH  17  20
HETATM   20  C   UNL     1      39.540 -15.005   1.600  1.00  0.00     0.040 A 
HETATM   21  C   UNL     1      40.421 -14.956   0.506  1.00  0.00    -0.035 A 
HETATM   22  C   UNL     1      41.860 -15.393   0.540  1.00  0.00     0.050 C 
HETATM   23  C   UNL     1      39.967 -14.397  -0.706  1.00  0.00     0.009 A 
HETATM   24  C   UNL     1      38.694 -13.838  -0.815  1.00  0.00     0.001 A 
HETATM   25  C   UNL     1      37.857 -13.817   0.292  1.00  0.00     0.002 A 
HETATM   26  C   UNL     1      38.280 -14.388   1.493  1.00  0.00     0.030 A 
ENDBRANCH  17  20
ENDBRANCH  15  16
ENDBRANCH   1  15
TORSDOF 3
ENDMDL
MODEL 7
REMARK VINA RESULT:      -7.7      4.051      5.214
REMARK  3 active torsions:
REMARK  status: ('A' for Active; 'I' for Inactive)
REMARK    1  A    between atoms: C_3  and  N_4 
REMARK       I    between atoms: N_4  and  C_5 
REMARK    2  A    between atoms: C_5  and  C_6 
REMARK    3  A    between atoms: C_6  and  C_7 
ROOT
HETATM    1  C   UNL     1      40.784 -15.804   1.382  1.00  0.00     0.286 C 
HETATM    2  N   UNL     1      41.045 -16.143  -0.092  1.00  0.00    -0.056 N 
HETATM    3  H   UNL     1      42.024 -16.477  -0.187  1.00  0.00     0.278 HD
HETATM    4  H   UNL     1      40.440 -16.922  -0.381  1.00  0.00     0.278 HD
HETATM    5  C   UNL     1      40.904 -14.984  -1.046  1.00  0.00     0.209 C 
HETATM    6  C   UNL     1      39.557 -14.279  -0.798  1.00  0.00     0.115 C 
HETATM    7  N   UNL     1      39.453 -13.840   0.583  1.00  0.00    -0.353 N 
HETATM    8  C   UNL     1      39.976 -14.516   1.648  1.00  0.00     0.249 C 
HETATM    9  O   UNL     1      39.826 -14.073   2.784  1.00  0.00    -0.271 OA
HETATM   10  C   UNL     1      41.017 -15.481  -2.482  1.00  0.00     0.035 C 
HETATM   11  C   UNL     1      40.864 -14.311  -3.454  1.00  0.00     0.002 C 
HETATM   12  C   UNL     1      39.569 -13.534  -3.216  1.00  0.00     0.002 C 
HETATM   13  C   UNL     1      39.407 -13.097  -1.760  1.00  0.00     0.027 C 
HETATM   14  H   UNL     1      38.850 -13.054   0.825  1.00  0.00     0.163 HD
ENDROOT
BRANCH   1  15
HETATM   15  C   UNL     1      42.076 -15.793   2.208  1.00  0.00     0.146 C 
BRANCH  15  16
HETATM   16  C   UNL     1      42.270 -17.155   2.813  1.00  0.00     0.224 C 
HETATM   17  N   UNL     1      43.516 -17.700   2.608  1.00  0.00    -0.327 N 
HETATM   18  H   UNL     1      44.145 -17.211   1.975  1.00  0.00     0.169 HD
HETATM   19  O   UNL     1      41.266 -17.720   3.247  1.00  0.00    -0.273 OA
BRANCH  17  20
HETATM   20  C   UNL     1      43.892 -19.037   2.894  1.00  0.00     0.040 A 
HETATM   21  C   UNL     1      44.411 -19.496   4.117  1.00  0.00    -0.035 A 
HETATM   22  C   UNL     1      44.818 -18.612   5.264  1.00  0.00     0.050 C 
HETATM   23  C   UNL     1      44.642 -20.877   4.280  1.00  0.00     0.009 A 
HETATM   24  C   UNL     1      44.427 -21.776   3.236  1.00  0.00     0.001 A 
HETATM   25  C   UNL     1      43.989 -21.307   2.005  1.00  0.00     0.002 A 
HETATM   26  C   UNL     1      43.732 -19.946   1.833  1.00  0.00     0.030 A 
ENDBRANCH  17  20
ENDBRANCH  15  16
ENDBRANCH   1  15
TORSDOF 3
ENDMDL
MODEL 8
REMARK VINA RESULT:      -7.6      1.782      2.385
REMARK  3 active torsions:
REMARK  status: ('A' for Active; 'I' for Inactive)
REMARK    1  A    between atoms: C_3  and  N_4 
REMARK       I    between atoms: N_4  and  C_5 
REMARK    2  A    between atoms: C_5  and  C_6 
REMARK    3  A    between atoms: C_6  and  C_7 
ROOT
HETATM    1  C   UNL     1      42.452 -15.605   5.430  1.00  0.00     0.286 C 
HETATM    2  N   UNL     1      41.151 -15.206   4.719  1.00  0.00    -0.056 N 
HETATM    3  H   UNL     1      41.143 -15.639   3.775  1.00  0.00     0.278 HD
HETATM    4  H   UNL     1      40.346 -15.594   5.227  1.00  0.00     0.278 HD
HETATM    5  C   UNL     1      40.973 -13.724   4.503  1.00  0.00     0.209 C 
HETATM    6  C   UNL     1      41.211 -12.981   5.831  1.00  0.00     0.115 C 
HETATM    7  N   UNL     1      42.531 -13.281   6.359  1.00  0.00    -0.353 N 
HETATM    8  C   UNL     1      43.155 -14.489   6.232  1.00  0.00     0.249 C 
HETATM    9  O   UNL     1      44.268 -14.654   6.725  1.00  0.00    -0.271 OA
HETATM   10  C   UNL     1      39.580 -13.448   3.950  1.00  0.00     0.035 C 
HETATM   11  C   UNL     1      39.390 -11.946   3.738  1.00  0.00     0.002 C 
HETATM   12  C   UNL     1      39.672 -11.148   5.011  1.00  0.00     0.002 C 
HETATM   13  C   UNL     1      41.037 -11.475   5.618  1.00  0.00     0.027 C 
HETATM   14  H   UNL     1      42.995 -12.618   6.978  1.00  0.00     0.163 HD
ENDROOT
BRANCH   1  15
HETATM   15  C   UNL     1      43.450 -16.271   4.475  1.00  0.00     0.146 C 
BRANCH  15  16
HETATM   16  C   UNL     1      43.232 -17.758   4.515  1.00  0.00     0.224 C 
HETATM   17  N   UNL     1      44.365 -18.509   4.298  1.00  0.00    -0.327 N 
HETATM   18  H   UNL     1      45.207 -18.016   4.008  1.00  0.00     0.169 HD
HETATM   19  O   UNL     1      42.065 -18.150   4.538  1.00  0.00    -0.273 OA
BRANCH  17  20
HETATM   20  C   UNL     1      44.400 -19.910   4.086  1.00  0.00     0.040 A 
HETATM   21  C   UNL     1      44.147 -20.558   2.865  1.00  0.00    -0.035 A 
HETATM   22  C   UNL     1      43.627 -19.884   1.625  1.00  0.00     0.050 C 
HETATM   23  C   UNL     1      44.321 -21.956   2.791  1.00  0.00     0.009 A 
HETATM   24  C   UNL     1      44.671 -22.703   3.914  1.00  0.00     0.001 A 
HETATM   25  C   UNL     1      44.842 -22.068   5.136  1.00  0.00     0.002 A 
HETATM   26  C   UNL     1      44.698 -20.682   5.223  1.00  0.00     0.030 A 
ENDBRANCH  17  20
ENDBRANCH  15  16
ENDBRANCH   1  15
TORSDOF 3
ENDMDL
MODEL 9
REMARK VINA RESULT:      -7.6      3.467      6.871
REMARK  3 active torsions:
REMARK  status: ('A' for Active; 'I' for Inactive)
REMARK    1  A    between atoms: C_3  and  N_4 
REMARK       I    between atoms: N_4  and  C_5 
REMARK    2  A    between atoms: C_5  and  C_6 
REMARK    3  A    between atoms: C_6  and  C_7 
ROOT
HETATM    1  C   UNL     1      42.329 -15.835   3.715  1.00  0.00     0.286 C 
HETATM    2  N   UNL     1      42.777 -16.776   2.588  1.00  0.00    -0.056 N 
HETATM    3  H   UNL     1      42.024 -16.821   1.874  1.00  0.00     0.278 HD
HETATM    4  H   UNL     1      43.604 -16.385   2.119  1.00  0.00     0.278 HD
HETATM    5  C   UNL     1      43.037 -18.199   3.014  1.00  0.00     0.209 C 
HETATM    6  C   UNL     1      43.971 -18.204   4.239  1.00  0.00     0.115 C 
HETATM    7  N   UNL     1      43.398 -17.426   5.325  1.00  0.00    -0.353 N 
HETATM    8  C   UNL     1      42.648 -16.298   5.152  1.00  0.00     0.249 C 
HETATM    9  O   UNL     1      42.217 -15.698   6.133  1.00  0.00    -0.271 OA
HETATM   10  C   UNL     1      43.636 -18.983   1.852  1.00  0.00     0.035 C 
HETATM   11  C   UNL     1      43.911 -20.424   2.281  1.00  0.00     0.002 C 
HETATM   12  C   UNL     1      44.786 -20.493   3.532  1.00  0.00     0.002 C 
HETATM   13  C   UNL     1      44.235 -19.646   4.680  1.00  0.00     0.027 C 
HETATM   14  H   UNL     1      43.658 -17.629   6.289  1.00  0.00     0.163 HD
ENDROOT
BRANCH   1  15
HETATM   15  C   UNL     1      40.844 -15.466   3.601  1.00  0.00     0.146 C 
BRANCH  15  16
HETATM   16  C   UNL     1      40.406 -15.672   2.178  1.00  0.00     0.224 C 
HETATM   17  N   UNL     1      40.407 -14.532   1.408  1.00  0.00    -0.327 N 
HETATM   18  H   UNL     1      40.575 -13.646   1.880  1.00  0.00     0.169 HD
HETATM   19  O   UNL     1      39.913 -16.766   1.900  1.00  0.00    -0.273 OA
BRANCH  17  20
HETATM   20  C   UNL     1      39.855 -14.412   0.108  1.00  0.00     0.040 A 
HETATM   21  C   UNL     1      38.539 -14.014  -0.187  1.00  0.00    -0.035 A 
HETATM   22  C   UNL     1      37.451 -13.819   0.833  1.00  0.00     0.050 C 
HETATM   23  C   UNL     1      38.169 -13.845  -1.537  1.00  0.00     0.009 A 
HETATM   24  C   UNL     1      39.058 -14.127  -2.573  1.00  0.00     0.001 A 
HETATM   25  C   UNL     1      40.330 -14.596  -2.278  1.00  0.00     0.002 A 
HETATM   26  C   UNL     1      40.723 -14.746  -0.947  1.00  0.00     0.030 A 
ENDBRANCH  17  20
ENDBRANCH  15  16
ENDBRANCH   1  15
TORSDOF 3
ENDMDL
MODEL 10
REMARK VINA RESULT:      -7.4      2.905      6.415
REMARK  3 active torsions:
REMARK  status: ('A' for Active; 'I' for Inactive)
REMARK    1  A    between atoms: C_3  and  N_4 
REMARK       I    between atoms: N_4  and  C_5 
REMARK    2  A    between atoms: C_5  and  C_6 
REMARK    3  A    between atoms: C_6  and  C_7 
ROOT
HETATM    1  C   UNL     1      43.184 -19.050   2.866  1.00  0.00     0.286 C 
HETATM    2  N   UNL     1      42.435 -18.117   3.828  1.00  0.00    -0.056 N 
HETATM    3  H   UNL     1      42.249 -17.218   3.341  1.00  0.00     0.278 HD
HETATM    4  H   UNL     1      41.519 -18.521   4.060  1.00  0.00     0.278 HD
HETATM    5  C   UNL     1      43.188 -17.763   5.086  1.00  0.00     0.209 C 
HETATM    6  C   UNL     1      43.711 -19.051   5.748  1.00  0.00     0.115 C 
HETATM    7  N   UNL     1      44.549 -19.800   4.827  1.00  0.00    -0.353 N 
HETATM    8  C   UNL     1      44.344 -19.865   3.478  1.00  0.00     0.249 C 
HETATM    9  O   UNL     1      45.098 -20.536   2.779  1.00  0.00    -0.271 OA
HETATM   10  C   UNL     1      42.281 -16.980   6.027  1.00  0.00     0.035 C 
HETATM   11  C   UNL     1      43.036 -16.628   7.309  1.00  0.00     0.002 C 
HETATM   12  C   UNL     1      43.631 -17.865   7.981  1.00  0.00     0.002 C 
HETATM   13  C   UNL     1      44.482 -18.700   7.024  1.00  0.00     0.027 C 
HETATM   14  H   UNL     1      45.264 -20.432   5.185  1.00  0.00     0.163 HD
ENDROOT
BRANCH   1  15
HETATM   15  C   UNL     1      43.667 -18.315   1.609  1.00  0.00     0.146 C 
BRANCH  15  16
HETATM   16  C   UNL     1      42.923 -17.014   1.499  1.00  0.00     0.224 C 
HETATM   17  N   UNL     1      41.842 -17.042   0.649  1.00  0.00    -0.327 N 
HETATM   18  H   UNL     1      41.712 -17.877   0.081  1.00  0.00     0.169 HD
HETATM   19  O   UNL     1      43.452 -16.025   2.008  1.00  0.00    -0.273 OA
BRANCH  17  20
HETATM   20  C   UNL     1      41.101 -15.914   0.215  1.00  0.00     0.040 A 
HETATM   21  C   UNL     1      40.245 -15.140   1.019  1.00  0.00    -0.035 A 
HETATM   22  C   UNL     1      39.840 -15.487   2.425  1.00  0.00     0.050 C 
HETATM   23  C   UNL     1      39.656 -13.985   0.465  1.00  0.00     0.009 A 
HETATM   24  C   UNL     1      39.855 -13.640  -0.871  1.00  0.00     0.001 A 
HETATM   25  C   UNL     1      40.637 -14.450  -1.681  1.00  0.00     0.002 A 
HETATM   26  C   UNL     1      41.248 -15.584  -1.144  1.00  0.00     0.030 A 
ENDBRANCH  17  20
ENDBRANCH  15  16
ENDBRANCH   1  15
TORSDOF 3
ENDMDL
