MODEL 1
REMARK VINA RESULT:     -11.0      0.000      0.000
REMARK  6 active torsions:
REMARK  status: ('A' for Active; 'I' for Inactive)
REMARK    1  A    between atoms: C_8  and  C_9 
REMARK    2  A    between atoms: C_9  and  C_10 
REMARK    3  A    between atoms: C_10  and  N_11 
REMARK       I    between atoms: N_11  and  C_12 
REMARK    4  A    between atoms: C_12  and  C_13 
REMARK    5  A    between atoms: C_18  and  C_19 
REMARK    6  A    between atoms: C_29  and  C_30 
ROOT
HETATM    1  C   UNL     1      44.453 -14.072   6.723  1.00  0.00     0.148 A 
HETATM    2  N   UNL     1      44.238 -13.628   5.461  1.00  0.00    -0.165 NA
HETATM    3  N   UNL     1      43.622 -14.666   4.870  1.00  0.00    -0.240 N 
HETATM    4  C   UNL     1      43.488 -15.766   5.670  1.00  0.00     0.123 A 
HETATM    5  N   UNL     1      42.991 -16.924   5.192  1.00  0.00    -0.366 N 
HETATM    6  C   UNL     1      42.803 -17.166   3.763  1.00  0.00     0.118 C 
HETATM    7  C   UNL     1      43.505 -16.090   2.904  1.00  0.00     0.066 C 
HETATM    8  C   UNL     1      43.289 -14.672   3.459  1.00  0.00     0.221 C 
HETATM    9  C   UNL     1      43.967 -15.397   6.896  1.00  0.00     0.088 A 
HETATM   10  H   UNL     1      42.899 -17.742   5.793  1.00  0.00     0.161 HD
ENDROOT
BRANCH   1  11
HETATM   11  C   UNL     1      45.143 -13.265   7.741  1.00  0.00     0.272 C 
HETATM   12  N   UNL     1      44.345 -12.915   8.807  1.00  0.00    -0.355 N 
HETATM   13  H   UNL     1      43.462 -13.418   8.865  1.00  0.00     0.162 HD
HETATM   14  O   UNL     1      46.321 -12.936   7.641  1.00  0.00    -0.266 OA
BRANCH  12  15
HETATM   15  C   UNL     1      44.889 -12.244   9.966  1.00  0.00     0.127 C 
BRANCH  15  16
HETATM   16  C   UNL     1      44.642 -10.736   9.961  1.00  0.00     0.060 C 
BRANCH  16  17
HETATM   17  C   UNL     1      43.284 -10.370  10.478  1.00  0.00    -0.029 A 
HETATM   18  C   UNL     1      42.946  -9.956  11.807  1.00  0.00    -0.002 A 
HETATM   19  C   UNL     1      43.680  -9.769  12.996  1.00  0.00     0.014 A 
HETATM   20  C   UNL     1      41.575  -9.699  11.827  1.00  0.00     0.042 A 
HETATM   21  C   UNL     1      43.022  -9.335  14.152  1.00  0.00     0.001 A 
HETATM   22  C   UNL     1      41.651  -9.085  14.138  1.00  0.00     0.002 A 
HETATM   23  C   UNL     1      40.900  -9.264  12.973  1.00  0.00     0.030 A 
HETATM   24  N   UNL     1      41.096  -9.952  10.563  1.00  0.00    -0.365 N 
HETATM   25  H   UNL     1      40.131  -9.847  10.285  1.00  0.00     0.165 HD
HETATM   26  C   UNL     1      42.114 -10.360   9.745  1.00  0.00     0.096 A 
ENDBRANCH  16  17
ENDBRANCH  15  16
ENDBRANCH  12  15
ENDBRANCH   1  11
BRANCH   8  27
HETATM   27  C   UNL     1      41.879 -14.171   3.252  1.00  0.00     0.409 C 
HETATM   28  F   UNL     1      41.097 -14.356   4.337  1.00  0.00    -0.169 F 
HETATM   29  F   UNL     1      41.903 -12.832   3.019  1.00  0.00    -0.169 F 
HETATM   30  F   UNL     1      41.257 -14.731   2.194  1.00  0.00    -0.169 F 
ENDBRANCH   8  27
BRANCH   6  31
HETATM   31  C   UNL     1      43.314 -18.562   3.447  1.00  0.00    -0.033 A 
HETATM   32  C   UNL     1      43.886 -19.363   4.456  1.00  0.00     0.049 A 
HETATM   33  C   UNL     1      44.300 -20.636   4.131  1.00  0.00     0.105 A 
HETATM   34  C   UNL     1      44.165 -21.138   2.860  1.00  0.00     0.105 A 
HETATM   35  O   UNL     1      44.862 -21.530   4.987  1.00  0.00    -0.323 OA
HETATM   36  O   UNL     1      44.624 -22.413   2.755  1.00  0.00    -0.323 OA
HETATM   37  C   UNL     1      43.608 -20.393   1.843  1.00  0.00     0.040 A 
HETATM   38  C   UNL     1      45.057 -22.659   4.109  1.00  0.00     0.352 A 
HETATM   39  C   UNL     1      43.180 -19.094   2.142  1.00  0.00     0.012 A 
ENDBRANCH   6  31
TORSDOF 6
ENDMDL
MODEL 2
REMARK VINA RESULT:     -10.6      2.667      2.966
REMARK  6 active torsions:
REMARK  status: ('A' for Active; 'I' for Inactive)
REMARK    1  A    between atoms: C_8  and  C_9 
REMARK    2  A    between atoms: C_9  and  C_10 
REMARK    3  A    between atoms: C_10  and  N_11 
REMARK       I    between atoms: N_11  and  C_12 
REMARK    4  A    between atoms: C_12  and  C_13 
REMARK    5  A    between atoms: C_18  and  C_19 
REMARK    6  A    between atoms: C_29  and  C_30 
ROOT
HETATM    1  C   UNL     1      40.206 -13.123   5.627  1.00  0.00     0.148 A 
HETATM    2  N   UNL     1      40.262 -12.850   4.302  1.00  0.00    -0.165 NA
HETATM    3  N   UNL     1      40.349 -14.068   3.740  1.00  0.00    -0.240 N 
HETATM    4  C   UNL     1      40.410 -15.095   4.638  1.00  0.00     0.123 A 
HETATM    5  N   UNL     1      40.610 -16.366   4.237  1.00  0.00    -0.366 N 
HETATM    6  C   UNL     1      41.020 -16.704   2.876  1.00  0.00     0.118 C 
HETATM    7  C   UNL     1      41.472 -15.454   2.088  1.00  0.00     0.066 C 
HETATM    8  C   UNL     1      40.534 -14.255   2.314  1.00  0.00     0.221 C 
HETATM    9  C   UNL     1      40.265 -14.523   5.871  1.00  0.00     0.088 A 
HETATM   10  H   UNL     1      40.661 -17.127   4.914  1.00  0.00     0.161 HD
ENDROOT
BRANCH   1  11
HETATM   11  C   UNL     1      40.134 -12.070   6.651  1.00  0.00     0.272 C 
HETATM   12  N   UNL     1      41.359 -11.538   6.988  1.00  0.00    -0.355 N 
HETATM   13  H   UNL     1      42.119 -11.781   6.358  1.00  0.00     0.162 HD
HETATM   14  O   UNL     1      39.076 -11.704   7.155  1.00  0.00    -0.266 OA
BRANCH  12  15
HETATM   15  C   UNL     1      41.467 -10.400   7.873  1.00  0.00     0.127 C 
BRANCH  15  16
HETATM   16  C   UNL     1      42.394 -10.646   9.063  1.00  0.00     0.060 C 
BRANCH  16  17
HETATM   17  C   UNL     1      41.654 -10.748  10.362  1.00  0.00    -0.029 A 
HETATM   18  C   UNL     1      42.131 -10.378  11.661  1.00  0.00    -0.002 A 
HETATM   19  C   UNL     1      43.342  -9.850  12.151  1.00  0.00     0.014 A 
HETATM   20  C   UNL     1      41.100 -10.626  12.569  1.00  0.00     0.042 A 
HETATM   21  C   UNL     1      43.478  -9.588  13.519  1.00  0.00     0.001 A 
HETATM   22  C   UNL     1      42.429  -9.845  14.399  1.00  0.00     0.002 A 
HETATM   23  C   UNL     1      41.218 -10.370  13.939  1.00  0.00     0.030 A 
HETATM   24  N   UNL     1      40.041 -11.132  11.852  1.00  0.00    -0.365 N 
HETATM   25  H   UNL     1      39.154 -11.399  12.254  1.00  0.00     0.165 HD
HETATM   26  C   UNL     1      40.364 -11.214  10.525  1.00  0.00     0.096 A 
ENDBRANCH  16  17
ENDBRANCH  15  16
ENDBRANCH  12  15
ENDBRANCH   1  11
BRANCH   8  27
HETATM   27  C   UNL     1      39.198 -14.421   1.630  1.00  0.00     0.409 C 
HETATM   28  F   UNL     1      38.389 -13.354   1.802  1.00  0.00    -0.169 F 
HETATM   29  F   UNL     1      39.387 -14.548   0.289  1.00  0.00    -0.169 F 
HETATM   30  F   UNL     1      38.521 -15.520   2.025  1.00  0.00    -0.169 F 
ENDBRANCH   8  27
BRANCH   6  31
HETATM   31  C   UNL     1      42.122 -17.748   2.957  1.00  0.00    -0.033 A 
HETATM   32  C   UNL     1      42.650 -18.139   4.204  1.00  0.00     0.049 A 
HETATM   33  C   UNL     1      43.620 -19.116   4.230  1.00  0.00     0.105 A 
HETATM   34  C   UNL     1      44.076 -19.715   3.082  1.00  0.00     0.105 A 
HETATM   35  O   UNL     1      44.221 -19.606   5.347  1.00  0.00    -0.323 OA
HETATM   36  O   UNL     1      45.022 -20.659   3.330  1.00  0.00    -0.323 OA
HETATM   37  C   UNL     1      43.586 -19.367   1.841  1.00  0.00     0.040 A 
HETATM   38  C   UNL     1      45.104 -20.591   4.768  1.00  0.00     0.352 A 
HETATM   39  C   UNL     1      42.601 -18.374   1.782  1.00  0.00     0.012 A 
ENDBRANCH   6  31
TORSDOF 6
ENDMDL
MODEL 3
REMARK VINA RESULT:     -10.1      5.179      9.422
REMARK  6 active torsions:
REMARK  status: ('A' for Active; 'I' for Inactive)
REMARK    1  A    between atoms: C_8  and  C_9 
REMARK    2  A    between atoms: C_9  and  C_10 
REMARK    3  A    between atoms: C_10  and  N_11 
REMARK       I    between atoms: N_11  and  C_12 
REMARK    4  A    between atoms: C_12  and  C_13 
REMARK    5  A    between atoms: C_18  and  C_19 
REMARK    6  A    between atoms: C_29  and  C_30 
ROOT
HETATM    1  C   UNL     1      40.107 -14.708   2.048  1.00  0.00     0.148 A 
HETATM    2  N   UNL     1      40.324 -14.634   3.382  1.00  0.00    -0.165 NA
HETATM    3  N   UNL     1      41.464 -15.327   3.548  1.00  0.00    -0.240 N 
HETATM    4  C   UNL     1      41.950 -15.886   2.401  1.00  0.00     0.123 A 
HETATM    5  N   UNL     1      43.023 -16.701   2.417  1.00  0.00    -0.366 N 
HETATM    6  C   UNL     1      43.579 -17.240   3.657  1.00  0.00     0.118 C 
HETATM    7  C   UNL     1      42.631 -17.012   4.855  1.00  0.00     0.066 C 
HETATM    8  C   UNL     1      42.027 -15.597   4.857  1.00  0.00     0.221 C 
HETATM    9  C   UNL     1      41.125 -15.460   1.398  1.00  0.00     0.088 A 
HETATM   10  H   UNL     1      43.377 -17.120   1.558  1.00  0.00     0.161 HD
ENDROOT
BRANCH   1  11
HETATM   11  C   UNL     1      38.931 -14.106   1.401  1.00  0.00     0.272 C 
HETATM   12  N   UNL     1      39.135 -12.812   0.973  1.00  0.00    -0.355 N 
HETATM   13  H   UNL     1      40.107 -12.511   0.966  1.00  0.00     0.162 HD
HETATM   14  O   UNL     1      37.870 -14.706   1.260  1.00  0.00    -0.266 OA
BRANCH  12  15
HETATM   15  C   UNL     1      38.139 -12.113   0.192  1.00  0.00     0.127 C 
BRANCH  15  16
HETATM   16  C   UNL     1      38.639 -11.697  -1.190  1.00  0.00     0.060 C 
BRANCH  16  17
HETATM   17  C   UNL     1      38.324 -12.710  -2.249  1.00  0.00    -0.029 A 
HETATM   18  C   UNL     1      39.048 -13.911  -2.540  1.00  0.00    -0.002 A 
HETATM   19  C   UNL     1      40.203 -14.518  -2.006  1.00  0.00     0.014 A 
HETATM   20  C   UNL     1      38.385 -14.553  -3.587  1.00  0.00     0.042 A 
HETATM   21  C   UNL     1      40.650 -15.735  -2.533  1.00  0.00     0.001 A 
HETATM   22  C   UNL     1      39.964 -16.351  -3.578  1.00  0.00     0.002 A 
HETATM   23  C   UNL     1      38.817 -15.771  -4.125  1.00  0.00     0.030 A 
HETATM   24  N   UNL     1      37.305 -13.772  -3.924  1.00  0.00    -0.365 N 
HETATM   25  H   UNL     1      36.642 -13.995  -4.652  1.00  0.00     0.165 HD
HETATM   26  C   UNL     1      37.261 -12.658  -3.129  1.00  0.00     0.096 A 
ENDBRANCH  16  17
ENDBRANCH  15  16
ENDBRANCH  12  15
ENDBRANCH   1  11
BRANCH   8  27
HETATM   27  C   UNL     1      43.034 -14.532   5.223  1.00  0.00     0.409 C 
HETATM   28  F   UNL     1      43.557 -13.916   4.142  1.00  0.00    -0.169 F 
HETATM   29  F   UNL     1      42.424 -13.565   5.959  1.00  0.00    -0.169 F 
HETATM   30  F   UNL     1      44.058 -14.992   5.972  1.00  0.00    -0.169 F 
ENDBRANCH   8  27
BRANCH   6  31
HETATM   31  C   UNL     1      43.872 -18.717   3.444  1.00  0.00    -0.033 A 
HETATM   32  C   UNL     1      44.361 -19.511   4.500  1.00  0.00     0.049 A 
HETATM   33  C   UNL     1      44.575 -20.852   4.270  1.00  0.00     0.105 A 
HETATM   34  C   UNL     1      44.321 -21.426   3.050  1.00  0.00     0.105 A 
HETATM   35  O   UNL     1      45.035 -21.749   5.182  1.00  0.00    -0.323 OA
HETATM   36  O   UNL     1      44.587 -22.760   3.038  1.00  0.00    -0.323 OA
HETATM   37  C   UNL     1      43.839 -20.689   1.989  1.00  0.00     0.040 A 
HETATM   38  C   UNL     1      45.032 -22.959   4.396  1.00  0.00     0.352 A 
HETATM   39  C   UNL     1      43.614 -19.323   2.191  1.00  0.00     0.012 A 
ENDBRANCH   6  31
TORSDOF 6
ENDMDL
MODEL 4
REMARK VINA RESULT:      -9.9      3.689      5.137
REMARK  6 active torsions:
REMARK  status: ('A' for Active; 'I' for Inactive)
REMARK    1  A    between atoms: C_8  and  C_9 
REMARK    2  A    between atoms: C_9  and  C_10 
REMARK    3  A    between atoms: C_10  and  N_11 
REMARK       I    between atoms: N_11  and  C_12 
REMARK    4  A    between atoms: C_12  and  C_13 
REMARK    5  A    between atoms: C_18  and  C_19 
REMARK    6  A    between atoms: C_29  and  C_30 
ROOT
HETATM    1  C   UNL     1      43.568 -14.169   6.211  1.00  0.00     0.148 A 
HETATM    2  N   UNL     1      42.991 -15.388   6.337  1.00  0.00    -0.165 NA
HETATM    3  N   UNL     1      42.640 -15.696   5.076  1.00  0.00    -0.240 N 
HETATM    4  C   UNL     1      42.909 -14.714   4.166  1.00  0.00     0.123 A 
HETATM    5  N   UNL     1      42.519 -14.823   2.881  1.00  0.00    -0.366 N 
HETATM    6  C   UNL     1      41.582 -15.850   2.430  1.00  0.00     0.118 C 
HETATM    7  C   UNL     1      40.897 -16.560   3.620  1.00  0.00     0.066 C 
HETATM    8  C   UNL     1      41.889 -16.891   4.748  1.00  0.00     0.221 C 
HETATM    9  C   UNL     1      43.561 -13.731   4.858  1.00  0.00     0.088 A 
HETATM   10  H   UNL     1      42.717 -14.083   2.208  1.00  0.00     0.161 HD
ENDROOT
BRANCH   1  11
HETATM   11  C   UNL     1      44.085 -13.413   7.361  1.00  0.00     0.272 C 
HETATM   12  N   UNL     1      43.298 -12.342   7.722  1.00  0.00    -0.355 N 
HETATM   13  H   UNL     1      42.373 -12.328   7.297  1.00  0.00     0.162 HD
HETATM   14  O   UNL     1      45.124 -13.714   7.941  1.00  0.00    -0.266 OA
BRANCH  12  15
HETATM   15  C   UNL     1      43.575 -11.572   8.913  1.00  0.00     0.127 C 
BRANCH  15  16
HETATM   16  C   UNL     1      42.561 -10.455   9.159  1.00  0.00     0.060 C 
BRANCH  16  17
HETATM   17  C   UNL     1      41.784 -10.648  10.426  1.00  0.00    -0.029 A 
HETATM   18  C   UNL     1      42.199 -10.313  11.756  1.00  0.00    -0.002 A 
HETATM   19  C   UNL     1      43.367  -9.750  12.309  1.00  0.00     0.014 A 
HETATM   20  C   UNL     1      41.153 -10.648  12.616  1.00  0.00     0.042 A 
HETATM   21  C   UNL     1      43.445  -9.542  13.691  1.00  0.00     0.001 A 
HETATM   22  C   UNL     1      42.381  -9.886  14.522  1.00  0.00     0.002 A 
HETATM   23  C   UNL     1      41.213 -10.446  13.999  1.00  0.00     0.030 A 
HETATM   24  N   UNL     1      40.143 -11.170  11.842  1.00  0.00    -0.365 N 
HETATM   25  H   UNL     1      39.257 -11.495  12.201  1.00  0.00     0.165 HD
HETATM   26  C   UNL     1      40.513 -11.180  10.525  1.00  0.00     0.096 A 
ENDBRANCH  16  17
ENDBRANCH  15  16
ENDBRANCH  12  15
ENDBRANCH   1  11
BRANCH   8  27
HETATM   27  C   UNL     1      42.828 -18.018   4.388  1.00  0.00     0.409 C 
HETATM   28  F   UNL     1      44.082 -17.589   4.133  1.00  0.00    -0.169 F 
HETATM   29  F   UNL     1      42.923 -18.881   5.434  1.00  0.00    -0.169 F 
HETATM   30  F   UNL     1      42.417 -18.747   3.329  1.00  0.00    -0.169 F 
ENDBRANCH   8  27
BRANCH   6  31
HETATM   31  C   UNL     1      40.569 -15.197   1.504  1.00  0.00    -0.033 A 
HETATM   32  C   UNL     1      40.906 -14.896   0.169  1.00  0.00     0.049 A 
HETATM   33  C   UNL     1      39.944 -14.339  -0.644  1.00  0.00     0.105 A 
HETATM   34  C   UNL     1      38.675 -14.079  -0.188  1.00  0.00     0.105 A 
HETATM   35  O   UNL     1      40.109 -14.000  -1.949  1.00  0.00    -0.323 OA
HETATM   36  O   UNL     1      37.879 -13.542  -1.151  1.00  0.00    -0.323 OA
HETATM   37  C   UNL     1      38.299 -14.360   1.108  1.00  0.00     0.040 A 
HETATM   38  C   UNL     1      38.792 -13.502  -2.267  1.00  0.00     0.352 A 
HETATM   39  C   UNL     1      39.257 -14.924   1.959  1.00  0.00     0.012 A 
ENDBRANCH   6  31
TORSDOF 6
ENDMDL
MODEL 5
REMARK VINA RESULT:      -9.9      5.300      9.570
REMARK  6 active torsions:
REMARK  status: ('A' for Active; 'I' for Inactive)
REMARK    1  A    between atoms: C_8  and  C_9 
REMARK    2  A    between atoms: C_9  and  C_10 
REMARK    3  A    between atoms: C_10  and  N_11 
REMARK       I    between atoms: N_11  and  C_12 
REMARK    4  A    between atoms: C_12  and  C_13 
REMARK    5  A    between atoms: C_18  and  C_19 
REMARK    6  A    between atoms: C_29  and  C_30 
ROOT
HETATM    1  C   UNL     1      39.681 -14.913   1.527  1.00  0.00     0.148 A 
HETATM    2  N   UNL     1      39.601 -14.886   2.878  1.00  0.00    -0.165 NA
HETATM    3  N   UNL     1      40.749 -15.466   3.267  1.00  0.00    -0.240 N 
HETATM    4  C   UNL     1      41.526 -15.913   2.236  1.00  0.00     0.123 A 
HETATM    5  N   UNL     1      42.655 -16.614   2.461  1.00  0.00    -0.366 N 
HETATM    6  C   UNL     1      42.992 -17.157   3.775  1.00  0.00     0.118 C 
HETATM    7  C   UNL     1      41.792 -17.089   4.747  1.00  0.00     0.066 C 
HETATM    8  C   UNL     1      41.049 -15.745   4.658  1.00  0.00     0.221 C 
HETATM    9  C   UNL     1      40.890 -15.522   1.091  1.00  0.00     0.088 A 
HETATM   10  H   UNL     1      43.227 -16.950   1.686  1.00  0.00     0.161 HD
ENDROOT
BRANCH   1  11
HETATM   11  C   UNL     1      38.609 -14.401   0.659  1.00  0.00     0.272 C 
HETATM   12  N   UNL     1      38.945 -14.368  -0.677  1.00  0.00    -0.355 N 
HETATM   13  H   UNL     1      39.789 -14.882  -0.919  1.00  0.00     0.162 HD
HETATM   14  O   UNL     1      37.520 -14.038   1.091  1.00  0.00    -0.266 OA
BRANCH  12  15
HETATM   15  C   UNL     1      37.970 -14.027  -1.689  1.00  0.00     0.127 C 
BRANCH  15  16
HETATM   16  C   UNL     1      38.464 -14.285  -3.113  1.00  0.00     0.060 C 
BRANCH  16  17
HETATM   17  C   UNL     1      39.899 -13.899  -3.306  1.00  0.00    -0.029 A 
HETATM   18  C   UNL     1      40.423 -12.578  -3.489  1.00  0.00    -0.002 A 
HETATM   19  C   UNL     1      39.849 -11.292  -3.559  1.00  0.00     0.014 A 
HETATM   20  C   UNL     1      41.808 -12.692  -3.610  1.00  0.00     0.042 A 
HETATM   21  C   UNL     1      40.674 -10.177  -3.742  1.00  0.00     0.001 A 
HETATM   22  C   UNL     1      42.054 -10.325  -3.856  1.00  0.00     0.002 A 
HETATM   23  C   UNL     1      42.649 -11.588  -3.792  1.00  0.00     0.030 A 
HETATM   24  N   UNL     1      42.116 -14.029  -3.509  1.00  0.00    -0.365 N 
HETATM   25  H   UNL     1      43.051 -14.406  -3.558  1.00  0.00     0.165 HD
HETATM   26  C   UNL     1      40.975 -14.764  -3.332  1.00  0.00     0.096 A 
ENDBRANCH  16  17
ENDBRANCH  15  16
ENDBRANCH  12  15
ENDBRANCH   1  11
BRANCH   8  27
HETATM   27  C   UNL     1      41.831 -14.603   5.263  1.00  0.00     0.409 C 
HETATM   28  F   UNL     1      42.717 -15.015   6.195  1.00  0.00    -0.169 F 
HETATM   29  F   UNL     1      42.554 -13.983   4.293  1.00  0.00    -0.169 F 
HETATM   30  F   UNL     1      41.054 -13.653   5.824  1.00  0.00    -0.169 F 
ENDBRANCH   8  27
BRANCH   6  31
HETATM   31  C   UNL     1      43.485 -18.583   3.588  1.00  0.00    -0.033 A 
HETATM   32  C   UNL     1      43.974 -19.323   4.684  1.00  0.00     0.049 A 
HETATM   33  C   UNL     1      44.374 -20.624   4.474  1.00  0.00     0.105 A 
HETATM   34  C   UNL     1      44.302 -21.211   3.235  1.00  0.00     0.105 A 
HETATM   35  O   UNL     1      44.859 -21.467   5.423  1.00  0.00    -0.323 OA
HETATM   36  O   UNL     1      44.733 -22.501   3.247  1.00  0.00    -0.323 OA
HETATM   37  C   UNL     1      43.827 -20.528   2.136  1.00  0.00     0.040 A 
HETATM   38  C   UNL     1      45.078 -22.659   4.639  1.00  0.00     0.352 A 
HETATM   39  C   UNL     1      43.416 -19.202   2.318  1.00  0.00     0.012 A 
ENDBRANCH   6  31
TORSDOF 6
ENDMDL
MODEL 6
REMARK VINA RESULT:      -9.8      2.606      3.451
REMARK  6 active torsions:
REMARK  status: ('A' for Active; 'I' for Inactive)
REMARK    1  A    between atoms: C_8  and  C_9 
REMARK    2  A    between atoms: C_9  and  C_10 
REMARK    3  A    between atoms: C_10  and  N_11 
REMARK       I    between atoms: N_11  and  C_12 
REMARK    4  A    between atoms: C_12  and  C_13 
REMARK    5  A    between atoms: C_18  and  C_19 
REMARK    6  A    between atoms: C_29  and  C_30 
ROOT
HETATM    1  C   UNL     1      39.921 -12.738   5.199  1.00  0.00     0.148 A 
HETATM    2  N   UNL     1      40.201 -12.519   3.892  1.00  0.00    -0.165 NA
HETATM    3  N   UNL     1      40.339 -13.760   3.394  1.00  0.00    -0.240 N 
HETATM    4  C   UNL     1      40.221 -14.752   4.325  1.00  0.00     0.123 A 
HETATM    5  N   UNL     1      40.443 -16.043   4.006  1.00  0.00    -0.366 N 
HETATM    6  C   UNL     1      41.058 -16.444   2.742  1.00  0.00     0.118 C 
HETATM    7  C   UNL     1      41.671 -15.237   1.997  1.00  0.00     0.066 C 
HETATM    8  C   UNL     1      40.748 -14.007   2.025  1.00  0.00     0.221 C 
HETATM    9  C   UNL     1      39.895 -14.129   5.497  1.00  0.00     0.088 A 
HETATM   10  H   UNL     1      40.359 -16.778   4.708  1.00  0.00     0.161 HD
ENDROOT
BRANCH   1  11
HETATM   11  C   UNL     1      39.717 -11.644   6.160  1.00  0.00     0.272 C 
HETATM   12  N   UNL     1      40.345 -11.844   7.370  1.00  0.00    -0.355 N 
HETATM   13  H   UNL     1      41.027 -12.599   7.379  1.00  0.00     0.162 HD
HETATM   14  O   UNL     1      39.046 -10.650   5.902  1.00  0.00    -0.266 OA
BRANCH  12  15
HETATM   15  C   UNL     1      40.371 -10.813   8.383  1.00  0.00     0.127 C 
BRANCH  15  16
HETATM   16  C   UNL     1      41.666 -10.001   8.384  1.00  0.00     0.060 C 
BRANCH  16  17
HETATM   17  C   UNL     1      42.512 -10.262   9.593  1.00  0.00    -0.029 A 
HETATM   18  C   UNL     1      42.451  -9.587  10.855  1.00  0.00    -0.002 A 
HETATM   19  C   UNL     1      41.668  -8.535  11.371  1.00  0.00     0.014 A 
HETATM   20  C   UNL     1      43.407 -10.173  11.687  1.00  0.00     0.042 A 
HETATM   21  C   UNL     1      41.866  -8.111  12.691  1.00  0.00     0.001 A 
HETATM   22  C   UNL     1      42.827  -8.718  13.496  1.00  0.00     0.002 A 
HETATM   23  C   UNL     1      43.617  -9.762  13.008  1.00  0.00     0.030 A 
HETATM   24  N   UNL     1      44.028 -11.161  10.959  1.00  0.00    -0.365 N 
HETATM   25  H   UNL     1      44.764 -11.755  11.313  1.00  0.00     0.165 HD
HETATM   26  C   UNL     1      43.501 -11.220   9.698  1.00  0.00     0.096 A 
ENDBRANCH  16  17
ENDBRANCH  15  16
ENDBRANCH  12  15
ENDBRANCH   1  11
BRANCH   8  27
HETATM   27  C   UNL     1      39.536 -14.165   1.137  1.00  0.00     0.409 C 
HETATM   28  F   UNL     1      39.044 -12.982   0.712  1.00  0.00    -0.169 F 
HETATM   29  F   UNL     1      39.879 -14.862   0.021  1.00  0.00    -0.169 F 
HETATM   30  F   UNL     1      38.527 -14.848   1.717  1.00  0.00    -0.169 F 
ENDBRANCH   8  27
BRANCH   6  31
HETATM   31  C   UNL     1      42.099 -17.512   3.039  1.00  0.00    -0.033 A 
HETATM   32  C   UNL     1      42.305 -18.581   2.144  1.00  0.00     0.049 A 
HETATM   33  C   UNL     1      43.285 -19.504   2.435  1.00  0.00     0.105 A 
HETATM   34  C   UNL     1      44.061 -19.402   3.563  1.00  0.00     0.105 A 
HETATM   35  O   UNL     1      43.609 -20.582   1.674  1.00  0.00    -0.323 OA
HETATM   36  O   UNL     1      44.975 -20.405   3.655  1.00  0.00    -0.323 OA
HETATM   37  C   UNL     1      43.899 -18.371   4.463  1.00  0.00     0.040 A 
HETATM   38  C   UNL     1      44.688 -21.145   2.451  1.00  0.00     0.352 A 
HETATM   39  C   UNL     1      42.907 -17.420   4.196  1.00  0.00     0.012 A 
ENDBRANCH   6  31
TORSDOF 6
ENDMDL
MODEL 7
REMARK VINA RESULT:      -9.7      5.339      9.552
REMARK  6 active torsions:
REMARK  status: ('A' for Active; 'I' for Inactive)
REMARK    1  A    between atoms: C_8  and  C_9 
REMARK    2  A    between atoms: C_9  and  C_10 
REMARK    3  A    between atoms: C_10  and  N_11 
REMARK       I    between atoms: N_11  and  C_12 
REMARK    4  A    between atoms: C_12  and  C_13 
REMARK    5  A    between atoms: C_18  and  C_19 
REMARK    6  A    between atoms: C_29  and  C_30 
ROOT
HETATM    1  C   UNL     1      41.321 -14.102   1.409  1.00  0.00     0.148 A 
HETATM    2  N   UNL     1      40.668 -14.387   2.561  1.00  0.00    -0.165 NA
HETATM    3  N   UNL     1      41.487 -15.261   3.171  1.00  0.00    -0.240 N 
HETATM    4  C   UNL     1      42.595 -15.591   2.444  1.00  0.00     0.123 A 
HETATM    5  N   UNL     1      43.457 -16.535   2.868  1.00  0.00    -0.366 N 
HETATM    6  C   UNL     1      43.150 -17.436   3.978  1.00  0.00     0.118 C 
HETATM    7  C   UNL     1      41.657 -17.367   4.374  1.00  0.00     0.066 C 
HETATM    8  C   UNL     1      41.133 -15.921   4.413  1.00  0.00     0.221 C 
HETATM    9  C   UNL     1      42.547 -14.816   1.319  1.00  0.00     0.088 A 
HETATM   10  H   UNL     1      44.278 -16.781   2.317  1.00  0.00     0.161 HD
ENDROOT
BRANCH   1  11
HETATM   11  C   UNL     1      40.773 -13.193   0.391  1.00  0.00     0.272 C 
HETATM   12  N   UNL     1      41.736 -12.531  -0.338  1.00  0.00    -0.355 N 
HETATM   13  H   UNL     1      42.679 -12.896  -0.233  1.00  0.00     0.162 HD
HETATM   14  O   UNL     1      39.568 -13.042   0.214  1.00  0.00    -0.266 OA
BRANCH  12  15
HETATM   15  C   UNL     1      41.385 -11.706  -1.473  1.00  0.00     0.127 C 
BRANCH  15  16
HETATM   16  C   UNL     1      41.728 -12.350  -2.816  1.00  0.00     0.060 C 
BRANCH  16  17
HETATM   17  C   UNL     1      40.954 -13.607  -3.069  1.00  0.00    -0.029 A 
HETATM   18  C   UNL     1      39.552 -13.721  -3.341  1.00  0.00    -0.002 A 
HETATM   19  C   UNL     1      38.492 -12.797  -3.449  1.00  0.00     0.014 A 
HETATM   20  C   UNL     1      39.273 -15.075  -3.531  1.00  0.00     0.042 A 
HETATM   21  C   UNL     1      37.203 -13.257  -3.743  1.00  0.00     0.001 A 
HETATM   22  C   UNL     1      36.958 -14.615  -3.929  1.00  0.00     0.002 A 
HETATM   23  C   UNL     1      37.990 -15.552  -3.826  1.00  0.00     0.030 A 
HETATM   24  N   UNL     1      40.455 -15.759  -3.376  1.00  0.00    -0.365 N 
HETATM   25  H   UNL     1      40.553 -16.760  -3.463  1.00  0.00     0.165 HD
HETATM   26  C   UNL     1      41.472 -14.888  -3.093  1.00  0.00     0.096 A 
ENDBRANCH  16  17
ENDBRANCH  15  16
ENDBRANCH  12  15
ENDBRANCH   1  11
BRANCH   8  27
HETATM   27  C   UNL     1      41.665 -15.138   5.591  1.00  0.00     0.409 C 
HETATM   28  F   UNL     1      42.764 -14.417   5.284  1.00  0.00    -0.169 F 
HETATM   29  F   UNL     1      40.724 -14.249   6.007  1.00  0.00    -0.169 F 
HETATM   30  F   UNL     1      41.961 -15.906   6.661  1.00  0.00    -0.169 F 
ENDBRANCH   8  27
BRANCH   6  31
HETATM   31  C   UNL     1      43.562 -18.843   3.576  1.00  0.00    -0.033 A 
HETATM   32  C   UNL     1      44.176 -19.704   4.508  1.00  0.00     0.049 A 
HETATM   33  C   UNL     1      44.497 -20.983   4.109  1.00  0.00     0.105 A 
HETATM   34  C   UNL     1      44.228 -21.434   2.840  1.00  0.00     0.105 A 
HETATM   35  O   UNL     1      45.083 -21.931   4.886  1.00  0.00    -0.323 OA
HETATM   36  O   UNL     1      44.612 -22.725   2.657  1.00  0.00    -0.323 OA
HETATM   37  C   UNL     1      43.625 -20.629   1.898  1.00  0.00     0.040 A 
HETATM   38  C   UNL     1      45.146 -23.037   3.961  1.00  0.00     0.352 A 
HETATM   39  C   UNL     1      43.290 -19.322   2.273  1.00  0.00     0.012 A 
ENDBRANCH   6  31
TORSDOF 6
ENDMDL
MODEL 8
REMARK VINA RESULT:      -9.6      2.558      3.680
REMARK  6 active torsions:
REMARK  status: ('A' for Active; 'I' for Inactive)
REMARK    1  A    between atoms: C_8  and  C_9 
REMARK    2  A    between atoms: C_9  and  C_10 
REMARK    3  A    between atoms: C_10  and  N_11 
REMARK       I    between atoms: N_11  and  C_12 
REMARK    4  A    between atoms: C_12  and  C_13 
REMARK    5  A    between atoms: C_18  and  C_19 
REMARK    6  A    between atoms: C_29  and  C_30 
ROOT
HETATM    1  C   UNL     1      40.116 -12.410   5.608  1.00  0.00     0.148 A 
HETATM    2  N   UNL     1      40.997 -11.971   4.678  1.00  0.00    -0.165 NA
HETATM    3  N   UNL     1      41.292 -13.084   3.984  1.00  0.00    -0.240 N 
HETATM    4  C   UNL     1      40.693 -14.215   4.460  1.00  0.00     0.123 A 
HETATM    5  N   UNL     1      40.973 -15.427   3.943  1.00  0.00    -0.366 N 
HETATM    6  C   UNL     1      42.095 -15.652   3.034  1.00  0.00     0.118 C 
HETATM    7  C   UNL     1      43.051 -14.439   2.996  1.00  0.00     0.066 C 
HETATM    8  C   UNL     1      42.292 -13.103   2.934  1.00  0.00     0.221 C 
HETATM    9  C   UNL     1      39.880 -13.806   5.480  1.00  0.00     0.088 A 
HETATM   10  H   UNL     1      40.526 -16.268   4.308  1.00  0.00     0.161 HD
ENDROOT
BRANCH   1  11
HETATM   11  C   UNL     1      39.534 -11.525   6.629  1.00  0.00     0.272 C 
HETATM   12  N   UNL     1      39.663 -12.001   7.915  1.00  0.00    -0.355 N 
HETATM   13  H   UNL     1      40.309 -12.779   8.021  1.00  0.00     0.162 HD
HETATM   14  O   UNL     1      38.985 -10.463   6.353  1.00  0.00    -0.266 OA
BRANCH  12  15
HETATM   15  C   UNL     1      39.276 -11.201   9.056  1.00  0.00     0.127 C 
BRANCH  15  16
HETATM   16  C   UNL     1      40.361 -10.221   9.501  1.00  0.00     0.060 C 
BRANCH  16  17
HETATM   17  C   UNL     1      41.314 -10.823  10.488  1.00  0.00    -0.029 A 
HETATM   18  C   UNL     1      42.701 -11.119  10.284  1.00  0.00    -0.002 A 
HETATM   19  C   UNL     1      43.586 -10.981   9.195  1.00  0.00     0.014 A 
HETATM   20  C   UNL     1      43.194 -11.649  11.476  1.00  0.00     0.042 A 
HETATM   21  C   UNL     1      44.922 -11.372   9.338  1.00  0.00     0.001 A 
HETATM   22  C   UNL     1      45.384 -11.895  10.544  1.00  0.00     0.002 A 
HETATM   23  C   UNL     1      44.527 -12.044  11.637  1.00  0.00     0.030 A 
HETATM   24  N   UNL     1      42.149 -11.679  12.370  1.00  0.00    -0.365 N 
HETATM   25  H   UNL     1      42.219 -12.013  13.320  1.00  0.00     0.165 HD
HETATM   26  C   UNL     1      41.013 -11.190  11.785  1.00  0.00     0.096 A 
ENDBRANCH  16  17
ENDBRANCH  15  16
ENDBRANCH  12  15
ENDBRANCH   1  11
BRANCH   8  27
HETATM   27  C   UNL     1      41.645 -12.860   1.591  1.00  0.00     0.409 C 
HETATM   28  F   UNL     1      41.658 -11.558   1.235  1.00  0.00    -0.169 F 
HETATM   29  F   UNL     1      42.333 -13.529   0.627  1.00  0.00    -0.169 F 
HETATM   30  F   UNL     1      40.369 -13.295   1.519  1.00  0.00    -0.169 F 
ENDBRANCH   8  27
BRANCH   6  31
HETATM   31  C   UNL     1      42.811 -16.921   3.469  1.00  0.00    -0.033 A 
HETATM   32  C   UNL     1      42.701 -17.389   4.794  1.00  0.00     0.049 A 
HETATM   33  C   UNL     1      43.336 -18.564   5.131  1.00  0.00     0.105 A 
HETATM   34  C   UNL     1      44.061 -19.284   4.214  1.00  0.00     0.105 A 
HETATM   35  O   UNL     1      43.322 -19.148   6.359  1.00  0.00    -0.323 OA
HETATM   36  O   UNL     1      44.595 -20.415   4.748  1.00  0.00    -0.323 OA
HETATM   37  C   UNL     1      44.192 -18.867   2.907  1.00  0.00     0.040 A 
HETATM   38  C   UNL     1      44.116 -20.327   6.106  1.00  0.00     0.352 A 
HETATM   39  C   UNL     1      43.560 -17.675   2.534  1.00  0.00     0.012 A 
ENDBRANCH   6  31
TORSDOF 6
ENDMDL
MODEL 9
REMARK VINA RESULT:      -9.5      4.203      5.579
REMARK  6 active torsions:
REMARK  status: ('A' for Active; 'I' for Inactive)
REMARK    1  A    between atoms: C_8  and  C_9 
REMARK    2  A    between atoms: C_9  and  C_10 
REMARK    3  A    between atoms: C_10  and  N_11 
REMARK       I    between atoms: N_11  and  C_12 
REMARK    4  A    between atoms: C_12  and  C_13 
REMARK    5  A    between atoms: C_18  and  C_19 
REMARK    6  A    between atoms: C_29  and  C_30 
ROOT
HETATM    1  C   UNL     1      40.673 -13.256   5.326  1.00  0.00     0.148 A 
HETATM    2  N   UNL     1      40.291 -14.552   5.233  1.00  0.00    -0.165 NA
HETATM    3  N   UNL     1      40.891 -14.971   4.106  1.00  0.00    -0.240 N 
HETATM    4  C   UNL     1      41.585 -13.996   3.447  1.00  0.00     0.123 A 
HETATM    5  N   UNL     1      42.151 -14.228   2.247  1.00  0.00    -0.366 N 
HETATM    6  C   UNL     1      41.859 -15.425   1.460  1.00  0.00     0.118 C 
HETATM    7  C   UNL     1      40.641 -16.194   2.021  1.00  0.00     0.066 C 
HETATM    8  C   UNL     1      40.674 -16.294   3.556  1.00  0.00     0.221 C 
HETATM    9  C   UNL     1      41.511 -12.884   4.238  1.00  0.00     0.088 A 
HETATM   10  H   UNL     1      42.662 -13.495   1.757  1.00  0.00     0.161 HD
ENDROOT
BRANCH   1  11
HETATM   11  C   UNL     1      40.221 -12.371   6.410  1.00  0.00     0.272 C 
HETATM   12  N   UNL     1      41.228 -11.609   6.961  1.00  0.00    -0.355 N 
HETATM   13  H   UNL     1      42.095 -11.594   6.428  1.00  0.00     0.162 HD
HETATM   14  O   UNL     1      39.054 -12.322   6.786  1.00  0.00    -0.266 OA
BRANCH  12  15
HETATM   15  C   UNL     1      40.946 -10.583   7.940  1.00  0.00     0.127 C 
BRANCH  15  16
HETATM   16  C   UNL     1      42.013 -10.478   9.029  1.00  0.00     0.060 C 
BRANCH  16  17
HETATM   17  C   UNL     1      41.454 -10.660  10.407  1.00  0.00    -0.029 A 
HETATM   18  C   UNL     1      42.065 -10.282  11.647  1.00  0.00    -0.002 A 
HETATM   19  C   UNL     1      43.289  -9.674  11.995  1.00  0.00     0.014 A 
HETATM   20  C   UNL     1      41.179 -10.623  12.669  1.00  0.00     0.042 A 
HETATM   21  C   UNL     1      43.579  -9.430  13.342  1.00  0.00     0.001 A 
HETATM   22  C   UNL     1      42.672  -9.781  14.339  1.00  0.00     0.002 A 
HETATM   23  C   UNL     1      41.452 -10.386  14.021  1.00  0.00     0.030 A 
HETATM   24  N   UNL     1      40.076 -11.191  12.077  1.00  0.00    -0.365 N 
HETATM   25  H   UNL     1      39.269 -11.531  12.580  1.00  0.00     0.165 HD
HETATM   26  C   UNL     1      40.232 -11.223  10.719  1.00  0.00     0.096 A 
ENDBRANCH  16  17
ENDBRANCH  15  16
ENDBRANCH  12  15
ENDBRANCH   1  11
BRANCH   8  27
HETATM   27  C   UNL     1      41.732 -17.249   4.057  1.00  0.00     0.409 C 
HETATM   28  F   UNL     1      42.848 -16.616   4.476  1.00  0.00    -0.169 F 
HETATM   29  F   UNL     1      41.254 -17.935   5.129  1.00  0.00    -0.169 F 
HETATM   30  F   UNL     1      42.100 -18.175   3.146  1.00  0.00    -0.169 F 
ENDBRANCH   8  27
BRANCH   6  31
HETATM   31  C   UNL     1      41.643 -15.004   0.016  1.00  0.00    -0.033 A 
HETATM   32  C   UNL     1      41.946 -13.692  -0.402  1.00  0.00     0.049 A 
HETATM   33  C   UNL     1      41.770 -13.367  -1.729  1.00  0.00     0.105 A 
HETATM   34  C   UNL     1      41.317 -14.284  -2.644  1.00  0.00     0.105 A 
HETATM   35  O   UNL     1      42.021 -12.153  -2.287  1.00  0.00    -0.323 OA
HETATM   36  O   UNL     1      41.226 -13.764  -3.897  1.00  0.00    -0.323 OA
HETATM   37  C   UNL     1      41.012 -15.579  -2.282  1.00  0.00     0.040 A 
HETATM   38  C   UNL     1      41.682 -12.415  -3.665  1.00  0.00     0.352 A 
HETATM   39  C   UNL     1      41.178 -15.938  -0.939  1.00  0.00     0.012 A 
ENDBRANCH   6  31
TORSDOF 6
ENDMDL
MODEL 10
REMARK VINA RESULT:      -9.4      7.025     11.198
REMARK  6 active torsions:
REMARK  status: ('A' for Active; 'I' for Inactive)
REMARK    1  A    between atoms: C_8  and  C_9 
REMARK    2  A    between atoms: C_9  and  C_10 
REMARK    3  A    between atoms: C_10  and  N_11 
REMARK       I    between atoms: N_11  and  C_12 
REMARK    4  A    between atoms: C_12  and  C_13 
REMARK    5  A    between atoms: C_18  and  C_19 
REMARK    6  A    between atoms: C_29  and  C_30 
ROOT
HETATM    1  C   UNL     1      40.424 -15.276   0.758  1.00  0.00     0.148 A 
HETATM    2  N   UNL     1      41.288 -15.209  -0.282  1.00  0.00    -0.165 NA
HETATM    3  N   UNL     1      40.695 -14.343  -1.121  1.00  0.00    -0.240 N 
HETATM    4  C   UNL     1      39.473 -13.902  -0.698  1.00  0.00     0.123 A 
HETATM    5  N   UNL     1      38.703 -13.117  -1.475  1.00  0.00    -0.366 N 
HETATM    6  C   UNL     1      38.990 -12.891  -2.891  1.00  0.00     0.118 C 
HETATM    7  C   UNL     1      40.060 -13.872  -3.420  1.00  0.00     0.066 C 
HETATM    8  C   UNL     1      41.229 -14.042  -2.435  1.00  0.00     0.221 C 
HETATM    9  C   UNL     1      39.290 -14.445   0.544  1.00  0.00     0.088 A 
HETATM   10  H   UNL     1      37.789 -12.796  -1.155  1.00  0.00     0.161 HD
ENDROOT
BRANCH   1  11
HETATM   11  C   UNL     1      40.651 -16.144   1.923  1.00  0.00     0.272 C 
HETATM   12  N   UNL     1      41.696 -15.738   2.723  1.00  0.00    -0.355 N 
HETATM   13  H   UNL     1      42.040 -14.799   2.535  1.00  0.00     0.162 HD
HETATM   14  O   UNL     1      39.968 -17.137   2.155  1.00  0.00    -0.266 OA
BRANCH  12  15
HETATM   15  C   UNL     1      41.975 -16.388   3.984  1.00  0.00     0.127 C 
BRANCH  15  16
HETATM   16  C   UNL     1      43.466 -16.451   4.313  1.00  0.00     0.060 C 
BRANCH  16  17
HETATM   17  C   UNL     1      43.943 -17.848   4.574  1.00  0.00    -0.029 A 
HETATM   18  C   UNL     1      43.923 -18.953   3.663  1.00  0.00    -0.002 A 
HETATM   19  C   UNL     1      43.487 -19.125   2.333  1.00  0.00     0.014 A 
HETATM   20  C   UNL     1      44.481 -20.048   4.324  1.00  0.00     0.042 A 
HETATM   21  C   UNL     1      43.626 -20.374   1.717  1.00  0.00     0.001 A 
HETATM   22  C   UNL     1      44.190 -21.446   2.404  1.00  0.00     0.002 A 
HETATM   23  C   UNL     1      44.629 -21.303   3.723  1.00  0.00     0.030 A 
HETATM   24  N   UNL     1      44.822 -19.628   5.588  1.00  0.00    -0.365 N 
HETATM   25  H   UNL     1      45.252 -20.214   6.289  1.00  0.00     0.165 HD
HETATM   26  C   UNL     1      44.498 -18.309   5.751  1.00  0.00     0.096 A 
ENDBRANCH  16  17
ENDBRANCH  15  16
ENDBRANCH  12  15
ENDBRANCH   1  11
BRANCH   8  27
HETATM   27  C   UNL     1      42.122 -12.825  -2.371  1.00  0.00     0.409 C 
HETATM   28  F   UNL     1      42.324 -12.394  -1.108  1.00  0.00    -0.169 F 
HETATM   29  F   UNL     1      43.348 -13.134  -2.872  1.00  0.00    -0.169 F 
HETATM   30  F   UNL     1      41.666 -11.782  -3.096  1.00  0.00    -0.169 F 
ENDBRANCH   8  27
BRANCH   6  31
HETATM   31  C   UNL     1      37.686 -13.008  -3.664  1.00  0.00    -0.033 A 
HETATM   32  C   UNL     1      37.027 -11.855  -4.137  1.00  0.00     0.049 A 
HETATM   33  C   UNL     1      35.869 -12.013  -4.866  1.00  0.00     0.105 A 
HETATM   34  C   UNL     1      35.352 -13.254  -5.145  1.00  0.00     0.105 A 
HETATM   35  O   UNL     1      35.122 -11.007  -5.395  1.00  0.00    -0.323 OA
HETATM   36  O   UNL     1      34.214 -13.188  -5.886  1.00  0.00    -0.323 OA
HETATM   37  C   UNL     1      35.966 -14.408  -4.707  1.00  0.00     0.040 A 
HETATM   38  C   UNL     1      34.078 -11.760  -6.047  1.00  0.00     0.352 A 
HETATM   39  C   UNL     1      37.143 -14.280  -3.960  1.00  0.00     0.012 A 
ENDBRANCH   6  31
TORSDOF 6
ENDMDL
