MODEL 1
REMARK VINA RESULT:      -7.5      0.000      0.000
REMARK  6 active torsions:
REMARK  status: ('A' for Active; 'I' for Inactive)
REMARK    1  A    between atoms: C_2  and  N_3 
REMARK    2  A    between atoms: C_2  and  C_11 
REMARK       I    between atoms: N_3  and  C_4 
REMARK    3  A    between atoms: C_4  and  C_5 
REMARK    4  A    between atoms: C_14  and  O_15 
REMARK    5  A    between atoms: O_15  and  C_16 
REMARK    6  A    between atoms: C_16  and  C_17 
ROOT
HETATM    1  C   UNL     1      41.493 -15.449   1.521  1.00  0.00    -0.036 A 
HETATM    2  C   UNL     1      42.149 -15.430   2.762  1.00  0.00     0.012 A 
HETATM    3  C   UNL     1      43.136 -16.374   3.071  1.00  0.00     0.037 A 
HETATM    4  C   UNL     1      43.482 -17.353   2.142  1.00  0.00     0.069 A 
HETATM    5  C   UNL     1      42.869 -17.351   0.889  1.00  0.00     0.037 A 
HETATM    6  C   UNL     1      41.887 -16.409   0.577  1.00  0.00     0.012 A 
ENDROOT
BRANCH   1   7
HETATM    7  C   UNL     1      40.412 -14.422   1.218  1.00  0.00     0.113 C 
HETATM    8  C   UNL     1      39.357 -14.347   2.330  1.00  0.00     0.037 C 
BRANCH   7   9
HETATM    9  N   UNL     1      39.819 -14.712  -0.077  1.00  0.00    -0.352 N 
HETATM   10  C   UNL     1      39.488 -13.717  -0.964  1.00  0.00     0.225 C 
HETATM   11  O   UNL     1      39.636 -12.524  -0.739  1.00  0.00    -0.273 OA
HETATM   12  H   UNL     1      39.684 -15.682  -0.325  1.00  0.00     0.163 HD
BRANCH  10  13
HETATM   13  C   UNL     1      38.881 -14.198  -2.227  1.00  0.00     0.119 A 
HETATM   14  C   UNL     1      39.687 -14.893  -3.292  1.00  0.00     0.126 A 
HETATM   15 CL   UNL     1      41.414 -15.152  -3.141  1.00  0.00    -0.101 Cl
HETATM   16 CL   UNL     1      38.883 -16.185  -4.194  1.00  0.00    -0.101 Cl
HETATM   17  C   UNL     1      39.196 -13.492  -3.525  1.00  0.00     0.060 A 
ENDBRANCH  10  13
ENDBRANCH   7   9
ENDBRANCH   1   7
BRANCH   4  18
HETATM   18  O   UNL     1      44.401 -18.348   2.326  1.00  0.00    -0.347 OA
BRANCH  18  19
HETATM   19  C   UNL     1      44.068 -19.637   1.810  1.00  0.00     0.215 C 
BRANCH  19  20
HETATM   20  C   UNL     1      44.328 -20.661   2.880  1.00  0.00    -0.017 A 
HETATM   21  C   UNL     1      44.414 -22.016   2.579  1.00  0.00     0.125 A 
HETATM   22  N   UNL     1      44.683 -22.981   3.488  1.00  0.00    -0.272 NA
HETATM   23  C   UNL     1      44.873 -22.579   4.762  1.00  0.00     0.116 A 
HETATM   24  C   UNL     1      44.812 -21.259   5.170  1.00  0.00     0.020 A 
HETATM   25  C   UNL     1      44.539 -20.287   4.211  1.00  0.00     0.012 A 
ENDBRANCH  19  20
ENDBRANCH  18  19
ENDBRANCH   4  18
TORSDOF 6
ENDMDL
MODEL 2
REMARK VINA RESULT:      -7.5      6.016      8.786
REMARK  6 active torsions:
REMARK  status: ('A' for Active; 'I' for Inactive)
REMARK    1  A    between atoms: C_2  and  N_3 
REMARK    2  A    between atoms: C_2  and  C_11 
REMARK       I    between atoms: N_3  and  C_4 
REMARK    3  A    between atoms: C_4  and  C_5 
REMARK    4  A    between atoms: C_14  and  O_15 
REMARK    5  A    between atoms: O_15  and  C_16 
REMARK    6  A    between atoms: C_16  and  C_17 
ROOT
HETATM    1  C   UNL     1      42.987 -16.497   4.632  1.00  0.00    -0.036 A 
HETATM    2  C   UNL     1      43.212 -17.239   5.803  1.00  0.00     0.012 A 
HETATM    3  C   UNL     1      43.705 -16.625   6.962  1.00  0.00     0.037 A 
HETATM    4  C   UNL     1      43.980 -15.260   6.968  1.00  0.00     0.069 A 
HETATM    5  C   UNL     1      43.715 -14.507   5.823  1.00  0.00     0.037 A 
HETATM    6  C   UNL     1      43.221 -15.115   4.668  1.00  0.00     0.012 A 
ENDROOT
BRANCH   1   7
HETATM    7  C   UNL     1      42.468 -17.192   3.383  1.00  0.00     0.113 C 
HETATM    8  C   UNL     1      40.960 -16.984   3.190  1.00  0.00     0.037 C 
BRANCH   7   9
HETATM    9  N   UNL     1      42.821 -18.602   3.431  1.00  0.00    -0.352 N 
HETATM   10  C   UNL     1      43.347 -19.257   2.344  1.00  0.00     0.225 C 
HETATM   11  O   UNL     1      43.537 -18.731   1.256  1.00  0.00    -0.273 OA
HETATM   12  H   UNL     1      42.699 -19.087   4.308  1.00  0.00     0.163 HD
BRANCH  10  13
HETATM   13  C   UNL     1      43.634 -20.692   2.572  1.00  0.00     0.119 A 
HETATM   14  C   UNL     1      44.650 -21.158   3.580  1.00  0.00     0.126 A 
HETATM   15 CL   UNL     1      45.604 -20.039   4.535  1.00  0.00    -0.101 Cl
HETATM   16 CL   UNL     1      44.293 -22.658   4.448  1.00  0.00    -0.101 Cl
HETATM   17  C   UNL     1      44.949 -21.275   2.112  1.00  0.00     0.060 A 
ENDBRANCH  10  13
ENDBRANCH   7   9
ENDBRANCH   1   7
BRANCH   4  18
HETATM   18  O   UNL     1      44.490 -14.546   8.014  1.00  0.00    -0.347 OA
BRANCH  18  19
HETATM   19  C   UNL     1      45.186 -13.341   7.696  1.00  0.00     0.215 C 
BRANCH  19  20
HETATM   20  C   UNL     1      44.807 -12.290   8.703  1.00  0.00    -0.017 A 
HETATM   21  C   UNL     1      43.661 -11.518   8.547  1.00  0.00     0.125 A 
HETATM   22  N   UNL     1      43.247 -10.585   9.435  1.00  0.00    -0.272 NA
HETATM   23  C   UNL     1      44.014 -10.407  10.531  1.00  0.00     0.116 A 
HETATM   24  C   UNL     1      45.171 -11.121  10.786  1.00  0.00     0.020 A 
HETATM   25  C   UNL     1      45.569 -12.079   9.856  1.00  0.00     0.012 A 
ENDBRANCH  19  20
ENDBRANCH  18  19
ENDBRANCH   4  18
TORSDOF 6
ENDMDL
MODEL 3
REMARK VINA RESULT:      -7.4      2.799      3.726
REMARK  6 active torsions:
REMARK  status: ('A' for Active; 'I' for Inactive)
REMARK    1  A    between atoms: C_2  and  N_3 
REMARK    2  A    between atoms: C_2  and  C_11 
REMARK       I    between atoms: N_3  and  C_4 
REMARK    3  A    between atoms: C_4  and  C_5 
REMARK    4  A    between atoms: C_14  and  O_15 
REMARK    5  A    between atoms: O_15  and  C_16 
REMARK    6  A    between atoms: C_16  and  C_17 
ROOT
HETATM    1  C   UNL     1      42.008 -15.408   5.239  1.00  0.00    -0.036 A 
HETATM    2  C   UNL     1      43.337 -15.562   5.664  1.00  0.00     0.012 A 
HETATM    3  C   UNL     1      43.880 -16.834   5.887  1.00  0.00     0.037 A 
HETATM    4  C   UNL     1      43.101 -17.972   5.688  1.00  0.00     0.069 A 
HETATM    5  C   UNL     1      41.794 -17.829   5.220  1.00  0.00     0.037 A 
HETATM    6  C   UNL     1      41.251 -16.563   4.994  1.00  0.00     0.012 A 
ENDROOT
BRANCH   1   7
HETATM    7  C   UNL     1      41.439 -14.014   5.021  1.00  0.00     0.113 C 
HETATM    8  C   UNL     1      40.314 -13.687   6.012  1.00  0.00     0.037 C 
BRANCH   7   9
HETATM    9  N   UNL     1      41.002 -13.880   3.640  1.00  0.00    -0.352 N 
HETATM   10  C   UNL     1      41.878 -13.576   2.627  1.00  0.00     0.225 C 
HETATM   11  O   UNL     1      43.072 -13.370   2.796  1.00  0.00    -0.273 OA
HETATM   12  H   UNL     1      40.028 -14.052   3.437  1.00  0.00     0.163 HD
BRANCH  10  13
HETATM   13  C   UNL     1      41.254 -13.467   1.288  1.00  0.00     0.119 A 
HETATM   14  C   UNL     1      40.385 -14.555   0.716  1.00  0.00     0.126 A 
HETATM   15 CL   UNL     1      40.076 -16.054   1.570  1.00  0.00    -0.101 Cl
HETATM   16 CL   UNL     1      39.017 -14.048  -0.284  1.00  0.00    -0.101 Cl
HETATM   17  C   UNL     1      41.761 -14.327   0.154  1.00  0.00     0.060 A 
ENDBRANCH  10  13
ENDBRANCH   7   9
ENDBRANCH   1   7
BRANCH   4  18
HETATM   18  O   UNL     1      43.494 -19.263   5.896  1.00  0.00    -0.347 OA
BRANCH  18  19
HETATM   19  C   UNL     1      44.756 -19.650   5.352  1.00  0.00     0.215 C 
BRANCH  19  20
HETATM   20  C   UNL     1      44.512 -20.428   4.088  1.00  0.00    -0.017 A 
HETATM   21  C   UNL     1      44.727 -21.801   4.030  1.00  0.00     0.125 A 
HETATM   22  N   UNL     1      44.492 -22.561   2.936  1.00  0.00    -0.272 NA
HETATM   23  C   UNL     1      44.023 -21.924   1.843  1.00  0.00     0.116 A 
HETATM   24  C   UNL     1      43.772 -20.564   1.792  1.00  0.00     0.020 A 
HETATM   25  C   UNL     1      44.018 -19.808   2.935  1.00  0.00     0.012 A 
ENDBRANCH  19  20
ENDBRANCH  18  19
ENDBRANCH   4  18
TORSDOF 6
ENDMDL
MODEL 4
REMARK VINA RESULT:      -7.4      7.189      9.126
REMARK  6 active torsions:
REMARK  status: ('A' for Active; 'I' for Inactive)
REMARK    1  A    between atoms: C_2  and  N_3 
REMARK    2  A    between atoms: C_2  and  C_11 
REMARK       I    between atoms: N_3  and  C_4 
REMARK    3  A    between atoms: C_4  and  C_5 
REMARK    4  A    between atoms: C_14  and  O_15 
REMARK    5  A    between atoms: O_15  and  C_16 
REMARK    6  A    between atoms: C_16  and  C_17 
ROOT
HETATM    1  C   UNL     1      44.112 -13.929   6.942  1.00  0.00    -0.036 A 
HETATM    2  C   UNL     1      43.163 -13.719   5.929  1.00  0.00     0.012 A 
HETATM    3  C   UNL     1      42.542 -14.798   5.287  1.00  0.00     0.037 A 
HETATM    4  C   UNL     1      42.861 -16.105   5.648  1.00  0.00     0.069 A 
HETATM    5  C   UNL     1      43.768 -16.322   6.686  1.00  0.00     0.037 A 
HETATM    6  C   UNL     1      44.386 -15.249   7.330  1.00  0.00     0.012 A 
ENDROOT
BRANCH   1   7
HETATM    7  C   UNL     1      44.783 -12.740   7.611  1.00  0.00     0.113 C 
HETATM    8  C   UNL     1      46.312 -12.863   7.611  1.00  0.00     0.037 C 
BRANCH   7   9
HETATM    9  N   UNL     1      44.250 -12.576   8.954  1.00  0.00    -0.352 N 
HETATM   10  C   UNL     1      44.499 -11.452   9.703  1.00  0.00     0.225 C 
HETATM   11  O   UNL     1      45.196 -10.520   9.326  1.00  0.00    -0.273 OA
HETATM   12  H   UNL     1      43.655 -13.307   9.315  1.00  0.00     0.163 HD
BRANCH  10  13
HETATM   13  C   UNL     1      43.887 -11.465  11.052  1.00  0.00     0.119 A 
HETATM   14  C   UNL     1      42.605 -10.737  11.359  1.00  0.00     0.126 A 
HETATM   15 CL   UNL     1      41.757  -9.785  10.157  1.00  0.00    -0.101 Cl
HETATM   16 CL   UNL     1      41.508 -11.497  12.520  1.00  0.00    -0.101 Cl
HETATM   17  C   UNL     1      43.906 -10.211  11.895  1.00  0.00     0.060 A 
ENDBRANCH  10  13
ENDBRANCH   7   9
ENDBRANCH   1   7
BRANCH   4  18
HETATM   18  O   UNL     1      42.356 -17.242   5.085  1.00  0.00    -0.347 OA
BRANCH  18  19
HETATM   19  C   UNL     1      42.463 -17.362   3.666  1.00  0.00     0.215 C 
BRANCH  19  20
HETATM   20  C   UNL     1      43.215 -18.624   3.348  1.00  0.00    -0.017 A 
HETATM   21  C   UNL     1      44.098 -19.191   4.262  1.00  0.00     0.125 A 
HETATM   22  N   UNL     1      44.775 -20.343   4.050  1.00  0.00    -0.272 NA
HETATM   23  C   UNL     1      44.566 -20.961   2.869  1.00  0.00     0.116 A 
HETATM   24  C   UNL     1      43.710 -20.487   1.891  1.00  0.00     0.020 A 
HETATM   25  C   UNL     1      43.022 -19.302   2.140  1.00  0.00     0.012 A 
ENDBRANCH  19  20
ENDBRANCH  18  19
ENDBRANCH   4  18
TORSDOF 6
ENDMDL
MODEL 5
REMARK VINA RESULT:      -7.2      4.189      8.168
REMARK  6 active torsions:
REMARK  status: ('A' for Active; 'I' for Inactive)
REMARK    1  A    between atoms: C_2  and  N_3 
REMARK    2  A    between atoms: C_2  and  C_11 
REMARK       I    between atoms: N_3  and  C_4 
REMARK    3  A    between atoms: C_4  and  C_5 
REMARK    4  A    between atoms: C_14  and  O_15 
REMARK    5  A    between atoms: O_15  and  C_16 
REMARK    6  A    between atoms: C_16  and  C_17 
ROOT
HETATM    1  C   UNL     1      42.942 -14.459   5.836  1.00  0.00    -0.036 A 
HETATM    2  C   UNL     1      41.594 -14.816   6.000  1.00  0.00     0.012 A 
HETATM    3  C   UNL     1      40.619 -14.393   5.086  1.00  0.00     0.037 A 
HETATM    4  C   UNL     1      40.979 -13.606   3.995  1.00  0.00     0.069 A 
HETATM    5  C   UNL     1      42.323 -13.287   3.799  1.00  0.00     0.037 A 
HETATM    6  C   UNL     1      43.297 -13.709   4.705  1.00  0.00     0.012 A 
ENDROOT
BRANCH   1   7
HETATM    7  C   UNL     1      43.976 -14.918   6.852  1.00  0.00     0.113 C 
HETATM    8  C   UNL     1      45.169 -13.957   6.938  1.00  0.00     0.037 C 
BRANCH   7   9
HETATM    9  N   UNL     1      44.393 -16.276   6.539  1.00  0.00    -0.352 N 
HETATM   10  C   UNL     1      43.995 -17.351   7.295  1.00  0.00     0.225 C 
HETATM   11  O   UNL     1      43.292 -17.263   8.292  1.00  0.00    -0.273 OA
HETATM   12  H   UNL     1      44.965 -16.414   5.718  1.00  0.00     0.163 HD
BRANCH  10  13
HETATM   13  C   UNL     1      44.527 -18.655   6.835  1.00  0.00     0.119 A 
HETATM   14  C   UNL     1      44.042 -19.322   5.576  1.00  0.00     0.126 A 
HETATM   15 CL   UNL     1      42.781 -18.629   4.575  1.00  0.00    -0.101 Cl
HETATM   16 CL   UNL     1      45.235 -20.227   4.635  1.00  0.00    -0.101 Cl
HETATM   17  C   UNL     1      43.658 -19.888   6.914  1.00  0.00     0.060 A 
ENDBRANCH  10  13
ENDBRANCH   7   9
ENDBRANCH   1   7
BRANCH   4  18
HETATM   18  O   UNL     1      40.130 -13.102   3.051  1.00  0.00    -0.347 OA
BRANCH  18  19
HETATM   19  C   UNL     1      39.233 -14.024   2.431  1.00  0.00     0.215 C 
BRANCH  19  20
HETATM   20  C   UNL     1      40.037 -14.991   1.606  1.00  0.00    -0.017 A 
HETATM   21  C   UNL     1      40.687 -14.586   0.446  1.00  0.00     0.125 A 
HETATM   22  N   UNL     1      41.454 -15.398  -0.318  1.00  0.00    -0.272 NA
HETATM   23  C   UNL     1      41.578 -16.678   0.091  1.00  0.00     0.116 A 
HETATM   24  C   UNL     1      40.976 -17.185   1.228  1.00  0.00     0.020 A 
HETATM   25  C   UNL     1      40.197 -16.324   1.998  1.00  0.00     0.012 A 
ENDBRANCH  19  20
ENDBRANCH  18  19
ENDBRANCH   4  18
TORSDOF 6
ENDMDL
MODEL 6
REMARK VINA RESULT:      -6.9      1.745      2.305
REMARK  6 active torsions:
REMARK  status: ('A' for Active; 'I' for Inactive)
REMARK    1  A    between atoms: C_2  and  N_3 
REMARK    2  A    between atoms: C_2  and  C_11 
REMARK       I    between atoms: N_3  and  C_4 
REMARK    3  A    between atoms: C_4  and  C_5 
REMARK    4  A    between atoms: C_14  and  O_15 
REMARK    5  A    between atoms: O_15  and  C_16 
REMARK    6  A    between atoms: C_16  and  C_17 
ROOT
HETATM    1  C   UNL     1      42.018 -14.123   2.005  1.00  0.00    -0.036 A 
HETATM    2  C   UNL     1      41.077 -15.144   1.793  1.00  0.00     0.012 A 
HETATM    3  C   UNL     1      41.218 -16.393   2.410  1.00  0.00     0.037 A 
HETATM    4  C   UNL     1      42.302 -16.642   3.248  1.00  0.00     0.069 A 
HETATM    5  C   UNL     1      43.216 -15.618   3.502  1.00  0.00     0.037 A 
HETATM    6  C   UNL     1      43.077 -14.370   2.891  1.00  0.00     0.012 A 
ENDROOT
BRANCH   1   7
HETATM    7  C   UNL     1      41.850 -12.781   1.309  1.00  0.00     0.113 C 
HETATM    8  C   UNL     1      41.180 -11.739   2.214  1.00  0.00     0.037 C 
BRANCH   7   9
HETATM    9  N   UNL     1      41.123 -12.969   0.064  1.00  0.00    -0.352 N 
HETATM   10  C   UNL     1      41.670 -12.646  -1.154  1.00  0.00     0.225 C 
HETATM   11  O   UNL     1      42.783 -12.159  -1.295  1.00  0.00    -0.273 OA
HETATM   12  H   UNL     1      40.202 -13.380   0.116  1.00  0.00     0.163 HD
BRANCH  10  13
HETATM   13  C   UNL     1      40.779 -12.892  -2.311  1.00  0.00     0.119 A 
HETATM   14  C   UNL     1      40.380 -14.280  -2.737  1.00  0.00     0.126 A 
HETATM   15 CL   UNL     1      40.970 -15.716  -1.923  1.00  0.00    -0.101 Cl
HETATM   16 CL   UNL     1      38.743 -14.486  -3.376  1.00  0.00    -0.101 Cl
HETATM   17  C   UNL     1      41.345 -13.491  -3.578  1.00  0.00     0.060 A 
ENDBRANCH  10  13
ENDBRANCH   7   9
ENDBRANCH   1   7
BRANCH   4  18
HETATM   18  O   UNL     1      42.574 -17.819   3.885  1.00  0.00    -0.347 OA
BRANCH  18  19
HETATM   19  C   UNL     1      43.949 -18.180   4.015  1.00  0.00     0.215 C 
BRANCH  19  20
HETATM   20  C   UNL     1      44.119 -19.595   3.535  1.00  0.00    -0.017 A 
HETATM   21  C   UNL     1      44.660 -20.578   4.358  1.00  0.00     0.125 A 
HETATM   22  N   UNL     1      44.805 -21.874   3.999  1.00  0.00    -0.272 NA
HETATM   23  C   UNL     1      44.394 -22.210   2.758  1.00  0.00     0.116 A 
HETATM   24  C   UNL     1      43.842 -21.314   1.861  1.00  0.00     0.020 A 
HETATM   25  C   UNL     1      43.700 -19.987   2.260  1.00  0.00     0.012 A 
ENDBRANCH  19  20
ENDBRANCH  18  19
ENDBRANCH   4  18
TORSDOF 6
ENDMDL
MODEL 7
REMARK VINA RESULT:      -6.9      7.256      9.395
REMARK  6 active torsions:
REMARK  status: ('A' for Active; 'I' for Inactive)
REMARK    1  A    between atoms: C_2  and  N_3 
REMARK    2  A    between atoms: C_2  and  C_11 
REMARK       I    between atoms: N_3  and  C_4 
REMARK    3  A    between atoms: C_4  and  C_5 
REMARK    4  A    between atoms: C_14  and  O_15 
REMARK    5  A    between atoms: O_15  and  C_16 
REMARK    6  A    between atoms: C_16  and  C_17 
ROOT
HETATM    1  C   UNL     1      43.841 -14.073   7.011  1.00  0.00    -0.036 A 
HETATM    2  C   UNL     1      42.841 -13.831   6.055  1.00  0.00     0.012 A 
HETATM    3  C   UNL     1      42.102 -14.884   5.501  1.00  0.00     0.037 A 
HETATM    4  C   UNL     1      42.352 -16.197   5.895  1.00  0.00     0.069 A 
HETATM    5  C   UNL     1      43.311 -16.442   6.879  1.00  0.00     0.037 A 
HETATM    6  C   UNL     1      44.047 -15.395   7.435  1.00  0.00     0.012 A 
ENDROOT
BRANCH   1   7
HETATM    7  C   UNL     1      44.640 -12.913   7.583  1.00  0.00     0.113 C 
HETATM    8  C   UNL     1      46.149 -13.090   7.374  1.00  0.00     0.037 C 
BRANCH   7   9
HETATM    9  N   UNL     1      44.302 -12.739   8.987  1.00  0.00    -0.352 N 
HETATM   10  C   UNL     1      43.772 -11.567   9.468  1.00  0.00     0.225 C 
HETATM   11  O   UNL     1      43.566 -10.578   8.779  1.00  0.00    -0.273 OA
HETATM   12  H   UNL     1      44.439 -13.528   9.604  1.00  0.00     0.163 HD
BRANCH  10  13
HETATM   13  C   UNL     1      43.504 -11.567  10.925  1.00  0.00     0.119 A 
HETATM   14  C   UNL     1      42.504 -10.635  11.557  1.00  0.00     0.126 A 
HETATM   15 CL   UNL     1      41.609  -9.451  10.627  1.00  0.00    -0.101 Cl
HETATM   16 CL   UNL     1      41.580 -11.260  12.930  1.00  0.00    -0.101 Cl
HETATM   17  C   UNL     1      43.974 -10.407  11.772  1.00  0.00     0.060 A 
ENDBRANCH  10  13
ENDBRANCH   7   9
ENDBRANCH   1   7
BRANCH   4  18
HETATM   18  O   UNL     1      41.730 -17.314   5.414  1.00  0.00    -0.347 OA
BRANCH  18  19
HETATM   19  C   UNL     1      42.550 -18.275   4.751  1.00  0.00     0.215 C 
BRANCH  19  20
HETATM   20  C   UNL     1      42.672 -17.883   3.304  1.00  0.00    -0.017 A 
HETATM   21  C   UNL     1      41.572 -17.432   2.581  1.00  0.00     0.125 A 
HETATM   22  N   UNL     1      41.624 -17.029   1.291  1.00  0.00    -0.272 NA
HETATM   23  C   UNL     1      42.830 -17.082   0.687  1.00  0.00     0.116 A 
HETATM   24  C   UNL     1      43.987 -17.512   1.311  1.00  0.00     0.020 A 
HETATM   25  C   UNL     1      43.903 -17.914   2.642  1.00  0.00     0.012 A 
ENDBRANCH  19  20
ENDBRANCH  18  19
ENDBRANCH   4  18
TORSDOF 6
ENDMDL
MODEL 8
REMARK VINA RESULT:      -6.9      6.319      8.091
REMARK  6 active torsions:
REMARK  status: ('A' for Active; 'I' for Inactive)
REMARK    1  A    between atoms: C_2  and  N_3 
REMARK    2  A    between atoms: C_2  and  C_11 
REMARK       I    between atoms: N_3  and  C_4 
REMARK    3  A    between atoms: C_4  and  C_5 
REMARK    4  A    between atoms: C_14  and  O_15 
REMARK    5  A    between atoms: O_15  and  C_16 
REMARK    6  A    between atoms: C_16  and  C_17 
ROOT
HETATM    1  C   UNL     1      41.517 -13.029   5.907  1.00  0.00    -0.036 A 
HETATM    2  C   UNL     1      40.452 -13.920   5.696  1.00  0.00     0.012 A 
HETATM    3  C   UNL     1      40.673 -15.194   5.159  1.00  0.00     0.037 A 
HETATM    4  C   UNL     1      41.964 -15.598   4.824  1.00  0.00     0.069 A 
HETATM    5  C   UNL     1      43.033 -14.737   5.074  1.00  0.00     0.037 A 
HETATM    6  C   UNL     1      42.817 -13.467   5.612  1.00  0.00     0.012 A 
ENDROOT
BRANCH   1   7
HETATM    7  C   UNL     1      41.247 -11.645   6.475  1.00  0.00     0.113 C 
HETATM    8  C   UNL     1      41.150 -10.577   5.378  1.00  0.00     0.037 C 
BRANCH   7   9
HETATM    9  N   UNL     1      42.264 -11.320   7.462  1.00  0.00    -0.352 N 
HETATM   10  C   UNL     1      41.940 -10.924   8.737  1.00  0.00     0.225 C 
HETATM   11  O   UNL     1      40.793 -10.786   9.139  1.00  0.00    -0.273 OA
HETATM   12  H   UNL     1      43.231 -11.427   7.192  1.00  0.00     0.163 HD
BRANCH  10  13
HETATM   13  C   UNL     1      43.105 -10.621   9.600  1.00  0.00     0.119 A 
HETATM   14  C   UNL     1      44.313 -11.519   9.663  1.00  0.00     0.126 A 
HETATM   15 CL   UNL     1      44.419 -13.012   8.752  1.00  0.00    -0.101 Cl
HETATM   16 CL   UNL     1      45.886 -10.736   9.870  1.00  0.00    -0.101 Cl
HETATM   17  C   UNL     1      43.365 -11.462  10.829  1.00  0.00     0.060 A 
ENDBRANCH  10  13
ENDBRANCH   7   9
ENDBRANCH   1   7
BRANCH   4  18
HETATM   18  O   UNL     1      42.314 -16.795   4.267  1.00  0.00    -0.347 OA
BRANCH  18  19
HETATM   19  C   UNL     1      43.425 -17.477   4.848  1.00  0.00     0.215 C 
BRANCH  19  20
HETATM   20  C   UNL     1      43.737 -18.684   4.007  1.00  0.00    -0.017 A 
HETATM   21  C   UNL     1      44.595 -19.681   4.463  1.00  0.00     0.125 A 
HETATM   22  N   UNL     1      44.886 -20.807   3.771  1.00  0.00    -0.272 NA
HETATM   23  C   UNL     1      44.298 -20.947   2.565  1.00  0.00     0.116 A 
HETATM   24  C   UNL     1      43.429 -20.020   2.018  1.00  0.00     0.020 A 
HETATM   25  C   UNL     1      43.144 -18.874   2.756  1.00  0.00     0.012 A 
ENDBRANCH  19  20
ENDBRANCH  18  19
ENDBRANCH   4  18
TORSDOF 6
ENDMDL
MODEL 9
REMARK VINA RESULT:      -6.8      2.228      2.985
REMARK  6 active torsions:
REMARK  status: ('A' for Active; 'I' for Inactive)
REMARK    1  A    between atoms: C_2  and  N_3 
REMARK    2  A    between atoms: C_2  and  C_11 
REMARK       I    between atoms: N_3  and  C_4 
REMARK    3  A    between atoms: C_4  and  C_5 
REMARK    4  A    between atoms: C_14  and  O_15 
REMARK    5  A    between atoms: O_15  and  C_16 
REMARK    6  A    between atoms: C_16  and  C_17 
ROOT
HETATM    1  C   UNL     1      42.118 -15.225   4.045  1.00  0.00    -0.036 A 
HETATM    2  C   UNL     1      41.392 -16.401   3.795  1.00  0.00     0.012 A 
HETATM    3  C   UNL     1      41.758 -17.615   4.389  1.00  0.00     0.037 A 
HETATM    4  C   UNL     1      42.856 -17.673   5.244  1.00  0.00     0.069 A 
HETATM    5  C   UNL     1      43.554 -16.501   5.536  1.00  0.00     0.037 A 
HETATM    6  C   UNL     1      43.191 -15.288   4.947  1.00  0.00     0.012 A 
ENDROOT
BRANCH   1   7
HETATM    7  C   UNL     1      41.710 -13.924   3.373  1.00  0.00     0.113 C 
HETATM    8  C   UNL     1      40.626 -13.180   4.164  1.00  0.00     0.037 C 
BRANCH   7   9
HETATM    9  N   UNL     1      41.297 -14.194   2.005  1.00  0.00    -0.352 N 
HETATM   10  C   UNL     1      41.733 -13.430   0.950  1.00  0.00     0.225 C 
HETATM   11  O   UNL     1      42.469 -12.460   1.067  1.00  0.00    -0.273 OA
HETATM   12  H   UNL     1      40.699 -14.992   1.845  1.00  0.00     0.163 HD
BRANCH  10  13
HETATM   13  C   UNL     1      41.199 -13.844  -0.368  1.00  0.00     0.119 A 
HETATM   14  C   UNL     1      41.700 -13.252  -1.659  1.00  0.00     0.126 A 
HETATM   15 CL   UNL     1      42.925 -12.000  -1.702  1.00  0.00    -0.101 Cl
HETATM   16 CL   UNL     1      41.782 -14.331  -3.059  1.00  0.00    -0.101 Cl
HETATM   17  C   UNL     1      40.330 -12.891  -1.156  1.00  0.00     0.060 A 
ENDBRANCH  10  13
ENDBRANCH   7   9
ENDBRANCH   1   7
BRANCH   4  18
HETATM   18  O   UNL     1      43.336 -18.792   5.862  1.00  0.00    -0.347 OA
BRANCH  18  19
HETATM   19  C   UNL     1      44.675 -19.178   5.550  1.00  0.00     0.215 C 
BRANCH  19  20
HETATM   20  C   UNL     1      44.628 -20.295   4.544  1.00  0.00    -0.017 A 
HETATM   21  C   UNL     1      44.769 -21.623   4.931  1.00  0.00     0.125 A 
HETATM   22  N   UNL     1      44.699 -22.674   4.082  1.00  0.00    -0.272 NA
HETATM   23  C   UNL     1      44.481 -22.389   2.781  1.00  0.00     0.116 A 
HETATM   24  C   UNL     1      44.325 -21.105   2.288  1.00  0.00     0.020 A 
HETATM   25  C   UNL     1      44.397 -20.045   3.188  1.00  0.00     0.012 A 
ENDBRANCH  19  20
ENDBRANCH  18  19
ENDBRANCH   4  18
TORSDOF 6
ENDMDL
MODEL 10
REMARK VINA RESULT:      -6.8      4.301      9.107
REMARK  6 active torsions:
REMARK  status: ('A' for Active; 'I' for Inactive)
REMARK    1  A    between atoms: C_2  and  N_3 
REMARK    2  A    between atoms: C_2  and  C_11 
REMARK       I    between atoms: N_3  and  C_4 
REMARK    3  A    between atoms: C_4  and  C_5 
REMARK    4  A    between atoms: C_14  and  O_15 
REMARK    5  A    between atoms: O_15  and  C_16 
REMARK    6  A    between atoms: C_16  and  C_17 
ROOT
HETATM    1  C   UNL     1      43.044 -17.376   2.140  1.00  0.00    -0.036 A 
HETATM    2  C   UNL     1      43.228 -16.000   2.350  1.00  0.00     0.012 A 
HETATM    3  C   UNL     1      42.448 -15.055   1.670  1.00  0.00     0.037 A 
HETATM    4  C   UNL     1      41.471 -15.473   0.769  1.00  0.00     0.069 A 
HETATM    5  C   UNL     1      41.250 -16.839   0.590  1.00  0.00     0.037 A 
HETATM    6  C   UNL     1      42.023 -17.783   1.268  1.00  0.00     0.012 A 
ENDROOT
BRANCH   1   7
HETATM    7  C   UNL     1      43.916 -18.379   2.878  1.00  0.00     0.113 C 
HETATM    8  C   UNL     1      43.512 -19.829   2.578  1.00  0.00     0.037 C 
BRANCH   7   9
HETATM    9  N   UNL     1      43.886 -18.090   4.303  1.00  0.00    -0.352 N 
HETATM   10  C   UNL     1      44.665 -18.778   5.201  1.00  0.00     0.225 C 
HETATM   11  O   UNL     1      45.417 -19.693   4.893  1.00  0.00    -0.273 OA
HETATM   12  H   UNL     1      43.292 -17.336   4.616  1.00  0.00     0.163 HD
BRANCH  10  13
HETATM   13  C   UNL     1      44.492 -18.358   6.611  1.00  0.00     0.119 A 
HETATM   14  C   UNL     1      43.969 -19.292   7.669  1.00  0.00     0.126 A 
HETATM   15 CL   UNL     1      43.484 -20.937   7.310  1.00  0.00    -0.101 Cl
HETATM   16 CL   UNL     1      44.644 -19.123   9.296  1.00  0.00    -0.101 Cl
HETATM   17  C   UNL     1      43.102 -18.170   7.172  1.00  0.00     0.060 A 
ENDBRANCH  10  13
ENDBRANCH   7   9
ENDBRANCH   1   7
BRANCH   4  18
HETATM   18  O   UNL     1      40.667 -14.661   0.021  1.00  0.00    -0.347 OA
BRANCH  18  19
HETATM   19  C   UNL     1      41.147 -14.291  -1.271  1.00  0.00     0.215 C 
BRANCH  19  20
HETATM   20  C   UNL     1      40.140 -14.728  -2.299  1.00  0.00    -0.017 A 
HETATM   21  C   UNL     1      40.401 -15.789  -3.161  1.00  0.00     0.125 A 
HETATM   22  N   UNL     1      39.523 -16.254  -4.080  1.00  0.00    -0.272 NA
HETATM   23  C   UNL     1      38.328 -15.631  -4.148  1.00  0.00     0.116 A 
HETATM   24  C   UNL     1      37.965 -14.570  -3.338  1.00  0.00     0.020 A 
HETATM   25  C   UNL     1      38.887 -14.117  -2.397  1.00  0.00     0.012 A 
ENDBRANCH  19  20
ENDBRANCH  18  19
ENDBRANCH   4  18
TORSDOF 6
ENDMDL
