MODEL 1
REMARK VINA RESULT:      -8.1      0.000      0.000
REMARK  6 active torsions:
REMARK  status: ('A' for Active; 'I' for Inactive)
REMARK    1  A    between atoms: C_2  and  N_3 
REMARK    2  A    between atoms: N_3  and  C_5 
REMARK    3  A    between atoms: N_3  and  C_28 
REMARK    4  A    between atoms: C_8  and  C_9 
REMARK    5  A    between atoms: N_10  and  C_11 
REMARK    6  A    between atoms: C_11  and  C_12 
ROOT
HETATM    1  C   UNL     1      42.204 -17.871   2.637  1.00  0.00     0.199 C 
HETATM    2  N   UNL     1      43.262 -17.383   3.505  1.00  0.00    -0.321 N 
HETATM    3  C   UNL     1      44.010 -18.323   4.212  1.00  0.00     0.257 C 
HETATM    4  O   UNL     1      44.633 -18.065   5.237  1.00  0.00    -0.267 OA
HETATM    5  C   UNL     1      44.064 -19.687   3.642  1.00  0.00     0.053 A 
HETATM    6  C   UNL     1      43.438 -19.913   2.412  1.00  0.00     0.026 A 
HETATM    7  N   UNL     1      42.762 -18.877   1.740  1.00  0.00    -0.266 NA
HETATM    8  C   UNL     1      44.778 -20.701   4.290  1.00  0.00     0.019 A 
HETATM    9  C   UNL     1      44.908 -21.949   3.683  1.00  0.00     0.001 A 
HETATM   10  C   UNL     1      44.345 -22.168   2.427  1.00  0.00     0.002 A 
HETATM   11  C   UNL     1      43.626 -21.152   1.789  1.00  0.00     0.024 A 
HETATM   12  H   UNL     1      42.067 -19.252   1.101  1.00  0.00     0.130 HD
ENDROOT
BRANCH   1  13
HETATM   13  C   UNL     1      41.524 -16.813   1.773  1.00  0.00    -0.021 A 
HETATM   14  C   UNL     1      42.177 -16.229   0.679  1.00  0.00     0.013 A 
HETATM   15  C   UNL     1      41.575 -15.192  -0.044  1.00  0.00     0.038 A 
HETATM   16  C   UNL     1      40.281 -14.753   0.268  1.00  0.00     0.134 A 
HETATM   17  C   UNL     1      39.609 -15.365   1.330  1.00  0.00     0.038 A 
HETATM   18  C   UNL     1      40.227 -16.376   2.079  1.00  0.00     0.013 A 
BRANCH  16  19
HETATM   19  N   UNL     1      39.712 -13.608  -0.511  1.00  0.00    -0.042 N 
HETATM   20  H   UNL     1      39.847 -12.801   0.114  1.00  0.00     0.286 HD
BRANCH  19  21
HETATM   21  C   UNL     1      38.225 -13.660  -0.793  1.00  0.00     0.237 C 
HETATM   22  C   UNL     1      37.467 -12.636   0.034  1.00  0.00     0.035 C 
ENDBRANCH  19  21
BRANCH  19  23
HETATM   23  C   UNL     1      40.519 -13.296  -1.760  1.00  0.00     0.237 C 
HETATM   24  C   UNL     1      39.831 -13.738  -3.038  1.00  0.00     0.035 C 
ENDBRANCH  19  23
ENDBRANCH  16  19
ENDBRANCH   1  13
BRANCH   2  25
HETATM   25  C   UNL     1      43.247 -16.021   4.026  1.00  0.00     0.193 C 
BRANCH  25  26
HETATM   26  C   UNL     1      42.039 -15.741   4.847  1.00  0.00     0.070 A 
HETATM   27  O   UNL     1      41.472 -14.505   4.701  1.00  0.00    -0.325 OA
HETATM   28  C   UNL     1      40.453 -14.431   5.594  1.00  0.00     0.142 A 
HETATM   29  C   UNL     1      40.338 -15.609   6.295  1.00  0.00     0.027 A 
HETATM   30  C   UNL     1      41.362 -16.458   5.811  1.00  0.00     0.036 A 
ENDBRANCH  25  26
ENDBRANCH   2  25
TORSDOF 6
ENDMDL
MODEL 2
REMARK VINA RESULT:      -8.0      0.726      1.523
REMARK  6 active torsions:
REMARK  status: ('A' for Active; 'I' for Inactive)
REMARK    1  A    between atoms: C_2  and  N_3 
REMARK    2  A    between atoms: N_3  and  C_5 
REMARK    3  A    between atoms: N_3  and  C_28 
REMARK    4  A    between atoms: C_8  and  C_9 
REMARK    5  A    between atoms: N_10  and  C_11 
REMARK    6  A    between atoms: C_11  and  C_12 
ROOT
HETATM    1  C   UNL     1      42.206 -17.701   2.667  1.00  0.00     0.199 C 
HETATM    2  N   UNL     1      43.257 -17.260   3.566  1.00  0.00    -0.321 N 
HETATM    3  C   UNL     1      43.973 -18.234   4.260  1.00  0.00     0.257 C 
HETATM    4  O   UNL     1      44.582 -18.018   5.303  1.00  0.00    -0.267 OA
HETATM    5  C   UNL     1      44.011 -19.583   3.654  1.00  0.00     0.053 A 
HETATM    6  C   UNL     1      43.403 -19.761   2.406  1.00  0.00     0.026 A 
HETATM    7  N   UNL     1      42.761 -18.693   1.752  1.00  0.00    -0.266 NA
HETATM    8  C   UNL     1      44.692 -20.629   4.286  1.00  0.00     0.019 A 
HETATM    9  C   UNL     1      44.808 -21.862   3.646  1.00  0.00     0.001 A 
HETATM   10  C   UNL     1      44.265 -22.035   2.374  1.00  0.00     0.002 A 
HETATM   11  C   UNL     1      43.578 -20.986   1.752  1.00  0.00     0.024 A 
HETATM   12  H   UNL     1      42.071 -19.036   1.090  1.00  0.00     0.130 HD
ENDROOT
BRANCH   1  13
HETATM   13  C   UNL     1      41.564 -16.606   1.820  1.00  0.00    -0.021 A 
HETATM   14  C   UNL     1      40.254 -16.168   2.058  1.00  0.00     0.013 A 
HETATM   15  C   UNL     1      39.647 -15.232   1.212  1.00  0.00     0.038 A 
HETATM   16  C   UNL     1      40.354 -14.662   0.144  1.00  0.00     0.134 A 
HETATM   17  C   UNL     1      41.676 -15.063  -0.068  1.00  0.00     0.038 A 
HETATM   18  C   UNL     1      42.270 -16.030   0.754  1.00  0.00     0.013 A 
BRANCH  16  19
HETATM   19  N   UNL     1      39.634 -13.703  -0.753  1.00  0.00    -0.042 N 
HETATM   20  H   UNL     1      38.746 -13.533  -0.260  1.00  0.00     0.286 HD
BRANCH  19  21
HETATM   21  C   UNL     1      39.247 -14.224  -2.121  1.00  0.00     0.237 C 
HETATM   22  C   UNL     1      40.190 -13.713  -3.196  1.00  0.00     0.035 C 
ENDBRANCH  19  21
BRANCH  19  23
HETATM   23  C   UNL     1      40.322 -12.351  -0.830  1.00  0.00     0.237 C 
HETATM   24  C   UNL     1      40.265 -11.580   0.476  1.00  0.00     0.035 C 
ENDBRANCH  19  23
ENDBRANCH  16  19
ENDBRANCH   1  13
BRANCH   2  25
HETATM   25  C   UNL     1      43.260 -15.912   4.125  1.00  0.00     0.193 C 
BRANCH  25  26
HETATM   26  C   UNL     1      42.019 -15.612   4.886  1.00  0.00     0.070 A 
HETATM   27  O   UNL     1      41.520 -14.344   4.770  1.00  0.00    -0.325 OA
HETATM   28  C   UNL     1      40.453 -14.261   5.604  1.00  0.00     0.142 A 
HETATM   29  C   UNL     1      40.239 -15.464   6.237  1.00  0.00     0.027 A 
HETATM   30  C   UNL     1      41.251 -16.340   5.771  1.00  0.00     0.036 A 
ENDBRANCH  25  26
ENDBRANCH   2  25
TORSDOF 6
ENDMDL
MODEL 3
REMARK VINA RESULT:      -7.9      2.492      4.819
REMARK  6 active torsions:
REMARK  status: ('A' for Active; 'I' for Inactive)
REMARK    1  A    between atoms: C_2  and  N_3 
REMARK    2  A    between atoms: N_3  and  C_5 
REMARK    3  A    between atoms: N_3  and  C_28 
REMARK    4  A    between atoms: C_8  and  C_9 
REMARK    5  A    between atoms: N_10  and  C_11 
REMARK    6  A    between atoms: C_11  and  C_12 
ROOT
HETATM    1  C   UNL     1      43.330 -16.641   4.944  1.00  0.00     0.199 C 
HETATM    2  N   UNL     1      43.291 -17.028   3.545  1.00  0.00    -0.321 N 
HETATM    3  C   UNL     1      43.935 -18.208   3.177  1.00  0.00     0.257 C 
HETATM    4  O   UNL     1      44.318 -18.447   2.036  1.00  0.00    -0.267 OA
HETATM    5  C   UNL     1      44.115 -19.221   4.240  1.00  0.00     0.053 A 
HETATM    6  C   UNL     1      43.562 -18.961   5.499  1.00  0.00     0.026 A 
HETATM    7  N   UNL     1      42.867 -17.764   5.753  1.00  0.00    -0.266 NA
HETATM    8  C   UNL     1      44.765 -20.430   3.969  1.00  0.00     0.019 A 
HETATM    9  C   UNL     1      44.827 -21.416   4.953  1.00  0.00     0.001 A 
HETATM   10  C   UNL     1      44.224 -21.196   6.190  1.00  0.00     0.002 A 
HETATM   11  C   UNL     1      43.583 -19.982   6.456  1.00  0.00     0.024 A 
HETATM   12  H   UNL     1      42.866 -17.550   6.746  1.00  0.00     0.130 HD
ENDROOT
BRANCH   1  13
HETATM   13  C   UNL     1      42.480 -15.429   5.314  1.00  0.00    -0.021 A 
HETATM   14  C   UNL     1      41.120 -15.556   5.630  1.00  0.00     0.013 A 
HETATM   15  C   UNL     1      40.333 -14.424   5.873  1.00  0.00     0.038 A 
HETATM   16  C   UNL     1      40.896 -13.140   5.867  1.00  0.00     0.134 A 
HETATM   17  C   UNL     1      42.261 -13.014   5.596  1.00  0.00     0.038 A 
HETATM   18  C   UNL     1      43.041 -14.144   5.313  1.00  0.00     0.013 A 
BRANCH  16  19
HETATM   19  N   UNL     1      39.991 -11.967   6.085  1.00  0.00    -0.042 N 
HETATM   20  H   UNL     1      39.069 -12.399   6.240  1.00  0.00     0.286 HD
BRANCH  19  21
HETATM   21  C   UNL     1      39.810 -11.031   4.909  1.00  0.00     0.237 C 
HETATM   22  C   UNL     1      38.674 -11.485   4.009  1.00  0.00     0.035 C 
ENDBRANCH  19  21
BRANCH  19  23
HETATM   23  C   UNL     1      40.310 -11.218   7.368  1.00  0.00     0.237 C 
HETATM   24  C   UNL     1      39.295 -11.466   8.468  1.00  0.00     0.035 C 
ENDBRANCH  19  23
ENDBRANCH  16  19
ENDBRANCH   1  13
BRANCH   2  25
HETATM   25  C   UNL     1      43.058 -16.045   2.493  1.00  0.00     0.193 C 
BRANCH  25  26
HETATM   26  C   UNL     1      41.610 -15.804   2.252  1.00  0.00     0.070 A 
HETATM   27  O   UNL     1      41.203 -14.500   2.220  1.00  0.00    -0.325 OA
HETATM   28  C   UNL     1      39.853 -14.512   2.079  1.00  0.00     0.142 A 
HETATM   29  C   UNL     1      39.387 -15.803   1.994  1.00  0.00     0.027 A 
HETATM   30  C   UNL     1      40.524 -16.641   2.103  1.00  0.00     0.036 A 
ENDBRANCH  25  26
ENDBRANCH   2  25
TORSDOF 6
ENDMDL
MODEL 4
REMARK VINA RESULT:      -7.9      2.017      7.106
REMARK  6 active torsions:
REMARK  status: ('A' for Active; 'I' for Inactive)
REMARK    1  A    between atoms: C_2  and  N_3 
REMARK    2  A    between atoms: N_3  and  C_5 
REMARK    3  A    between atoms: N_3  and  C_28 
REMARK    4  A    between atoms: C_8  and  C_9 
REMARK    5  A    between atoms: N_10  and  C_11 
REMARK    6  A    between atoms: C_11  and  C_12 
ROOT
HETATM    1  C   UNL     1      41.869 -15.457   2.175  1.00  0.00     0.199 C 
HETATM    2  N   UNL     1      41.989 -14.529   3.285  1.00  0.00    -0.321 N 
HETATM    3  C   UNL     1      41.248 -13.349   3.231  1.00  0.00     0.257 C 
HETATM    4  O   UNL     1      41.535 -12.336   3.861  1.00  0.00    -0.267 OA
HETATM    5  C   UNL     1      40.033 -13.371   2.388  1.00  0.00     0.053 A 
HETATM    6  C   UNL     1      39.675 -14.579   1.779  1.00  0.00     0.026 A 
HETATM    7  N   UNL     1      40.455 -15.738   1.950  1.00  0.00    -0.266 NA
HETATM    8  C   UNL     1      39.235 -12.229   2.259  1.00  0.00     0.019 A 
HETATM    9  C   UNL     1      38.037 -12.301   1.550  1.00  0.00     0.001 A 
HETATM   10  C   UNL     1      37.635 -13.514   0.993  1.00  0.00     0.002 A 
HETATM   11  C   UNL     1      38.443 -14.649   1.119  1.00  0.00     0.024 A 
HETATM   12  H   UNL     1      40.308 -16.390   1.186  1.00  0.00     0.130 HD
ENDROOT
BRANCH   1  13
HETATM   13  C   UNL     1      42.578 -16.796   2.359  1.00  0.00    -0.021 A 
HETATM   14  C   UNL     1      42.097 -17.763   3.253  1.00  0.00     0.013 A 
HETATM   15  C   UNL     1      42.812 -18.945   3.481  1.00  0.00     0.038 A 
HETATM   16  C   UNL     1      43.993 -19.220   2.778  1.00  0.00     0.134 A 
HETATM   17  C   UNL     1      44.452 -18.277   1.853  1.00  0.00     0.038 A 
HETATM   18  C   UNL     1      43.757 -17.076   1.654  1.00  0.00     0.013 A 
BRANCH  16  19
HETATM   19  N   UNL     1      44.737 -20.478   3.102  1.00  0.00    -0.042 N 
HETATM   20  H   UNL     1      45.595 -20.403   2.537  1.00  0.00     0.286 HD
BRANCH  19  21
HETATM   21  C   UNL     1      44.081 -21.775   2.676  1.00  0.00     0.237 C 
HETATM   22  C   UNL     1      43.931 -21.851   1.167  1.00  0.00     0.035 C 
ENDBRANCH  19  21
BRANCH  19  23
HETATM   23  C   UNL     1      45.204 -20.522   4.547  1.00  0.00     0.237 C 
HETATM   24  C   UNL     1      44.850 -21.821   5.246  1.00  0.00     0.035 C 
ENDBRANCH  19  23
ENDBRANCH  16  19
ENDBRANCH   1  13
BRANCH   2  25
HETATM   25  C   UNL     1      43.158 -14.537   4.157  1.00  0.00     0.193 C 
BRANCH  25  26
HETATM   26  C   UNL     1      42.975 -15.416   5.343  1.00  0.00     0.070 A 
HETATM   27  O   UNL     1      44.057 -16.158   5.728  1.00  0.00    -0.325 OA
HETATM   28  C   UNL     1      43.650 -16.943   6.757  1.00  0.00     0.142 A 
HETATM   29  C   UNL     1      42.330 -16.700   7.059  1.00  0.00     0.027 A 
HETATM   30  C   UNL     1      41.893 -15.710   6.146  1.00  0.00     0.036 A 
ENDBRANCH  25  26
ENDBRANCH   2  25
TORSDOF 6
ENDMDL
MODEL 5
REMARK VINA RESULT:      -7.6      2.071      7.193
REMARK  6 active torsions:
REMARK  status: ('A' for Active; 'I' for Inactive)
REMARK    1  A    between atoms: C_2  and  N_3 
REMARK    2  A    between atoms: N_3  and  C_5 
REMARK    3  A    between atoms: N_3  and  C_28 
REMARK    4  A    between atoms: C_8  and  C_9 
REMARK    5  A    between atoms: N_10  and  C_11 
REMARK    6  A    between atoms: C_11  and  C_12 
ROOT
HETATM    1  C   UNL     1      41.646 -15.523   0.750  1.00  0.00     0.199 C 
HETATM    2  N   UNL     1      40.289 -15.233   1.177  1.00  0.00    -0.321 N 
HETATM    3  C   UNL     1      39.560 -14.299   0.443  1.00  0.00     0.257 C 
HETATM    4  O   UNL     1      38.600 -13.679   0.891  1.00  0.00    -0.267 OA
HETATM    5  C   UNL     1      39.971 -14.098  -0.964  1.00  0.00     0.053 A 
HETATM    6  C   UNL     1      40.994 -14.906  -1.473  1.00  0.00     0.026 A 
HETATM    7  N   UNL     1      41.625 -15.872  -0.667  1.00  0.00    -0.266 NA
HETATM    8  C   UNL     1      39.309 -13.170  -1.774  1.00  0.00     0.019 A 
HETATM    9  C   UNL     1      39.638 -13.074  -3.126  1.00  0.00     0.001 A 
HETATM   10  C   UNL     1      40.609 -13.919  -3.661  1.00  0.00     0.002 A 
HETATM   11  C   UNL     1      41.273 -14.838  -2.843  1.00  0.00     0.024 A 
HETATM   12  H   UNL     1      42.550 -16.093  -1.023  1.00  0.00     0.130 HD
ENDROOT
BRANCH   1  13
HETATM   13  C   UNL     1      42.338 -16.662   1.492  1.00  0.00    -0.021 A 
HETATM   14  C   UNL     1      42.023 -18.004   1.236  1.00  0.00     0.013 A 
HETATM   15  C   UNL     1      42.598 -19.031   1.993  1.00  0.00     0.038 A 
HETATM   16  C   UNL     1      43.548 -18.750   2.985  1.00  0.00     0.134 A 
HETATM   17  C   UNL     1      43.898 -17.416   3.212  1.00  0.00     0.038 A 
HETATM   18  C   UNL     1      43.293 -16.384   2.481  1.00  0.00     0.013 A 
BRANCH  16  19
HETATM   19  N   UNL     1      44.089 -19.889   3.793  1.00  0.00    -0.042 N 
HETATM   20  H   UNL     1      43.243 -20.384   4.108  1.00  0.00     0.286 HD
BRANCH  19  21
HETATM   21  C   UNL     1      44.839 -19.519   5.055  1.00  0.00     0.237 C 
HETATM   22  C   UNL     1      43.984 -19.734   6.292  1.00  0.00     0.035 C 
ENDBRANCH  19  21
BRANCH  19  23
HETATM   23  C   UNL     1      44.855 -20.891   2.946  1.00  0.00     0.237 C 
HETATM   24  C   UNL     1      44.487 -22.331   3.253  1.00  0.00     0.035 C 
ENDBRANCH  19  23
ENDBRANCH  16  19
ENDBRANCH   1  13
BRANCH   2  25
HETATM   25  C   UNL     1      39.857 -15.480   2.548  1.00  0.00     0.193 C 
BRANCH  25  26
HETATM   26  C   UNL     1      40.304 -14.415   3.485  1.00  0.00     0.070 A 
HETATM   27  O   UNL     1      39.654 -14.341   4.685  1.00  0.00    -0.325 OA
HETATM   28  C   UNL     1      40.150 -13.260   5.337  1.00  0.00     0.142 A 
HETATM   29  C   UNL     1      41.130 -12.651   4.587  1.00  0.00     0.027 A 
HETATM   30  C   UNL     1      41.231 -13.399   3.389  1.00  0.00     0.036 A 
ENDBRANCH  25  26
ENDBRANCH   2  25
TORSDOF 6
ENDMDL
MODEL 6
REMARK VINA RESULT:      -7.4      1.792      2.326
REMARK  6 active torsions:
REMARK  status: ('A' for Active; 'I' for Inactive)
REMARK    1  A    between atoms: C_2  and  N_3 
REMARK    2  A    between atoms: N_3  and  C_5 
REMARK    3  A    between atoms: N_3  and  C_28 
REMARK    4  A    between atoms: C_8  and  C_9 
REMARK    5  A    between atoms: N_10  and  C_11 
REMARK    6  A    between atoms: C_11  and  C_12 
ROOT
HETATM    1  C   UNL     1      42.297 -18.088   3.927  1.00  0.00     0.199 C 
HETATM    2  N   UNL     1      42.684 -17.837   5.304  1.00  0.00    -0.321 N 
HETATM    3  C   UNL     1      43.207 -18.900   6.038  1.00  0.00     0.257 C 
HETATM    4  O   UNL     1      43.201 -18.949   7.264  1.00  0.00    -0.267 OA
HETATM    5  C   UNL     1      43.831 -19.994   5.262  1.00  0.00     0.053 A 
HETATM    6  C   UNL     1      43.923 -19.848   3.874  1.00  0.00     0.026 A 
HETATM    7  N   UNL     1      43.422 -18.701   3.230  1.00  0.00    -0.266 NA
HETATM    8  C   UNL     1      44.369 -21.111   5.912  1.00  0.00     0.019 A 
HETATM    9  C   UNL     1      45.049 -22.077   5.172  1.00  0.00     0.001 A 
HETATM   10  C   UNL     1      45.205 -21.912   3.797  1.00  0.00     0.002 A 
HETATM   11  C   UNL     1      44.657 -20.797   3.154  1.00  0.00     0.024 A 
HETATM   12  H   UNL     1      43.213 -18.895   2.255  1.00  0.00     0.130 HD
ENDROOT
BRANCH   1  13
HETATM   13  C   UNL     1      41.879 -16.857   3.129  1.00  0.00    -0.021 A 
HETATM   14  C   UNL     1      40.540 -16.629   2.778  1.00  0.00     0.013 A 
HETATM   15  C   UNL     1      40.188 -15.547   1.964  1.00  0.00     0.038 A 
HETATM   16  C   UNL     1      41.153 -14.628   1.529  1.00  0.00     0.134 A 
HETATM   17  C   UNL     1      42.482 -14.826   1.915  1.00  0.00     0.038 A 
HETATM   18  C   UNL     1      42.841 -15.933   2.697  1.00  0.00     0.013 A 
BRANCH  16  19
HETATM   19  N   UNL     1      40.720 -13.519   0.621  1.00  0.00    -0.042 N 
HETATM   20  H   UNL     1      41.025 -12.668   1.117  1.00  0.00     0.286 HD
BRANCH  19  21
HETATM   21  C   UNL     1      39.228 -13.360   0.419  1.00  0.00     0.237 C 
HETATM   22  C   UNL     1      38.819 -13.719  -0.999  1.00  0.00     0.035 C 
ENDBRANCH  19  21
BRANCH  19  23
HETATM   23  C   UNL     1      41.479 -13.515  -0.695  1.00  0.00     0.237 C 
HETATM   24  C   UNL     1      42.293 -12.252  -0.908  1.00  0.00     0.035 C 
ENDBRANCH  19  23
ENDBRANCH  16  19
ENDBRANCH   1  13
BRANCH   2  25
HETATM   25  C   UNL     1      42.116 -16.726   6.061  1.00  0.00     0.193 C 
BRANCH  25  26
HETATM   26  C   UNL     1      43.110 -15.651   6.321  1.00  0.00     0.070 A 
HETATM   27  O   UNL     1      42.821 -14.414   5.815  1.00  0.00    -0.325 OA
HETATM   28  C   UNL     1      43.886 -13.618   6.087  1.00  0.00     0.142 A 
HETATM   29  C   UNL     1      44.846 -14.315   6.783  1.00  0.00     0.027 A 
HETATM   30  C   UNL     1      44.344 -15.631   6.937  1.00  0.00     0.036 A 
ENDBRANCH  25  26
ENDBRANCH   2  25
TORSDOF 6
ENDMDL
MODEL 7
REMARK VINA RESULT:      -7.4      4.260      7.372
REMARK  6 active torsions:
REMARK  status: ('A' for Active; 'I' for Inactive)
REMARK    1  A    between atoms: C_2  and  N_3 
REMARK    2  A    between atoms: N_3  and  C_5 
REMARK    3  A    between atoms: N_3  and  C_28 
REMARK    4  A    between atoms: C_8  and  C_9 
REMARK    5  A    between atoms: N_10  and  C_11 
REMARK    6  A    between atoms: C_11  and  C_12 
ROOT
HETATM    1  C   UNL     1      42.764 -12.207   6.645  1.00  0.00     0.199 C 
HETATM    2  N   UNL     1      43.749 -13.083   7.252  1.00  0.00    -0.321 N 
HETATM    3  C   UNL     1      44.493 -12.587   8.321  1.00  0.00     0.257 C 
HETATM    4  O   UNL     1      45.584 -13.036   8.659  1.00  0.00    -0.267 OA
HETATM    5  C   UNL     1      43.883 -11.482   9.093  1.00  0.00     0.053 A 
HETATM    6  C   UNL     1      42.588 -11.076   8.751  1.00  0.00     0.026 A 
HETATM    7  N   UNL     1      41.891 -11.689   7.693  1.00  0.00    -0.266 NA
HETATM    8  C   UNL     1      44.562 -10.909  10.174  1.00  0.00     0.019 A 
HETATM    9  C   UNL     1      43.925  -9.946  10.955  1.00  0.00     0.001 A 
HETATM   10  C   UNL     1      42.612  -9.578  10.667  1.00  0.00     0.002 A 
HETATM   11  C   UNL     1      41.943 -10.150   9.579  1.00  0.00     0.024 A 
HETATM   12  H   UNL     1      41.173 -11.071   7.327  1.00  0.00     0.130 HD
ENDROOT
BRANCH   1  13
HETATM   13  C   UNL     1      41.875 -12.852   5.586  1.00  0.00    -0.021 A 
HETATM   14  C   UNL     1      40.671 -13.485   5.926  1.00  0.00     0.013 A 
HETATM   15  C   UNL     1      39.916 -14.155   4.956  1.00  0.00     0.038 A 
HETATM   16  C   UNL     1      40.312 -14.159   3.611  1.00  0.00     0.134 A 
HETATM   17  C   UNL     1      41.488 -13.490   3.261  1.00  0.00     0.038 A 
HETATM   18  C   UNL     1      42.265 -12.853   4.239  1.00  0.00     0.013 A 
BRANCH  16  19
HETATM   19  N   UNL     1      39.488 -14.934   2.630  1.00  0.00    -0.042 N 
HETATM   20  H   UNL     1      38.800 -15.420   3.224  1.00  0.00     0.286 HD
BRANCH  19  21
HETATM   21  C   UNL     1      40.206 -16.025   1.863  1.00  0.00     0.237 C 
HETATM   22  C   UNL     1      40.895 -17.001   2.801  1.00  0.00     0.035 C 
ENDBRANCH  19  21
BRANCH  19  23
HETATM   23  C   UNL     1      38.673 -14.035   1.716  1.00  0.00     0.237 C 
HETATM   24  C   UNL     1      39.135 -14.081   0.271  1.00  0.00     0.035 C 
ENDBRANCH  19  23
ENDBRANCH  16  19
ENDBRANCH   1  13
BRANCH   2  25
HETATM   25  C   UNL     1      44.316 -14.210   6.518  1.00  0.00     0.193 C 
BRANCH  25  26
HETATM   26  C   UNL     1      43.668 -15.501   6.871  1.00  0.00     0.070 A 
HETATM   27  O   UNL     1      43.910 -15.985   8.126  1.00  0.00    -0.325 OA
HETATM   28  C   UNL     1      43.305 -17.197   8.205  1.00  0.00     0.142 A 
HETATM   29  C   UNL     1      42.654 -17.490   7.029  1.00  0.00     0.027 A 
HETATM   30  C   UNL     1      42.886 -16.391   6.165  1.00  0.00     0.036 A 
ENDBRANCH  25  26
ENDBRANCH   2  25
TORSDOF 6
ENDMDL
MODEL 8
REMARK VINA RESULT:      -7.3      1.520      2.400
REMARK  6 active torsions:
REMARK  status: ('A' for Active; 'I' for Inactive)
REMARK    1  A    between atoms: C_2  and  N_3 
REMARK    2  A    between atoms: N_3  and  C_5 
REMARK    3  A    between atoms: N_3  and  C_28 
REMARK    4  A    between atoms: C_8  and  C_9 
REMARK    5  A    between atoms: N_10  and  C_11 
REMARK    6  A    between atoms: C_11  and  C_12 
ROOT
HETATM    1  C   UNL     1      41.531 -16.239   2.003  1.00  0.00     0.199 C 
HETATM    2  N   UNL     1      42.428 -15.481   2.857  1.00  0.00    -0.321 N 
HETATM    3  C   UNL     1      43.154 -16.177   3.822  1.00  0.00     0.257 C 
HETATM    4  O   UNL     1      43.619 -15.656   4.831  1.00  0.00    -0.267 OA
HETATM    5  C   UNL     1      43.390 -17.614   3.561  1.00  0.00     0.053 A 
HETATM    6  C   UNL     1      42.945 -18.145   2.345  1.00  0.00     0.026 A 
HETATM    7  N   UNL     1      42.278 -17.340   1.402  1.00  0.00    -0.266 NA
HETATM    8  C   UNL     1      44.095 -18.398   4.480  1.00  0.00     0.019 A 
HETATM    9  C   UNL     1      44.402 -19.721   4.166  1.00  0.00     0.001 A 
HETATM   10  C   UNL     1      44.023 -20.244   2.931  1.00  0.00     0.002 A 
HETATM   11  C   UNL     1      43.311 -19.456   2.020  1.00  0.00     0.024 A 
HETATM   12  H   UNL     1      41.703 -17.905   0.786  1.00  0.00     0.130 HD
ENDROOT
BRANCH   1  13
HETATM   13  C   UNL     1      40.883 -15.452   0.868  1.00  0.00    -0.021 A 
HETATM   14  C   UNL     1      39.655 -14.797   1.037  1.00  0.00     0.013 A 
HETATM   15  C   UNL     1      39.029 -14.161  -0.041  1.00  0.00     0.038 A 
HETATM   16  C   UNL     1      39.642 -14.108  -1.301  1.00  0.00     0.134 A 
HETATM   17  C   UNL     1      40.888 -14.721  -1.461  1.00  0.00     0.038 A 
HETATM   18  C   UNL     1      41.496 -15.393  -0.392  1.00  0.00     0.013 A 
BRANCH  16  19
HETATM   19  N   UNL     1      38.899 -13.455  -2.425  1.00  0.00    -0.042 N 
HETATM   20  H   UNL     1      38.497 -12.612  -1.990  1.00  0.00     0.286 HD
BRANCH  19  21
HETATM   21  C   UNL     1      37.722 -14.223  -2.988  1.00  0.00     0.237 C 
HETATM   22  C   UNL     1      38.179 -15.343  -3.907  1.00  0.00     0.035 C 
ENDBRANCH  19  21
BRANCH  19  23
HETATM   23  C   UNL     1      39.825 -12.948  -3.517  1.00  0.00     0.237 C 
HETATM   24  C   UNL     1      40.316 -11.533  -3.269  1.00  0.00     0.035 C 
ENDBRANCH  19  23
ENDBRANCH  16  19
ENDBRANCH   1  13
BRANCH   2  25
HETATM   25  C   UNL     1      42.237 -14.051   3.077  1.00  0.00     0.193 C 
BRANCH  25  26
HETATM   26  C   UNL     1      41.294 -13.769   4.191  1.00  0.00     0.070 A 
HETATM   27  O   UNL     1      41.598 -12.709   4.998  1.00  0.00    -0.325 OA
HETATM   28  C   UNL     1      40.670 -12.686   5.988  1.00  0.00     0.142 A 
HETATM   29  C   UNL     1      39.756 -13.700   5.816  1.00  0.00     0.027 A 
HETATM   30  C   UNL     1      40.158 -14.401   4.653  1.00  0.00     0.036 A 
ENDBRANCH  25  26
ENDBRANCH   2  25
TORSDOF 6
ENDMDL
MODEL 9
REMARK VINA RESULT:      -7.2      1.590      2.566
REMARK  6 active torsions:
REMARK  status: ('A' for Active; 'I' for Inactive)
REMARK    1  A    between atoms: C_2  and  N_3 
REMARK    2  A    between atoms: N_3  and  C_5 
REMARK    3  A    between atoms: N_3  and  C_28 
REMARK    4  A    between atoms: C_8  and  C_9 
REMARK    5  A    between atoms: N_10  and  C_11 
REMARK    6  A    between atoms: C_11  and  C_12 
ROOT
HETATM    1  C   UNL     1      40.994 -16.936   2.742  1.00  0.00     0.199 C 
HETATM    2  N   UNL     1      41.309 -16.522   4.097  1.00  0.00    -0.321 N 
HETATM    3  C   UNL     1      42.043 -17.400   4.893  1.00  0.00     0.257 C 
HETATM    4  O   UNL     1      42.040 -17.371   6.120  1.00  0.00    -0.267 OA
HETATM    5  C   UNL     1      42.892 -18.381   4.183  1.00  0.00     0.053 A 
HETATM    6  C   UNL     1      42.960 -18.307   2.787  1.00  0.00     0.026 A 
HETATM    7  N   UNL     1      42.229 -17.336   2.076  1.00  0.00    -0.266 NA
HETATM    8  C   UNL     1      43.653 -19.313   4.897  1.00  0.00     0.019 A 
HETATM    9  C   UNL     1      44.529 -20.156   4.215  1.00  0.00     0.001 A 
HETATM   10  C   UNL     1      44.655 -20.048   2.831  1.00  0.00     0.002 A 
HETATM   11  C   UNL     1      43.885 -19.120   2.123  1.00  0.00     0.024 A 
HETATM   12  H   UNL     1      42.073 -17.631   1.117  1.00  0.00     0.130 HD
ENDROOT
BRANCH   1  13
HETATM   13  C   UNL     1      40.327 -15.875   1.870  1.00  0.00    -0.021 A 
HETATM   14  C   UNL     1      38.982 -15.520   2.047  1.00  0.00     0.013 A 
HETATM   15  C   UNL     1      38.360 -14.616   1.178  1.00  0.00     0.038 A 
HETATM   16  C   UNL     1      39.081 -13.997   0.147  1.00  0.00     0.134 A 
HETATM   17  C   UNL     1      40.433 -14.315  -0.004  1.00  0.00     0.038 A 
HETATM   18  C   UNL     1      41.046 -15.250   0.841  1.00  0.00     0.013 A 
BRANCH  16  19
HETATM   19  N   UNL     1      38.347 -13.077  -0.779  1.00  0.00    -0.042 N 
HETATM   20  H   UNL     1      37.360 -13.348  -0.656  1.00  0.00     0.286 HD
BRANCH  19  21
HETATM   21  C   UNL     1      38.632 -13.243  -2.257  1.00  0.00     0.237 C 
HETATM   22  C   UNL     1      37.861 -14.413  -2.843  1.00  0.00     0.035 C 
ENDBRANCH  19  21
BRANCH  19  23
HETATM   23  C   UNL     1      38.428 -11.625  -0.342  1.00  0.00     0.237 C 
HETATM   24  C   UNL     1      37.066 -11.004  -0.090  1.00  0.00     0.035 C 
ENDBRANCH  19  23
ENDBRANCH  16  19
ENDBRANCH   1  13
BRANCH   2  25
HETATM   25  C   UNL     1      40.512 -15.513   4.787  1.00  0.00     0.193 C 
BRANCH  25  26
HETATM   26  C   UNL     1      41.178 -14.184   4.812  1.00  0.00     0.070 A 
HETATM   27  O   UNL     1      42.080 -13.969   5.816  1.00  0.00    -0.325 OA
HETATM   28  C   UNL     1      42.494 -12.681   5.705  1.00  0.00     0.142 A 
HETATM   29  C   UNL     1      41.892 -12.070   4.629  1.00  0.00     0.027 A 
HETATM   30  C   UNL     1      41.042 -13.043   4.049  1.00  0.00     0.036 A 
ENDBRANCH  25  26
ENDBRANCH   2  25
TORSDOF 6
ENDMDL
MODEL 10
REMARK VINA RESULT:      -7.2      2.873      5.441
REMARK  6 active torsions:
REMARK  status: ('A' for Active; 'I' for Inactive)
REMARK    1  A    between atoms: C_2  and  N_3 
REMARK    2  A    between atoms: N_3  and  C_5 
REMARK    3  A    between atoms: N_3  and  C_28 
REMARK    4  A    between atoms: C_8  and  C_9 
REMARK    5  A    between atoms: N_10  and  C_11 
REMARK    6  A    between atoms: C_11  and  C_12 
ROOT
HETATM    1  C   UNL     1      42.383 -15.918   3.654  1.00  0.00     0.199 C 
HETATM    2  N   UNL     1      41.439 -16.459   2.692  1.00  0.00    -0.321 N 
HETATM    3  C   UNL     1      41.815 -17.596   1.978  1.00  0.00     0.257 C 
HETATM    4  O   UNL     1      41.323 -17.916   0.901  1.00  0.00    -0.267 OA
HETATM    5  C   UNL     1      42.839 -18.460   2.604  1.00  0.00     0.053 A 
HETATM    6  C   UNL     1      43.291 -18.125   3.886  1.00  0.00     0.026 A 
HETATM    7  N   UNL     1      42.798 -16.988   4.555  1.00  0.00    -0.266 NA
HETATM    8  C   UNL     1      43.291 -19.614   1.955  1.00  0.00     0.019 A 
HETATM    9  C   UNL     1      44.174 -20.473   2.609  1.00  0.00     0.001 A 
HETATM   10  C   UNL     1      44.581 -20.185   3.910  1.00  0.00     0.002 A 
HETATM   11  C   UNL     1      44.131 -19.025   4.550  1.00  0.00     0.024 A 
HETATM   12  H   UNL     1      43.456 -16.668   5.258  1.00  0.00     0.130 HD
ENDROOT
BRANCH   1  13
HETATM   13  C   UNL     1      41.859 -14.772   4.515  1.00  0.00    -0.021 A 
HETATM   14  C   UNL     1      40.658 -14.882   5.230  1.00  0.00     0.013 A 
HETATM   15  C   UNL     1      40.144 -13.788   5.937  1.00  0.00     0.038 A 
HETATM   16  C   UNL     1      40.846 -12.576   5.998  1.00  0.00     0.134 A 
HETATM   17  C   UNL     1      42.066 -12.478   5.323  1.00  0.00     0.038 A 
HETATM   18  C   UNL     1      42.561 -13.560   4.582  1.00  0.00     0.013 A 
BRANCH  16  19
HETATM   19  N   UNL     1      40.219 -11.429   6.730  1.00  0.00    -0.042 N 
HETATM   20  H   UNL     1      41.028 -10.901   7.088  1.00  0.00     0.286 HD
BRANCH  19  21
HETATM   21  C   UNL     1      39.391 -11.781   7.948  1.00  0.00     0.237 C 
HETATM   22  C   UNL     1      39.121 -10.558   8.807  1.00  0.00     0.035 C 
ENDBRANCH  19  21
BRANCH  19  23
HETATM   23  C   UNL     1      39.490 -10.475   5.800  1.00  0.00     0.237 C 
HETATM   24  C   UNL     1      40.305  -9.241   5.458  1.00  0.00     0.035 C 
ENDBRANCH  19  23
ENDBRANCH  16  19
ENDBRANCH   1  13
BRANCH   2  25
HETATM   25  C   UNL     1      40.390 -15.629   2.111  1.00  0.00     0.193 C 
BRANCH  25  26
HETATM   26  C   UNL     1      40.905 -14.723   1.051  1.00  0.00     0.070 A 
HETATM   27  O   UNL     1      40.590 -15.046  -0.239  1.00  0.00    -0.325 OA
HETATM   28  C   UNL     1      41.226 -14.151  -1.037  1.00  0.00     0.142 A 
HETATM   29  C   UNL     1      41.926 -13.240  -0.279  1.00  0.00     0.027 A 
HETATM   30  C   UNL     1      41.717 -13.608   1.072  1.00  0.00     0.036 A 
ENDBRANCH  25  26
ENDBRANCH   2  25
TORSDOF 6
ENDMDL
