MODEL 1
REMARK VINA RESULT:      -7.9      0.000      0.000
REMARK  7 active torsions:
REMARK  status: ('A' for Active; 'I' for Inactive)
REMARK    1  A    between atoms: O_2  and  C_3 
REMARK    2  A    between atoms: C_4  and  O_5 
REMARK    3  A    between atoms: C_7  and  C_8 
REMARK       I    between atoms: C_8  and  N_9 
REMARK    4  A    between atoms: N_9  and  C_10 
REMARK    5  A    between atoms: C_10  and  C_11 
REMARK    6  A    between atoms: C_11  and  N_12 
REMARK    7  A    between atoms: C_11  and  C_18 
ROOT
HETATM    1  C   UNL     1      43.470 -15.369   4.064  1.00  0.00     0.239 C 
ENDROOT
BRANCH   1   2
HETATM    2  C   UNL     1      43.669 -14.022   3.287  1.00  0.00     0.161 C 
BRANCH   2   3
HETATM    3  N   UNL     1      42.701 -12.960   3.517  1.00  0.00    -0.354 N 
HETATM    4  C   UNL     1      41.515 -12.700   2.867  1.00  0.00     0.254 C 
HETATM    5  O   UNL     1      40.732 -11.896   3.356  1.00  0.00    -0.268 OA
HETATM    6  H   UNL     1      42.697 -12.514   4.430  1.00  0.00     0.162 HD
BRANCH   4   7
HETATM    7  C   UNL     1      41.204 -13.359   1.582  1.00  0.00     0.068 A 
HETATM    8  C   UNL     1      41.763 -12.856   0.387  1.00  0.00     0.117 A 
HETATM    9  C   UNL     1      41.361 -13.439  -0.827  1.00  0.00     0.102 A 
HETATM   10  C   UNL     1      40.514 -14.559  -0.817  1.00  0.00     0.040 A 
HETATM   11  C   UNL     1      39.995 -15.059   0.377  1.00  0.00     0.004 A 
HETATM   12  C   UNL     1      40.315 -14.440   1.579  1.00  0.00     0.020 A 
BRANCH   8  13
HETATM   13  O   UNL     1      42.690 -11.861   0.563  1.00  0.00    -0.352 OA
HETATM   14  C   UNL     1      42.410 -10.543   0.118  1.00  0.00     0.210 C 
ENDBRANCH   8  13
BRANCH   9  15
HETATM   15  O   UNL     1      41.845 -12.958  -2.016  1.00  0.00    -0.353 OA
HETATM   16  C   UNL     1      41.575 -13.800  -3.141  1.00  0.00     0.210 C 
ENDBRANCH   9  15
ENDBRANCH   4   7
ENDBRANCH   2   3
ENDBRANCH   1   2
BRANCH   1  17
HETATM   17  N   UNL     1      42.211 -15.414   4.930  1.00  0.00    -0.061 N 
HETATM   18  H   UNL     1      41.771 -14.497   4.771  1.00  0.00     0.280 HD
HETATM   19  C   UNL     1      42.380 -15.514   6.429  1.00  0.00     0.236 C 
HETATM   20  C   UNL     1      41.667 -16.798   6.805  1.00  0.00     0.029 C 
HETATM   21  C   UNL     1      40.516 -16.851   5.823  1.00  0.00     0.029 C 
HETATM   22  C   UNL     1      41.165 -16.431   4.517  1.00  0.00     0.236 C 
ENDBRANCH   1  17
BRANCH   1  23
HETATM   23  C   UNL     1      43.528 -16.602   3.155  1.00  0.00    -0.015 A 
HETATM   24  C   UNL     1      43.951 -17.875   3.659  1.00  0.00    -0.018 A 
HETATM   25  C   UNL     1      43.967 -18.984   2.768  1.00  0.00    -0.025 A 
HETATM   26  C   UNL     1      44.365 -18.125   4.993  1.00  0.00     0.013 A 
HETATM   27  C   UNL     1      44.377 -20.250   3.211  1.00  0.00     0.012 A 
HETATM   28  C   UNL     1      43.575 -18.828   1.434  1.00  0.00     0.012 A 
HETATM   29  C   UNL     1      44.773 -20.456   4.529  1.00  0.00     0.001 A 
HETATM   30  C   UNL     1      44.767 -19.394   5.419  1.00  0.00     0.001 A 
HETATM   31  C   UNL     1      43.156 -17.597   0.956  1.00  0.00     0.002 A 
HETATM   32  C   UNL     1      43.122 -16.498   1.807  1.00  0.00     0.010 A 
ENDBRANCH   1  23
TORSDOF 7
ENDMDL
MODEL 2
REMARK VINA RESULT:      -7.9      1.030      1.757
REMARK  7 active torsions:
REMARK  status: ('A' for Active; 'I' for Inactive)
REMARK    1  A    between atoms: O_2  and  C_3 
REMARK    2  A    between atoms: C_4  and  O_5 
REMARK    3  A    between atoms: C_7  and  C_8 
REMARK       I    between atoms: C_8  and  N_9 
REMARK    4  A    between atoms: N_9  and  C_10 
REMARK    5  A    between atoms: C_10  and  C_11 
REMARK    6  A    between atoms: C_11  and  N_12 
REMARK    7  A    between atoms: C_11  and  C_18 
ROOT
HETATM    1  C   UNL     1      43.434 -15.428   4.036  1.00  0.00     0.239 C 
ENDROOT
BRANCH   1   2
HETATM    2  C   UNL     1      43.594 -14.088   3.239  1.00  0.00     0.161 C 
BRANCH   2   3
HETATM    3  N   UNL     1      42.624 -13.032   3.489  1.00  0.00    -0.354 N 
HETATM    4  C   UNL     1      41.676 -12.498   2.647  1.00  0.00     0.254 C 
HETATM    5  O   UNL     1      40.804 -11.775   3.113  1.00  0.00    -0.268 OA
HETATM    6  H   UNL     1      42.372 -12.841   4.455  1.00  0.00     0.162 HD
BRANCH   4   7
HETATM    7  C   UNL     1      41.725 -12.765   1.194  1.00  0.00     0.068 A 
HETATM    8  C   UNL     1      41.183 -13.966   0.687  1.00  0.00     0.117 A 
HETATM    9  C   UNL     1      41.344 -14.237  -0.683  1.00  0.00     0.102 A 
HETATM   10  C   UNL     1      41.931 -13.274  -1.520  1.00  0.00     0.040 A 
HETATM   11  C   UNL     1      42.434 -12.080  -1.005  1.00  0.00     0.004 A 
HETATM   12  C   UNL     1      42.360 -11.836   0.362  1.00  0.00     0.020 A 
BRANCH   8  13
HETATM   13  O   UNL     1      40.508 -14.724   1.610  1.00  0.00    -0.352 OA
HETATM   14  C   UNL     1      39.090 -14.714   1.634  1.00  0.00     0.210 C 
ENDBRANCH   8  13
BRANCH   9  15
HETATM   15  O   UNL     1      40.871 -15.408  -1.213  1.00  0.00    -0.353 OA
HETATM   16  C   UNL     1      40.935 -15.471  -2.642  1.00  0.00     0.210 C 
ENDBRANCH   9  15
ENDBRANCH   4   7
ENDBRANCH   2   3
ENDBRANCH   1   2
BRANCH   1  17
HETATM   17  N   UNL     1      42.164 -15.505   4.885  1.00  0.00    -0.061 N 
HETATM   18  H   UNL     1      41.690 -14.610   4.699  1.00  0.00     0.280 HD
HETATM   19  C   UNL     1      42.315 -15.566   6.388  1.00  0.00     0.236 C 
HETATM   20  C   UNL     1      41.649 -16.869   6.781  1.00  0.00     0.029 C 
HETATM   21  C   UNL     1      40.515 -16.991   5.784  1.00  0.00     0.029 C 
HETATM   22  C   UNL     1      41.166 -16.572   4.480  1.00  0.00     0.236 C 
ENDBRANCH   1  17
BRANCH   1  23
HETATM   23  C   UNL     1      43.551 -16.673   3.149  1.00  0.00    -0.015 A 
HETATM   24  C   UNL     1      43.983 -17.929   3.687  1.00  0.00    -0.018 A 
HETATM   25  C   UNL     1      44.054 -19.050   2.816  1.00  0.00    -0.025 A 
HETATM   26  C   UNL     1      44.355 -18.149   5.039  1.00  0.00     0.013 A 
HETATM   27  C   UNL     1      44.476 -20.300   3.292  1.00  0.00     0.012 A 
HETATM   28  C   UNL     1      43.707 -18.923   1.466  1.00  0.00     0.012 A 
HETATM   29  C   UNL     1      44.830 -20.477   4.626  1.00  0.00     0.001 A 
HETATM   30  C   UNL     1      44.770 -19.402   5.499  1.00  0.00     0.001 A 
HETATM   31  C   UNL     1      43.277 -17.709   0.954  1.00  0.00     0.002 A 
HETATM   32  C   UNL     1      43.190 -16.598   1.786  1.00  0.00     0.010 A 
ENDBRANCH   1  23
TORSDOF 7
ENDMDL
MODEL 3
REMARK VINA RESULT:      -7.7      2.198      3.918
REMARK  7 active torsions:
REMARK  status: ('A' for Active; 'I' for Inactive)
REMARK    1  A    between atoms: O_2  and  C_3 
REMARK    2  A    between atoms: C_4  and  O_5 
REMARK    3  A    between atoms: C_7  and  C_8 
REMARK       I    between atoms: C_8  and  N_9 
REMARK    4  A    between atoms: N_9  and  C_10 
REMARK    5  A    between atoms: C_10  and  C_11 
REMARK    6  A    between atoms: C_11  and  N_12 
REMARK    7  A    between atoms: C_11  and  C_18 
ROOT
HETATM    1  C   UNL     1      42.189 -16.444   4.432  1.00  0.00     0.239 C 
ENDROOT
BRANCH   1   2
HETATM    2  C   UNL     1      40.812 -16.766   3.757  1.00  0.00     0.161 C 
BRANCH   2   3
HETATM    3  N   UNL     1      40.784 -16.898   2.308  1.00  0.00    -0.354 N 
HETATM    4  C   UNL     1      40.970 -15.940   1.338  1.00  0.00     0.254 C 
HETATM    5  O   UNL     1      41.134 -16.292   0.177  1.00  0.00    -0.268 OA
HETATM    6  H   UNL     1      40.947 -17.821   1.914  1.00  0.00     0.162 HD
BRANCH   4   7
HETATM    7  C   UNL     1      40.943 -14.504   1.686  1.00  0.00     0.068 A 
HETATM    8  C   UNL     1      39.703 -13.853   1.865  1.00  0.00     0.117 A 
HETATM    9  C   UNL     1      39.712 -12.465   2.088  1.00  0.00     0.102 A 
HETATM   10  C   UNL     1      40.934 -11.790   2.237  1.00  0.00     0.040 A 
HETATM   11  C   UNL     1      42.149 -12.457   2.086  1.00  0.00     0.004 A 
HETATM   12  C   UNL     1      42.156 -13.812   1.779  1.00  0.00     0.020 A 
BRANCH   8  13
HETATM   13  O   UNL     1      38.612 -14.683   1.842  1.00  0.00    -0.352 OA
HETATM   14  C   UNL     1      37.558 -14.444   0.922  1.00  0.00     0.210 C 
ENDBRANCH   8  13
BRANCH   9  15
HETATM   15  O   UNL     1      38.532 -11.783   2.227  1.00  0.00    -0.353 OA
HETATM   16  C   UNL     1      38.418 -11.053   3.453  1.00  0.00     0.210 C 
ENDBRANCH   9  15
ENDBRANCH   4   7
ENDBRANCH   2   3
ENDBRANCH   1   2
BRANCH   1  17
HETATM   17  N   UNL     1      42.130 -15.332   5.480  1.00  0.00    -0.061 N 
HETATM   18  H   UNL     1      42.490 -15.781   6.334  1.00  0.00     0.280 HD
HETATM   19  C   UNL     1      40.774 -14.786   5.864  1.00  0.00     0.236 C 
HETATM   20  C   UNL     1      40.850 -13.311   5.526  1.00  0.00     0.029 C 
HETATM   21  C   UNL     1      42.296 -12.967   5.816  1.00  0.00     0.029 C 
HETATM   22  C   UNL     1      43.048 -14.150   5.238  1.00  0.00     0.236 C 
ENDBRANCH   1  17
BRANCH   1  23
HETATM   23  C   UNL     1      42.876 -17.683   5.017  1.00  0.00    -0.015 A 
HETATM   24  C   UNL     1      43.484 -18.665   4.169  1.00  0.00    -0.018 A 
HETATM   25  C   UNL     1      44.120 -19.783   4.775  1.00  0.00    -0.025 A 
HETATM   26  C   UNL     1      43.501 -18.615   2.751  1.00  0.00     0.013 A 
HETATM   27  C   UNL     1      44.726 -20.774   3.988  1.00  0.00     0.012 A 
HETATM   28  C   UNL     1      44.150 -19.913   6.168  1.00  0.00     0.012 A 
HETATM   29  C   UNL     1      44.724 -20.688   2.600  1.00  0.00     0.001 A 
HETATM   30  C   UNL     1      44.112 -19.609   1.981  1.00  0.00     0.001 A 
HETATM   31  C   UNL     1      43.571 -18.954   6.984  1.00  0.00     0.002 A 
HETATM   32  C   UNL     1      42.950 -17.847   6.418  1.00  0.00     0.010 A 
ENDBRANCH   1  23
TORSDOF 7
ENDMDL
MODEL 4
REMARK VINA RESULT:      -7.5      1.980      3.790
REMARK  7 active torsions:
REMARK  status: ('A' for Active; 'I' for Inactive)
REMARK    1  A    between atoms: O_2  and  C_3 
REMARK    2  A    between atoms: C_4  and  O_5 
REMARK    3  A    between atoms: C_7  and  C_8 
REMARK       I    between atoms: C_8  and  N_9 
REMARK    4  A    between atoms: N_9  and  C_10 
REMARK    5  A    between atoms: C_10  and  C_11 
REMARK    6  A    between atoms: C_11  and  N_12 
REMARK    7  A    between atoms: C_11  and  C_18 
ROOT
HETATM    1  C   UNL     1      41.471 -16.026   3.793  1.00  0.00     0.239 C 
ENDROOT
BRANCH   1   2
HETATM    2  C   UNL     1      40.445 -14.842   3.769  1.00  0.00     0.161 C 
BRANCH   2   3
HETATM    3  N   UNL     1      39.294 -14.963   2.886  1.00  0.00    -0.354 N 
HETATM    4  C   UNL     1      38.960 -14.220   1.777  1.00  0.00     0.254 C 
HETATM    5  O   UNL     1      38.071 -14.621   1.037  1.00  0.00    -0.268 OA
HETATM    6  H   UNL     1      38.811 -15.858   2.858  1.00  0.00     0.162 HD
BRANCH   4   7
HETATM    7  C   UNL     1      39.642 -12.939   1.499  1.00  0.00     0.068 A 
HETATM    8  C   UNL     1      40.918 -12.945   0.892  1.00  0.00     0.117 A 
HETATM    9  C   UNL     1      41.583 -11.716   0.742  1.00  0.00     0.102 A 
HETATM   10  C   UNL     1      40.930 -10.522   1.088  1.00  0.00     0.040 A 
HETATM   11  C   UNL     1      39.658 -10.535   1.659  1.00  0.00     0.004 A 
HETATM   12  C   UNL     1      39.022 -11.748   1.894  1.00  0.00     0.020 A 
BRANCH   8  13
HETATM   13  O   UNL     1      41.346 -14.178   0.473  1.00  0.00    -0.352 OA
HETATM   14  C   UNL     1      41.189 -14.560  -0.885  1.00  0.00     0.210 C 
ENDBRANCH   8  13
BRANCH   9  15
HETATM   15  O   UNL     1      42.839 -11.676   0.196  1.00  0.00    -0.353 OA
HETATM   16  C   UNL     1      42.870 -11.254  -1.171  1.00  0.00     0.210 C 
ENDBRANCH   9  15
ENDBRANCH   4   7
ENDBRANCH   2   3
ENDBRANCH   1   2
BRANCH   1  17
HETATM   17  N   UNL     1      42.104 -16.335   2.435  1.00  0.00    -0.061 N 
HETATM   18  H   UNL     1      41.730 -15.602   1.818  1.00  0.00     0.280 HD
HETATM   19  C   UNL     1      41.743 -17.640   1.762  1.00  0.00     0.236 C 
HETATM   20  C   UNL     1      43.067 -18.360   1.599  1.00  0.00     0.029 C 
HETATM   21  C   UNL     1      44.045 -17.230   1.354  1.00  0.00     0.029 C 
HETATM   22  C   UNL     1      43.611 -16.182   2.362  1.00  0.00     0.236 C 
ENDBRANCH   1  17
BRANCH   1  23
HETATM   23  C   UNL     1      42.563 -15.854   4.855  1.00  0.00    -0.015 A 
HETATM   24  C   UNL     1      43.162 -16.989   5.494  1.00  0.00    -0.018 A 
HETATM   25  C   UNL     1      44.182 -16.762   6.459  1.00  0.00    -0.025 A 
HETATM   26  C   UNL     1      42.815 -18.341   5.241  1.00  0.00     0.013 A 
HETATM   27  C   UNL     1      44.796 -17.839   7.115  1.00  0.00     0.012 A 
HETATM   28  C   UNL     1      44.586 -15.460   6.771  1.00  0.00     0.012 A 
HETATM   29  C   UNL     1      44.430 -19.152   6.838  1.00  0.00     0.001 A 
HETATM   30  C   UNL     1      43.440 -19.403   5.901  1.00  0.00     0.001 A 
HETATM   31  C   UNL     1      44.012 -14.367   6.142  1.00  0.00     0.002 A 
HETATM   32  C   UNL     1      43.019 -14.560   5.188  1.00  0.00     0.010 A 
ENDBRANCH   1  23
TORSDOF 7
ENDMDL
MODEL 5
REMARK VINA RESULT:      -7.5      1.777      4.551
REMARK  7 active torsions:
REMARK  status: ('A' for Active; 'I' for Inactive)
REMARK    1  A    between atoms: O_2  and  C_3 
REMARK    2  A    between atoms: C_4  and  O_5 
REMARK    3  A    between atoms: C_7  and  C_8 
REMARK       I    between atoms: C_8  and  N_9 
REMARK    4  A    between atoms: N_9  and  C_10 
REMARK    5  A    between atoms: C_10  and  C_11 
REMARK    6  A    between atoms: C_11  and  N_12 
REMARK    7  A    between atoms: C_11  and  C_18 
ROOT
HETATM    1  C   UNL     1      43.013 -17.814   2.640  1.00  0.00     0.239 C 
ENDROOT
BRANCH   1   2
HETATM    2  C   UNL     1      43.330 -16.790   1.497  1.00  0.00     0.161 C 
BRANCH   2   3
HETATM    3  N   UNL     1      42.497 -16.830   0.304  1.00  0.00    -0.354 N 
HETATM    4  C   UNL     1      41.464 -16.001  -0.070  1.00  0.00     0.254 C 
HETATM    5  O   UNL     1      41.037 -16.061  -1.216  1.00  0.00    -0.268 OA
HETATM    6  H   UNL     1      42.863 -17.312  -0.513  1.00  0.00     0.162 HD
BRANCH   4   7
HETATM    7  C   UNL     1      40.856 -15.072   0.905  1.00  0.00     0.068 A 
HETATM    8  C   UNL     1      41.327 -13.743   0.990  1.00  0.00     0.117 A 
HETATM    9  C   UNL     1      40.802 -12.920   2.001  1.00  0.00     0.102 A 
HETATM   10  C   UNL     1      39.761 -13.393   2.816  1.00  0.00     0.040 A 
HETATM   11  C   UNL     1      39.289 -14.699   2.697  1.00  0.00     0.004 A 
HETATM   12  C   UNL     1      39.858 -15.553   1.760  1.00  0.00     0.020 A 
BRANCH   8  13
HETATM   13  O   UNL     1      42.234 -13.394   0.022  1.00  0.00    -0.352 OA
HETATM   14  C   UNL     1      41.836 -12.558  -1.054  1.00  0.00     0.210 C 
ENDBRANCH   8  13
BRANCH   9  15
HETATM   15  O   UNL     1      41.258 -11.636   2.149  1.00  0.00    -0.353 OA
HETATM   16  C   UNL     1      40.695 -10.941   3.266  1.00  0.00     0.210 C 
ENDBRANCH   9  15
ENDBRANCH   4   7
ENDBRANCH   2   3
ENDBRANCH   1   2
BRANCH   1  17
HETATM   17  N   UNL     1      44.229 -18.598   3.135  1.00  0.00    -0.061 N 
HETATM   18  H   UNL     1      45.029 -18.020   2.843  1.00  0.00     0.280 HD
HETATM   19  C   UNL     1      44.489 -19.962   2.538  1.00  0.00     0.236 C 
HETATM   20  C   UNL     1      44.451 -20.907   3.722  1.00  0.00     0.029 C 
HETATM   21  C   UNL     1      45.027 -20.072   4.846  1.00  0.00     0.029 C 
HETATM   22  C   UNL     1      44.362 -18.724   4.640  1.00  0.00     0.236 C 
ENDBRANCH   1  17
BRANCH   1  23
HETATM   23  C   UNL     1      42.276 -17.183   3.826  1.00  0.00    -0.015 A 
HETATM   24  C   UNL     1      42.536 -15.832   4.228  1.00  0.00    -0.018 A 
HETATM   25  C   UNL     1      41.806 -15.300   5.327  1.00  0.00    -0.025 A 
HETATM   26  C   UNL     1      43.481 -14.969   3.614  1.00  0.00     0.013 A 
HETATM   27  C   UNL     1      42.028 -13.985   5.762  1.00  0.00     0.012 A 
HETATM   28  C   UNL     1      40.855 -16.081   5.992  1.00  0.00     0.012 A 
HETATM   29  C   UNL     1      42.961 -13.168   5.132  1.00  0.00     0.001 A 
HETATM   30  C   UNL     1      43.688 -13.660   4.058  1.00  0.00     0.001 A 
HETATM   31  C   UNL     1      40.598 -17.383   5.591  1.00  0.00     0.002 A 
HETATM   32  C   UNL     1      41.292 -17.926   4.515  1.00  0.00     0.010 A 
ENDBRANCH   1  23
TORSDOF 7
ENDMDL
MODEL 6
REMARK VINA RESULT:      -7.4      2.172      3.929
REMARK  7 active torsions:
REMARK  status: ('A' for Active; 'I' for Inactive)
REMARK    1  A    between atoms: O_2  and  C_3 
REMARK    2  A    between atoms: C_4  and  O_5 
REMARK    3  A    between atoms: C_7  and  C_8 
REMARK       I    between atoms: C_8  and  N_9 
REMARK    4  A    between atoms: N_9  and  C_10 
REMARK    5  A    between atoms: C_10  and  C_11 
REMARK    6  A    between atoms: C_11  and  N_12 
REMARK    7  A    between atoms: C_11  and  C_18 
ROOT
HETATM    1  C   UNL     1      41.443 -15.348   3.261  1.00  0.00     0.239 C 
ENDROOT
BRANCH   1   2
HETATM    2  C   UNL     1      40.206 -15.759   2.391  1.00  0.00     0.161 C 
BRANCH   2   3
HETATM    3  N   UNL     1      40.445 -16.105   0.998  1.00  0.00    -0.354 N 
HETATM    4  C   UNL     1      40.825 -15.301  -0.052  1.00  0.00     0.254 C 
HETATM    5  O   UNL     1      41.194 -15.820  -1.097  1.00  0.00    -0.268 OA
HETATM    6  H   UNL     1      40.662 -17.076   0.783  1.00  0.00     0.162 HD
BRANCH   4   7
HETATM    7  C   UNL     1      40.758 -13.829   0.068  1.00  0.00     0.068 A 
HETATM    8  C   UNL     1      39.523 -13.169  -0.115  1.00  0.00     0.117 A 
HETATM    9  C   UNL     1      39.517 -11.764  -0.102  1.00  0.00     0.102 A 
HETATM   10  C   UNL     1      40.696 -11.064   0.200  1.00  0.00     0.040 A 
HETATM   11  C   UNL     1      41.901 -11.735   0.407  1.00  0.00     0.004 A 
HETATM   12  C   UNL     1      41.941 -13.121   0.311  1.00  0.00     0.020 A 
BRANCH   8  13
HETATM   13  O   UNL     1      38.443 -14.004  -0.245  1.00  0.00    -0.352 OA
HETATM   14  C   UNL     1      37.451 -14.043   0.770  1.00  0.00     0.210 C 
ENDBRANCH   8  13
BRANCH   9  15
HETATM   15  O   UNL     1      38.350 -11.079  -0.316  1.00  0.00    -0.353 OA
HETATM   16  C   UNL     1      37.907 -10.313   0.810  1.00  0.00     0.210 C 
ENDBRANCH   9  15
ENDBRANCH   4   7
ENDBRANCH   2   3
ENDBRANCH   1   2
BRANCH   1  17
HETATM   17  N   UNL     1      41.219 -14.104   4.122  1.00  0.00    -0.061 N 
HETATM   18  H   UNL     1      41.370 -14.441   5.083  1.00  0.00     0.280 HD
HETATM   19  C   UNL     1      39.841 -13.484   4.134  1.00  0.00     0.236 C 
HETATM   20  C   UNL     1      40.058 -12.070   3.635  1.00  0.00     0.029 C 
HETATM   21  C   UNL     1      41.425 -11.718   4.182  1.00  0.00     0.029 C 
HETATM   22  C   UNL     1      42.224 -12.984   3.934  1.00  0.00     0.236 C 
ENDBRANCH   1  17
BRANCH   1  23
HETATM   23  C   UNL     1      41.979 -16.496   4.124  1.00  0.00    -0.015 A 
HETATM   24  C   UNL     1      42.780 -17.539   3.556  1.00  0.00    -0.018 A 
HETATM   25  C   UNL     1      43.261 -18.567   4.414  1.00  0.00    -0.025 A 
HETATM   26  C   UNL     1      43.137 -17.636   2.186  1.00  0.00     0.013 A 
HETATM   27  C   UNL     1      44.045 -19.613   3.906  1.00  0.00     0.012 A 
HETATM   28  C   UNL     1      42.957 -18.550   5.780  1.00  0.00     0.012 A 
HETATM   29  C   UNL     1      44.376 -19.672   2.556  1.00  0.00     0.001 A 
HETATM   30  C   UNL     1      43.922 -18.684   1.696  1.00  0.00     0.001 A 
HETATM   31  C   UNL     1      42.192 -17.532   6.326  1.00  0.00     0.002 A 
HETATM   32  C   UNL     1      41.716 -16.511   5.511  1.00  0.00     0.010 A 
ENDBRANCH   1  23
TORSDOF 7
ENDMDL
MODEL 7
REMARK VINA RESULT:      -7.3      2.255      6.615
REMARK  7 active torsions:
REMARK  status: ('A' for Active; 'I' for Inactive)
REMARK    1  A    between atoms: O_2  and  C_3 
REMARK    2  A    between atoms: C_4  and  O_5 
REMARK    3  A    between atoms: C_7  and  C_8 
REMARK       I    between atoms: C_8  and  N_9 
REMARK    4  A    between atoms: N_9  and  C_10 
REMARK    5  A    between atoms: C_10  and  C_11 
REMARK    6  A    between atoms: C_11  and  N_12 
REMARK    7  A    between atoms: C_11  and  C_18 
ROOT
HETATM    1  C   UNL     1      42.440 -15.591   1.511  1.00  0.00     0.239 C 
ENDROOT
BRANCH   1   2
HETATM    2  C   UNL     1      43.171 -14.837   2.673  1.00  0.00     0.161 C 
BRANCH   2   3
HETATM    3  N   UNL     1      42.455 -13.755   3.333  1.00  0.00    -0.354 N 
HETATM    4  C   UNL     1      42.003 -13.667   4.630  1.00  0.00     0.254 C 
HETATM    5  O   UNL     1      41.624 -12.584   5.056  1.00  0.00    -0.268 OA
HETATM    6  H   UNL     1      42.532 -12.823   2.933  1.00  0.00     0.162 HD
BRANCH   4   7
HETATM    7  C   UNL     1      41.947 -14.869   5.488  1.00  0.00     0.068 A 
HETATM    8  C   UNL     1      43.121 -15.328   6.124  1.00  0.00     0.117 A 
HETATM    9  C   UNL     1      43.054 -16.533   6.844  1.00  0.00     0.102 A 
HETATM   10  C   UNL     1      41.820 -17.183   7.004  1.00  0.00     0.040 A 
HETATM   11  C   UNL     1      40.665 -16.697   6.392  1.00  0.00     0.004 A 
HETATM   12  C   UNL     1      40.732 -15.554   5.606  1.00  0.00     0.020 A 
BRANCH   8  13
HETATM   13  O   UNL     1      44.204 -14.496   5.995  1.00  0.00    -0.352 OA
HETATM   14  C   UNL     1      44.763 -13.877   7.143  1.00  0.00     0.210 C 
ENDBRANCH   8  13
BRANCH   9  15
HETATM   15  O   UNL     1      44.177 -17.040   7.444  1.00  0.00    -0.353 OA
HETATM   16  C   UNL     1      44.510 -18.370   7.034  1.00  0.00     0.210 C 
ENDBRANCH   9  15
ENDBRANCH   4   7
ENDBRANCH   2   3
ENDBRANCH   1   2
BRANCH   1  17
HETATM   17  N   UNL     1      42.399 -17.111   1.677  1.00  0.00    -0.061 N 
HETATM   18  H   UNL     1      41.553 -17.391   1.160  1.00  0.00     0.280 HD
HETATM   19  C   UNL     1      42.213 -17.671   3.069  1.00  0.00     0.236 C 
HETATM   20  C   UNL     1      43.445 -18.521   3.301  1.00  0.00     0.029 C 
HETATM   21  C   UNL     1      43.745 -19.076   1.925  1.00  0.00     0.029 C 
HETATM   22  C   UNL     1      43.533 -17.875   1.023  1.00  0.00     0.236 C 
ENDBRANCH   1  17
BRANCH   1  23
HETATM   23  C   UNL     1      41.031 -15.053   1.237  1.00  0.00    -0.015 A 
HETATM   24  C   UNL     1      40.784 -14.125   0.174  1.00  0.00    -0.018 A 
HETATM   25  C   UNL     1      39.451 -13.677  -0.039  1.00  0.00    -0.025 A 
HETATM   26  C   UNL     1      41.777 -13.605  -0.698  1.00  0.00     0.013 A 
HETATM   27  C   UNL     1      39.159 -12.765  -1.064  1.00  0.00     0.012 A 
HETATM   28  C   UNL     1      38.410 -14.138   0.775  1.00  0.00     0.012 A 
HETATM   29  C   UNL     1      40.159 -12.280  -1.900  1.00  0.00     0.001 A 
HETATM   30  C   UNL     1      41.468 -12.700  -1.717  1.00  0.00     0.001 A 
HETATM   31  C   UNL     1      38.652 -15.045   1.794  1.00  0.00     0.002 A 
HETATM   32  C   UNL     1      39.945 -15.506   2.018  1.00  0.00     0.010 A 
ENDBRANCH   1  23
TORSDOF 7
ENDMDL
MODEL 8
REMARK VINA RESULT:      -7.3      1.725      2.411
REMARK  7 active torsions:
REMARK  status: ('A' for Active; 'I' for Inactive)
REMARK    1  A    between atoms: O_2  and  C_3 
REMARK    2  A    between atoms: C_4  and  O_5 
REMARK    3  A    between atoms: C_7  and  C_8 
REMARK       I    between atoms: C_8  and  N_9 
REMARK    4  A    between atoms: N_9  and  C_10 
REMARK    5  A    between atoms: C_10  and  C_11 
REMARK    6  A    between atoms: C_11  and  N_12 
REMARK    7  A    between atoms: C_11  and  C_18 
ROOT
HETATM    1  C   UNL     1      42.527 -15.424   3.030  1.00  0.00     0.239 C 
ENDROOT
BRANCH   1   2
HETATM    2  C   UNL     1      42.250 -14.864   1.593  1.00  0.00     0.161 C 
BRANCH   2   3
HETATM    3  N   UNL     1      42.325 -13.424   1.402  1.00  0.00    -0.354 N 
HETATM    4  C   UNL     1      41.448 -12.578   0.762  1.00  0.00     0.254 C 
HETATM    5  O   UNL     1      41.574 -11.369   0.905  1.00  0.00    -0.268 OA
HETATM    6  H   UNL     1      42.908 -12.891   2.044  1.00  0.00     0.162 HD
BRANCH   4   7
HETATM    7  C   UNL     1      40.386 -13.120  -0.112  1.00  0.00     0.068 A 
HETATM    8  C   UNL     1      40.711 -13.558  -1.415  1.00  0.00     0.117 A 
HETATM    9  C   UNL     1      39.662 -13.965  -2.256  1.00  0.00     0.102 A 
HETATM   10  C   UNL     1      38.352 -14.032  -1.754  1.00  0.00     0.040 A 
HETATM   11  C   UNL     1      38.055 -13.622  -0.455  1.00  0.00     0.004 A 
HETATM   12  C   UNL     1      39.069 -13.135   0.361  1.00  0.00     0.020 A 
BRANCH   8  13
HETATM   13  O   UNL     1      42.054 -13.574  -1.694  1.00  0.00    -0.352 OA
HETATM   14  C   UNL     1      42.610 -12.597  -2.561  1.00  0.00     0.210 C 
ENDBRANCH   8  13
BRANCH   9  15
HETATM   15  O   UNL     1      39.923 -14.360  -3.541  1.00  0.00    -0.353 OA
HETATM   16  C   UNL     1      39.311 -15.600  -3.909  1.00  0.00     0.210 C 
ENDBRANCH   9  15
ENDBRANCH   4   7
ENDBRANCH   2   3
ENDBRANCH   1   2
BRANCH   1  17
HETATM   17  N   UNL     1      41.373 -15.228   4.013  1.00  0.00    -0.061 N 
HETATM   18  H   UNL     1      41.300 -16.138   4.491  1.00  0.00     0.280 HD
HETATM   19  C   UNL     1      39.994 -14.967   3.451  1.00  0.00     0.236 C 
HETATM   20  C   UNL     1      39.601 -13.621   4.024  1.00  0.00     0.029 C 
HETATM   21  C   UNL     1      40.246 -13.628   5.394  1.00  0.00     0.029 C 
HETATM   22  C   UNL     1      41.615 -14.220   5.120  1.00  0.00     0.236 C 
ENDBRANCH   1  17
BRANCH   1  23
HETATM   23  C   UNL     1      42.975 -16.890   3.028  1.00  0.00    -0.015 A 
HETATM   24  C   UNL     1      43.600 -17.476   4.176  1.00  0.00    -0.018 A 
HETATM   25  C   UNL     1      43.976 -18.847   4.117  1.00  0.00    -0.025 A 
HETATM   26  C   UNL     1      43.883 -16.791   5.387  1.00  0.00     0.013 A 
HETATM   27  C   UNL     1      44.596 -19.466   5.213  1.00  0.00     0.012 A 
HETATM   28  C   UNL     1      43.736 -19.599   2.962  1.00  0.00     0.012 A 
HETATM   29  C   UNL     1      44.855 -18.761   6.384  1.00  0.00     0.001 A 
HETATM   30  C   UNL     1      44.498 -17.424   6.471  1.00  0.00     0.001 A 
HETATM   31  C   UNL     1      43.119 -19.030   1.859  1.00  0.00     0.002 A 
HETATM   32  C   UNL     1      42.734 -17.694   1.893  1.00  0.00     0.010 A 
ENDBRANCH   1  23
TORSDOF 7
ENDMDL
MODEL 9
REMARK VINA RESULT:      -7.1      1.899      3.613
REMARK  7 active torsions:
REMARK  status: ('A' for Active; 'I' for Inactive)
REMARK    1  A    between atoms: O_2  and  C_3 
REMARK    2  A    between atoms: C_4  and  O_5 
REMARK    3  A    between atoms: C_7  and  C_8 
REMARK       I    between atoms: C_8  and  N_9 
REMARK    4  A    between atoms: N_9  and  C_10 
REMARK    5  A    between atoms: C_10  and  C_11 
REMARK    6  A    between atoms: C_11  and  N_12 
REMARK    7  A    between atoms: C_11  and  C_18 
ROOT
HETATM    1  C   UNL     1      42.236 -16.837   2.988  1.00  0.00     0.239 C 
ENDROOT
BRANCH   1   2
HETATM    2  C   UNL     1      40.796 -17.003   2.391  1.00  0.00     0.161 C 
BRANCH   2   3
HETATM    3  N   UNL     1      40.599 -16.646   0.994  1.00  0.00    -0.354 N 
HETATM    4  C   UNL     1      40.709 -15.420   0.380  1.00  0.00     0.254 C 
HETATM    5  O   UNL     1      40.726 -15.365  -0.843  1.00  0.00    -0.268 OA
HETATM    6  H   UNL     1      40.681 -17.386   0.301  1.00  0.00     0.162 HD
BRANCH   4   7
HETATM    7  C   UNL     1      40.775 -14.181   1.183  1.00  0.00     0.068 A 
HETATM    8  C   UNL     1      39.588 -13.630   1.713  1.00  0.00     0.117 A 
HETATM    9  C   UNL     1      39.673 -12.395   2.380  1.00  0.00     0.102 A 
HETATM   10  C   UNL     1      40.929 -11.805   2.596  1.00  0.00     0.040 A 
HETATM   11  C   UNL     1      42.094 -12.380   2.090  1.00  0.00     0.004 A 
HETATM   12  C   UNL     1      42.016 -13.557   1.355  1.00  0.00     0.020 A 
BRANCH   8  13
HETATM   13  O   UNL     1      38.471 -14.408   1.547  1.00  0.00    -0.352 OA
HETATM   14  C   UNL     1      37.474 -14.026   0.612  1.00  0.00     0.210 C 
ENDBRANCH   8  13
BRANCH   9  15
HETATM   15  O   UNL     1      38.543 -11.801   2.875  1.00  0.00    -0.353 OA
HETATM   16  C   UNL     1      38.721 -11.178   4.151  1.00  0.00     0.210 C 
ENDBRANCH   9  15
ENDBRANCH   4   7
ENDBRANCH   2   3
ENDBRANCH   1   2
BRANCH   1  17
HETATM   17  N   UNL     1      42.271 -16.178   4.368  1.00  0.00    -0.061 N 
HETATM   18  H   UNL     1      42.657 -16.911   4.980  1.00  0.00     0.280 HD
HETATM   19  C   UNL     1      40.956 -15.787   5.004  1.00  0.00     0.236 C 
HETATM   20  C   UNL     1      41.069 -14.290   5.214  1.00  0.00     0.029 C 
HETATM   21  C   UNL     1      42.539 -14.097   5.521  1.00  0.00     0.029 C 
HETATM   22  C   UNL     1      43.218 -15.003   4.511  1.00  0.00     0.236 C 
ENDBRANCH   1  17
BRANCH   1  23
HETATM   23  C   UNL     1      43.032 -18.147   3.010  1.00  0.00    -0.015 A 
HETATM   24  C   UNL     1      43.324 -18.818   4.242  1.00  0.00    -0.018 A 
HETATM   25  C   UNL     1      44.053 -20.038   4.193  1.00  0.00    -0.025 A 
HETATM   26  C   UNL     1      42.943 -18.356   5.529  1.00  0.00     0.013 A 
HETATM   27  C   UNL     1      44.368 -20.730   5.371  1.00  0.00     0.012 A 
HETATM   28  C   UNL     1      44.470 -20.565   2.966  1.00  0.00     0.012 A 
HETATM   29  C   UNL     1      43.974 -20.247   6.615  1.00  0.00     0.001 A 
HETATM   30  C   UNL     1      43.262 -19.060   6.694  1.00  0.00     0.001 A 
HETATM   31  C   UNL     1      44.174 -19.919   1.776  1.00  0.00     0.002 A 
HETATM   32  C   UNL     1      43.456 -18.729   1.795  1.00  0.00     0.010 A 
ENDBRANCH   1  23
TORSDOF 7
ENDMDL
MODEL 10
REMARK VINA RESULT:      -7.0      4.031      7.306
REMARK  7 active torsions:
REMARK  status: ('A' for Active; 'I' for Inactive)
REMARK    1  A    between atoms: O_2  and  C_3 
REMARK    2  A    between atoms: C_4  and  O_5 
REMARK    3  A    between atoms: C_7  and  C_8 
REMARK       I    between atoms: C_8  and  N_9 
REMARK    4  A    between atoms: N_9  and  C_10 
REMARK    5  A    between atoms: C_10  and  C_11 
REMARK    6  A    between atoms: C_11  and  N_12 
REMARK    7  A    between atoms: C_11  and  C_18 
ROOT
HETATM    1  C   UNL     1      43.960 -15.576   6.397  1.00  0.00     0.239 C 
ENDROOT
BRANCH   1   2
HETATM    2  C   UNL     1      44.044 -14.508   7.541  1.00  0.00     0.161 C 
BRANCH   2   3
HETATM    3  N   UNL     1      45.094 -13.504   7.452  1.00  0.00    -0.354 N 
HETATM    4  C   UNL     1      45.445 -12.522   8.350  1.00  0.00     0.254 C 
HETATM    5  O   UNL     1      46.501 -11.922   8.195  1.00  0.00    -0.268 OA
HETATM    6  H   UNL     1      45.873 -13.688   6.824  1.00  0.00     0.162 HD
BRANCH   4   7
HETATM    7  C   UNL     1      44.545 -12.173   9.469  1.00  0.00     0.068 A 
HETATM    8  C   UNL     1      43.442 -11.322   9.239  1.00  0.00     0.117 A 
HETATM    9  C   UNL     1      42.672 -10.925  10.345  1.00  0.00     0.102 A 
HETATM   10  C   UNL     1      42.944 -11.461  11.614  1.00  0.00     0.040 A 
HETATM   11  C   UNL     1      44.021 -12.323  11.816  1.00  0.00     0.004 A 
HETATM   12  C   UNL     1      44.844 -12.658  10.748  1.00  0.00     0.020 A 
BRANCH   8  13
HETATM   13  O   UNL     1      43.223 -11.013   7.921  1.00  0.00    -0.352 OA
HETATM   14  C   UNL     1      42.000 -11.378   7.300  1.00  0.00     0.210 C 
ENDBRANCH   8  13
BRANCH   9  15
HETATM   15  O   UNL     1      41.616 -10.068  10.177  1.00  0.00    -0.353 OA
HETATM   16  C   UNL     1      40.352 -10.614  10.567  1.00  0.00     0.210 C 
ENDBRANCH   9  15
ENDBRANCH   4   7
ENDBRANCH   2   3
ENDBRANCH   1   2
BRANCH   1  17
HETATM   17  N   UNL     1      44.087 -17.022   6.879  1.00  0.00    -0.061 N 
HETATM   18  H   UNL     1      44.150 -16.935   7.903  1.00  0.00     0.280 HD
HETATM   19  C   UNL     1      45.317 -17.802   6.474  1.00  0.00     0.236 C 
HETATM   20  C   UNL     1      44.774 -18.991   5.706  1.00  0.00     0.029 C 
HETATM   21  C   UNL     1      43.467 -19.288   6.411  1.00  0.00     0.029 C 
HETATM   22  C   UNL     1      42.880 -17.906   6.631  1.00  0.00     0.236 C 
ENDBRANCH   1  17
BRANCH   1  23
HETATM   23  C   UNL     1      42.713 -15.421   5.520  1.00  0.00    -0.015 A 
HETATM   24  C   UNL     1      42.721 -15.814   4.142  1.00  0.00    -0.018 A 
HETATM   25  C   UNL     1      41.526 -15.660   3.386  1.00  0.00    -0.025 A 
HETATM   26  C   UNL     1      43.843 -16.350   3.456  1.00  0.00     0.013 A 
HETATM   27  C   UNL     1      41.485 -16.025   2.033  1.00  0.00     0.012 A 
HETATM   28  C   UNL     1      40.373 -15.139   3.982  1.00  0.00     0.012 A 
HETATM   29  C   UNL     1      42.605 -16.550   1.396  1.00  0.00     0.001 A 
HETATM   30  C   UNL     1      43.783 -16.712   2.108  1.00  0.00     0.001 A 
HETATM   31  C   UNL     1      40.367 -14.772   5.318  1.00  0.00     0.002 A 
HETATM   32  C   UNL     1      41.519 -14.919   6.083  1.00  0.00     0.010 A 
ENDBRANCH   1  23
TORSDOF 7
ENDMDL
