MODEL 1
REMARK VINA RESULT:      -8.9      0.000      0.000
REMARK  5 active torsions:
REMARK  status: ('A' for Active; 'I' for Inactive)
REMARK    1  A    between atoms: C_8  and  C_9 
REMARK    2  A    between atoms: C_13  and  C_14 
REMARK    3  A    between atoms: C_14  and  O_15 
REMARK    4  A    between atoms: O_15  and  C_16 
REMARK    5  A    between atoms: C_27  and  N_28 
ROOT
HETATM    1  C   UNL     1      44.973 -20.627   3.154  1.00  0.00     0.073 C 
HETATM    2  C   UNL     1      44.571 -20.602   4.582  1.00  0.00     0.062 A 
HETATM    3  N   UNL     1      44.407 -21.750   5.262  1.00  0.00    -0.177 NA
HETATM    4  N   UNL     1      44.036 -21.354   6.498  1.00  0.00    -0.256 N 
HETATM    5  H   UNL     1      43.846 -22.059   7.201  1.00  0.00     0.191 HD
HETATM    6  C   UNL     1      43.985 -20.004   6.622  1.00  0.00     0.175 A 
HETATM    7  C   UNL     1      44.309 -19.479   5.400  1.00  0.00     0.035 A 
HETATM    8  C   UNL     1      44.329 -18.002   5.186  1.00  0.00     0.112 A 
HETATM    9  C   UNL     1      44.071 -17.290   6.529  1.00  0.00     0.081 A 
HETATM   10  C   UNL     1      44.195 -15.871   6.527  1.00  0.00     0.100 C 
HETATM   11  N   UNL     1      44.325 -14.717   6.548  1.00  0.00    -0.191 NA
HETATM   12  C   UNL     1      43.760 -17.951   7.678  1.00  0.00     0.140 A 
HETATM   13  O   UNL     1      43.680 -19.353   7.736  1.00  0.00    -0.279 OA
ENDROOT
BRANCH   8  14
HETATM   14  C   UNL     1      43.344 -17.602   4.102  1.00  0.00    -0.003 A 
HETATM   15  S   UNL     1      41.668 -17.552   4.436  1.00  0.00    -0.098 SA
HETATM   16  C   UNL     1      41.286 -17.062   2.843  1.00  0.00    -0.013 A 
HETATM   17  C   UNL     1      39.860 -16.817   2.465  1.00  0.00     0.057 C 
HETATM   18  C   UNL     1      42.413 -16.946   2.045  1.00  0.00    -0.020 A 
HETATM   19  C   UNL     1      43.600 -17.254   2.790  1.00  0.00     0.026 A 
BRANCH  18  20
HETATM   20  C   UNL     1      42.420 -16.541   0.596  1.00  0.00     0.215 C 
BRANCH  20  21
HETATM   21  O   UNL     1      41.928 -15.208   0.456  1.00  0.00    -0.347 OA
BRANCH  21  22
HETATM   22  C   UNL     1      41.037 -14.973  -0.553  1.00  0.00     0.069 A 
HETATM   23  C   UNL     1      39.941 -14.107  -0.499  1.00  0.00     0.040 A 
HETATM   24  C   UNL     1      39.107 -13.966  -1.613  1.00  0.00     0.045 A 
HETATM   25  C   UNL     1      39.375 -14.684  -2.772  1.00  0.00     0.116 A 
HETATM   26  F   UNL     1      38.572 -14.544  -3.835  1.00  0.00    -0.206 F 
HETATM   27  C   UNL     1      40.462 -15.544  -2.842  1.00  0.00     0.045 A 
HETATM   28  C   UNL     1      41.293 -15.685  -1.730  1.00  0.00     0.040 A 
ENDBRANCH  21  22
ENDBRANCH  20  21
ENDBRANCH  18  20
ENDBRANCH   8  14
BRANCH  12  29
HETATM   29  N   UNL     1      43.511 -17.360   8.897  1.00  0.00    -0.282 NA
HETATM   30  H   UNL     1      42.537 -17.138   9.090  1.00  0.00     0.126 HD
HETATM   31  H   UNL     1      44.142 -16.586   9.085  1.00  0.00     0.126 HD
ENDBRANCH  12  29
TORSDOF 5
ENDMDL
MODEL 2
REMARK VINA RESULT:      -8.7      2.915      4.060
REMARK  5 active torsions:
REMARK  status: ('A' for Active; 'I' for Inactive)
REMARK    1  A    between atoms: C_8  and  C_9 
REMARK    2  A    between atoms: C_13  and  C_14 
REMARK    3  A    between atoms: C_14  and  O_15 
REMARK    4  A    between atoms: O_15  and  C_16 
REMARK    5  A    between atoms: C_27  and  N_28 
ROOT
HETATM    1  C   UNL     1      45.004 -20.732   3.350  1.00  0.00     0.073 C 
HETATM    2  C   UNL     1      44.573 -20.671   4.768  1.00  0.00     0.062 A 
HETATM    3  N   UNL     1      44.365 -21.801   5.465  1.00  0.00    -0.177 NA
HETATM    4  N   UNL     1      43.978 -21.374   6.685  1.00  0.00    -0.256 N 
HETATM    5  H   UNL     1      43.756 -22.061   7.396  1.00  0.00     0.191 HD
HETATM    6  C   UNL     1      43.959 -20.021   6.784  1.00  0.00     0.175 A 
HETATM    7  C   UNL     1      44.322 -19.527   5.560  1.00  0.00     0.035 A 
HETATM    8  C   UNL     1      44.382 -18.055   5.321  1.00  0.00     0.112 A 
HETATM    9  C   UNL     1      44.114 -17.313   6.644  1.00  0.00     0.081 A 
HETATM   10  C   UNL     1      44.274 -15.897   6.620  1.00  0.00     0.100 C 
HETATM   11  N   UNL     1      44.432 -14.747   6.623  1.00  0.00    -0.191 NA
HETATM   12  C   UNL     1      43.763 -17.944   7.799  1.00  0.00     0.140 A 
HETATM   13  O   UNL     1      43.646 -19.343   7.879  1.00  0.00    -0.279 OA
ENDROOT
BRANCH   8  14
HETATM   14  C   UNL     1      43.432 -17.650   4.209  1.00  0.00    -0.003 A 
HETATM   15  S   UNL     1      43.992 -17.529   2.598  1.00  0.00    -0.098 SA
HETATM   16  C   UNL     1      42.454 -17.063   2.015  1.00  0.00    -0.013 A 
HETATM   17  C   UNL     1      42.264 -16.797   0.556  1.00  0.00     0.057 C 
HETATM   18  C   UNL     1      41.512 -16.981   3.028  1.00  0.00    -0.020 A 
HETATM   19  C   UNL     1      42.090 -17.332   4.293  1.00  0.00     0.026 A 
BRANCH  18  20
HETATM   20  C   UNL     1      40.069 -16.592   2.851  1.00  0.00     0.215 C 
BRANCH  20  21
HETATM   21  O   UNL     1      39.963 -15.185   2.630  1.00  0.00    -0.347 OA
BRANCH  21  22
HETATM   22  C   UNL     1      40.529 -14.362   3.563  1.00  0.00     0.069 A 
HETATM   23  C   UNL     1      41.657 -13.558   3.376  1.00  0.00     0.040 A 
HETATM   24  C   UNL     1      42.129 -12.763   4.425  1.00  0.00     0.045 A 
HETATM   25  C   UNL     1      41.472 -12.772   5.650  1.00  0.00     0.116 A 
HETATM   26  F   UNL     1      41.929 -12.009   6.650  1.00  0.00    -0.206 F 
HETATM   27  C   UNL     1      40.347 -13.562   5.849  1.00  0.00     0.045 A 
HETATM   28  C   UNL     1      39.877 -14.356   4.802  1.00  0.00     0.040 A 
ENDBRANCH  21  22
ENDBRANCH  20  21
ENDBRANCH  18  20
ENDBRANCH   8  14
BRANCH  12  29
HETATM   29  N   UNL     1      43.502 -17.325   9.000  1.00  0.00    -0.282 NA
HETATM   30  H   UNL     1      44.263 -17.329   9.675  1.00  0.00     0.126 HD
HETATM   31  H   UNL     1      42.614 -17.618   9.400  1.00  0.00     0.126 HD
ENDBRANCH  12  29
TORSDOF 5
ENDMDL
MODEL 3
REMARK VINA RESULT:      -8.7      5.005      8.480
REMARK  5 active torsions:
REMARK  status: ('A' for Active; 'I' for Inactive)
REMARK    1  A    between atoms: C_8  and  C_9 
REMARK    2  A    between atoms: C_13  and  C_14 
REMARK    3  A    between atoms: C_14  and  O_15 
REMARK    4  A    between atoms: O_15  and  C_16 
REMARK    5  A    between atoms: C_27  and  N_28 
ROOT
HETATM    1  C   UNL     1      40.253 -16.152  -2.162  1.00  0.00     0.073 C 
HETATM    2  C   UNL     1      41.145 -14.980  -2.342  1.00  0.00     0.062 A 
HETATM    3  N   UNL     1      41.765 -14.772  -3.517  1.00  0.00    -0.177 NA
HETATM    4  N   UNL     1      42.487 -13.649  -3.319  1.00  0.00    -0.256 N 
HETATM    5  H   UNL     1      43.054 -13.292  -4.078  1.00  0.00     0.191 HD
HETATM    6  C   UNL     1      42.323 -13.135  -2.073  1.00  0.00     0.175 A 
HETATM    7  C   UNL     1      41.475 -13.976  -1.404  1.00  0.00     0.035 A 
HETATM    8  C   UNL     1      41.098 -13.705   0.015  1.00  0.00     0.112 A 
HETATM    9  C   UNL     1      41.697 -12.354   0.452  1.00  0.00     0.081 A 
HETATM   10  C   UNL     1      41.314 -11.879   1.740  1.00  0.00     0.100 C 
HETATM   11  N   UNL     1      40.985 -11.463   2.773  1.00  0.00    -0.191 NA
HETATM   12  C   UNL     1      42.532 -11.617  -0.332  1.00  0.00     0.140 A 
HETATM   13  O   UNL     1      42.892 -12.024  -1.628  1.00  0.00    -0.279 OA
ENDROOT
BRANCH   8  14
HETATM   14  C   UNL     1      41.513 -14.857   0.912  1.00  0.00    -0.003 A 
HETATM   15  S   UNL     1      40.468 -15.406   2.149  1.00  0.00    -0.098 SA
HETATM   16  C   UNL     1      41.572 -16.610   2.655  1.00  0.00    -0.013 A 
HETATM   17  C   UNL     1      41.213 -17.514   3.790  1.00  0.00     0.057 C 
HETATM   18  C   UNL     1      42.739 -16.598   1.908  1.00  0.00    -0.020 A 
HETATM   19  C   UNL     1      42.688 -15.584   0.896  1.00  0.00     0.026 A 
BRANCH  18  20
HETATM   20  C   UNL     1      43.910 -17.523   2.102  1.00  0.00     0.215 C 
BRANCH  20  21
HETATM   21  O   UNL     1      43.591 -18.828   1.616  1.00  0.00    -0.347 OA
BRANCH  21  22
HETATM   22  C   UNL     1      43.963 -19.891   2.390  1.00  0.00     0.069 A 
HETATM   23  C   UNL     1      43.986 -21.231   1.992  1.00  0.00     0.040 A 
HETATM   24  C   UNL     1      44.388 -22.221   2.895  1.00  0.00     0.045 A 
HETATM   25  C   UNL     1      44.768 -21.867   4.185  1.00  0.00     0.116 A 
HETATM   26  F   UNL     1      45.151 -22.819   5.044  1.00  0.00    -0.206 F 
HETATM   27  C   UNL     1      44.754 -20.540   4.592  1.00  0.00     0.045 A 
HETATM   28  C   UNL     1      44.352 -19.554   3.691  1.00  0.00     0.040 A 
ENDBRANCH  21  22
ENDBRANCH  20  21
ENDBRANCH  18  20
ENDBRANCH   8  14
BRANCH  12  29
HETATM   29  N   UNL     1      43.100 -10.413   0.018  1.00  0.00    -0.282 NA
HETATM   30  H   UNL     1      44.117 -10.381   0.000  1.00  0.00     0.126 HD
HETATM   31  H   UNL     1      42.704 -10.035   0.875  1.00  0.00     0.126 HD
ENDBRANCH  12  29
TORSDOF 5
ENDMDL
MODEL 4
REMARK VINA RESULT:      -8.6      1.960      2.522
REMARK  5 active torsions:
REMARK  status: ('A' for Active; 'I' for Inactive)
REMARK    1  A    between atoms: C_8  and  C_9 
REMARK    2  A    between atoms: C_13  and  C_14 
REMARK    3  A    between atoms: C_14  and  O_15 
REMARK    4  A    between atoms: O_15  and  C_16 
REMARK    5  A    between atoms: C_27  and  N_28 
ROOT
HETATM    1  C   UNL     1      44.967 -20.643   3.243  1.00  0.00     0.073 C 
HETATM    2  C   UNL     1      44.547 -20.624   4.666  1.00  0.00     0.062 A 
HETATM    3  N   UNL     1      44.328 -21.775   5.325  1.00  0.00    -0.177 NA
HETATM    4  N   UNL     1      43.958 -21.385   6.562  1.00  0.00    -0.256 N 
HETATM    5  H   UNL     1      43.730 -22.092   7.251  1.00  0.00     0.191 HD
HETATM    6  C   UNL     1      43.960 -20.035   6.708  1.00  0.00     0.175 A 
HETATM    7  C   UNL     1      44.321 -19.505   5.499  1.00  0.00     0.035 A 
HETATM    8  C   UNL     1      44.403 -18.026   5.310  1.00  0.00     0.112 A 
HETATM    9  C   UNL     1      44.156 -17.327   6.661  1.00  0.00     0.081 A 
HETATM   10  C   UNL     1      44.338 -15.913   6.684  1.00  0.00     0.100 C 
HETATM   11  N   UNL     1      44.514 -14.767   6.726  1.00  0.00    -0.191 NA
HETATM   12  C   UNL     1      43.804 -17.993   7.796  1.00  0.00     0.140 A 
HETATM   13  O   UNL     1      43.666 -19.391   7.829  1.00  0.00    -0.279 OA
ENDROOT
BRANCH   8  14
HETATM   14  C   UNL     1      43.450 -17.569   4.221  1.00  0.00    -0.003 A 
HETATM   15  S   UNL     1      43.951 -17.559   2.586  1.00  0.00    -0.098 SA
HETATM   16  C   UNL     1      42.442 -16.964   2.045  1.00  0.00    -0.013 A 
HETATM   17  C   UNL     1      42.217 -16.731   0.586  1.00  0.00     0.057 C 
HETATM   18  C   UNL     1      41.556 -16.755   3.090  1.00  0.00    -0.020 A 
HETATM   19  C   UNL     1      42.150 -17.117   4.344  1.00  0.00     0.026 A 
BRANCH  18  20
HETATM   20  C   UNL     1      40.151 -16.232   2.954  1.00  0.00     0.215 C 
BRANCH  20  21
HETATM   21  O   UNL     1      40.117 -14.833   3.240  1.00  0.00    -0.347 OA
BRANCH  21  22
HETATM   22  C   UNL     1      39.266 -14.064   2.498  1.00  0.00     0.069 A 
HETATM   23  C   UNL     1      39.100 -12.680   2.607  1.00  0.00     0.040 A 
HETATM   24  C   UNL     1      38.187 -12.019   1.779  1.00  0.00     0.045 A 
HETATM   25  C   UNL     1      37.450 -12.741   0.848  1.00  0.00     0.116 A 
HETATM   26  F   UNL     1      36.577 -12.102   0.059  1.00  0.00    -0.206 F 
HETATM   27  C   UNL     1      37.607 -14.115   0.725  1.00  0.00     0.045 A 
HETATM   28  C   UNL     1      38.518 -14.774   1.552  1.00  0.00     0.040 A 
ENDBRANCH  21  22
ENDBRANCH  20  21
ENDBRANCH  18  20
ENDBRANCH   8  14
BRANCH  12  29
HETATM   29  N   UNL     1      43.563 -17.412   9.020  1.00  0.00    -0.282 NA
HETATM   30  H   UNL     1      42.584 -17.329   9.286  1.00  0.00     0.126 HD
HETATM   31  H   UNL     1      44.085 -16.548   9.146  1.00  0.00     0.126 HD
ENDBRANCH  12  29
TORSDOF 5
ENDMDL
MODEL 5
REMARK VINA RESULT:      -8.4      4.237      7.331
REMARK  5 active torsions:
REMARK  status: ('A' for Active; 'I' for Inactive)
REMARK    1  A    between atoms: C_8  and  C_9 
REMARK    2  A    between atoms: C_13  and  C_14 
REMARK    3  A    between atoms: C_14  and  O_15 
REMARK    4  A    between atoms: O_15  and  C_16 
REMARK    5  A    between atoms: C_27  and  N_28 
ROOT
HETATM    1  C   UNL     1      40.601 -17.051   1.717  1.00  0.00     0.073 C 
HETATM    2  C   UNL     1      40.558 -15.591   1.460  1.00  0.00     0.062 A 
HETATM    3  N   UNL     1      40.752 -15.113   0.218  1.00  0.00    -0.177 NA
HETATM    4  N   UNL     1      40.660 -13.774   0.358  1.00  0.00    -0.256 N 
HETATM    5  H   UNL     1      40.779 -13.188  -0.459  1.00  0.00     0.191 HD
HETATM    6  C   UNL     1      40.392 -13.399   1.635  1.00  0.00     0.175 A 
HETATM    7  C   UNL     1      40.335 -14.544   2.383  1.00  0.00     0.035 A 
HETATM    8  C   UNL     1      40.073 -14.481   3.851  1.00  0.00     0.112 A 
HETATM    9  C   UNL     1      39.778 -13.023   4.254  1.00  0.00     0.081 A 
HETATM   10  C   UNL     1      39.369 -12.810   5.602  1.00  0.00     0.100 C 
HETATM   11  N   UNL     1      39.003 -12.624   6.688  1.00  0.00    -0.191 NA
HETATM   12  C   UNL     1      39.872 -11.975   3.390  1.00  0.00     0.140 A 
HETATM   13  O   UNL     1      40.221 -12.148   2.039  1.00  0.00    -0.279 OA
ENDROOT
BRANCH   8  14
HETATM   14  C   UNL     1      41.224 -15.093   4.629  1.00  0.00    -0.003 A 
HETATM   15  S   UNL     1      42.410 -14.090   5.344  1.00  0.00    -0.098 SA
HETATM   16  C   UNL     1      43.275 -15.425   5.970  1.00  0.00    -0.013 A 
HETATM   17  C   UNL     1      44.514 -15.194   6.773  1.00  0.00     0.057 C 
HETATM   18  C   UNL     1      42.687 -16.634   5.634  1.00  0.00    -0.020 A 
HETATM   19  C   UNL     1      41.494 -16.427   4.865  1.00  0.00     0.026 A 
BRANCH  18  20
HETATM   20  C   UNL     1      43.201 -17.994   6.024  1.00  0.00     0.215 C 
BRANCH  20  21
HETATM   21  O   UNL     1      44.371 -18.311   5.268  1.00  0.00    -0.347 OA
BRANCH  21  22
HETATM   22  C   UNL     1      44.220 -19.168   4.214  1.00  0.00     0.069 A 
HETATM   23  C   UNL     1      43.626 -18.865   2.986  1.00  0.00     0.040 A 
HETATM   24  C   UNL     1      43.538 -19.846   1.992  1.00  0.00     0.045 A 
HETATM   25  C   UNL     1      44.046 -21.118   2.229  1.00  0.00     0.116 A 
HETATM   26  F   UNL     1      43.958 -22.052   1.274  1.00  0.00    -0.206 F 
HETATM   27  C   UNL     1      44.644 -21.431   3.442  1.00  0.00     0.045 A 
HETATM   28  C   UNL     1      44.730 -20.453   4.433  1.00  0.00     0.040 A 
ENDBRANCH  21  22
ENDBRANCH  20  21
ENDBRANCH  18  20
ENDBRANCH   8  14
BRANCH  12  29
HETATM   29  N   UNL     1      39.631 -10.656   3.705  1.00  0.00    -0.282 NA
HETATM   30  H   UNL     1      40.400 -10.012   3.535  1.00  0.00     0.126 HD
HETATM   31  H   UNL     1      39.219 -10.550   4.629  1.00  0.00     0.126 HD
ENDBRANCH  12  29
TORSDOF 5
ENDMDL
MODEL 6
REMARK VINA RESULT:      -8.3      5.489      9.200
REMARK  5 active torsions:
REMARK  status: ('A' for Active; 'I' for Inactive)
REMARK    1  A    between atoms: C_8  and  C_9 
REMARK    2  A    between atoms: C_13  and  C_14 
REMARK    3  A    between atoms: C_14  and  O_15 
REMARK    4  A    between atoms: O_15  and  C_16 
REMARK    5  A    between atoms: C_27  and  N_28 
ROOT
HETATM    1  C   UNL     1      37.870 -13.943   0.281  1.00  0.00     0.073 C 
HETATM    2  C   UNL     1      38.390 -13.828  -1.103  1.00  0.00     0.062 A 
HETATM    3  N   UNL     1      37.662 -14.275  -2.142  1.00  0.00    -0.177 NA
HETATM    4  N   UNL     1      38.434 -14.026  -3.221  1.00  0.00    -0.256 N 
HETATM    5  H   UNL     1      38.091 -14.287  -4.138  1.00  0.00     0.191 HD
HETATM    6  C   UNL     1      39.605 -13.421  -2.898  1.00  0.00     0.175 A 
HETATM    7  C   UNL     1      39.623 -13.289  -1.536  1.00  0.00     0.035 A 
HETATM    8  C   UNL     1      40.794 -12.671  -0.846  1.00  0.00     0.112 A 
HETATM    9  C   UNL     1      41.790 -12.153  -1.901  1.00  0.00     0.081 A 
HETATM   10  C   UNL     1      42.902 -11.408  -1.410  1.00  0.00     0.100 C 
HETATM   11  N   UNL     1      43.794 -10.772  -1.027  1.00  0.00    -0.191 NA
HETATM   12  C   UNL     1      41.638 -12.357  -3.239  1.00  0.00     0.140 A 
HETATM   13  O   UNL     1      40.529 -13.040  -3.768  1.00  0.00    -0.279 OA
ENDROOT
BRANCH   8  14
HETATM   14  C   UNL     1      41.419 -13.648   0.133  1.00  0.00    -0.003 A 
HETATM   15  S   UNL     1      41.800 -13.150   1.724  1.00  0.00    -0.098 SA
HETATM   16  C   UNL     1      42.414 -14.689   2.143  1.00  0.00    -0.013 A 
HETATM   17  C   UNL     1      42.937 -14.928   3.523  1.00  0.00     0.057 C 
HETATM   18  C   UNL     1      42.351 -15.585   1.087  1.00  0.00    -0.020 A 
HETATM   19  C   UNL     1      41.765 -14.971  -0.069  1.00  0.00     0.026 A 
BRANCH  18  20
HETATM   20  C   UNL     1      42.815 -17.016   1.125  1.00  0.00     0.215 C 
BRANCH  20  21
HETATM   21  O   UNL     1      42.206 -17.700   2.222  1.00  0.00    -0.347 OA
BRANCH  21  22
HETATM   22  C   UNL     1      42.993 -18.560   2.936  1.00  0.00     0.069 A 
HETATM   23  C   UNL     1      43.177 -18.550   4.322  1.00  0.00     0.040 A 
HETATM   24  C   UNL     1      44.018 -19.493   4.921  1.00  0.00     0.045 A 
HETATM   25  C   UNL     1      44.665 -20.441   4.136  1.00  0.00     0.116 A 
HETATM   26  F   UNL     1      45.468 -21.341   4.717  1.00  0.00    -0.206 F 
HETATM   27  C   UNL     1      44.488 -20.465   2.760  1.00  0.00     0.045 A 
HETATM   28  C   UNL     1      43.650 -19.523   2.162  1.00  0.00     0.040 A 
ENDBRANCH  21  22
ENDBRANCH  20  21
ENDBRANCH  18  20
ENDBRANCH   8  14
BRANCH  12  29
HETATM   29  N   UNL     1      42.505 -11.924  -4.217  1.00  0.00    -0.282 NA
HETATM   30  H   UNL     1      42.072 -11.559  -5.062  1.00  0.00     0.126 HD
HETATM   31  H   UNL     1      43.240 -12.601  -4.406  1.00  0.00     0.126 HD
ENDBRANCH  12  29
TORSDOF 5
ENDMDL
MODEL 7
REMARK VINA RESULT:      -8.1      4.997      8.232
REMARK  5 active torsions:
REMARK  status: ('A' for Active; 'I' for Inactive)
REMARK    1  A    between atoms: C_8  and  C_9 
REMARK    2  A    between atoms: C_13  and  C_14 
REMARK    3  A    between atoms: C_14  and  O_15 
REMARK    4  A    between atoms: O_15  and  C_16 
REMARK    5  A    between atoms: C_27  and  N_28 
ROOT
HETATM    1  C   UNL     1      41.020 -13.379   5.837  1.00  0.00     0.073 C 
HETATM    2  C   UNL     1      40.108 -12.597   4.967  1.00  0.00     0.062 A 
HETATM    3  N   UNL     1      38.910 -12.193   5.427  1.00  0.00    -0.177 NA
HETATM    4  N   UNL     1      38.359 -11.535   4.386  1.00  0.00    -0.256 N 
HETATM    5  H   UNL     1      37.434 -11.136   4.494  1.00  0.00     0.191 HD
HETATM    6  C   UNL     1      39.175 -11.492   3.302  1.00  0.00     0.175 A 
HETATM    7  C   UNL     1      40.311 -12.181   3.632  1.00  0.00     0.035 A 
HETATM    8  C   UNL     1      41.418 -12.342   2.643  1.00  0.00     0.112 A 
HETATM    9  C   UNL     1      41.088 -11.532   1.374  1.00  0.00     0.081 A 
HETATM   10  C   UNL     1      42.110 -11.465   0.383  1.00  0.00     0.100 C 
HETATM   11  N   UNL     1      42.944 -11.375  -0.419  1.00  0.00    -0.191 NA
HETATM   12  C   UNL     1      39.904 -10.886   1.185  1.00  0.00     0.140 A 
HETATM   13  O   UNL     1      38.891 -10.883   2.160  1.00  0.00    -0.279 OA
ENDROOT
BRANCH   8  14
HETATM   14  C   UNL     1      41.679 -13.810   2.361  1.00  0.00    -0.003 A 
HETATM   15  S   UNL     1      40.417 -14.817   1.799  1.00  0.00    -0.098 SA
HETATM   16  C   UNL     1      41.433 -16.191   1.738  1.00  0.00    -0.013 A 
HETATM   17  C   UNL     1      40.882 -17.501   1.275  1.00  0.00     0.057 C 
HETATM   18  C   UNL     1      42.725 -15.906   2.153  1.00  0.00    -0.020 A 
HETATM   19  C   UNL     1      42.855 -14.521   2.503  1.00  0.00     0.026 A 
BRANCH  18  20
HETATM   20  C   UNL     1      43.858 -16.893   2.223  1.00  0.00     0.215 C 
BRANCH  20  21
HETATM   21  O   UNL     1      43.884 -17.520   3.506  1.00  0.00    -0.347 OA
BRANCH  21  22
HETATM   22  C   UNL     1      44.123 -18.866   3.540  1.00  0.00     0.069 A 
HETATM   23  C   UNL     1      44.591 -19.592   4.638  1.00  0.00     0.040 A 
HETATM   24  C   UNL     1      44.793 -20.972   4.529  1.00  0.00     0.045 A 
HETATM   25  C   UNL     1      44.522 -21.617   3.327  1.00  0.00     0.116 A 
HETATM   26  F   UNL     1      44.718 -22.937   3.229  1.00  0.00    -0.206 F 
HETATM   27  C   UNL     1      44.052 -20.909   2.230  1.00  0.00     0.045 A 
HETATM   28  C   UNL     1      43.852 -19.532   2.339  1.00  0.00     0.040 A 
ENDBRANCH  21  22
ENDBRANCH  20  21
ENDBRANCH  18  20
ENDBRANCH   8  14
BRANCH  12  29
HETATM   29  N   UNL     1      39.559 -10.161   0.067  1.00  0.00    -0.282 NA
HETATM   30  H   UNL     1      40.267 -10.107  -0.662  1.00  0.00     0.126 HD
HETATM   31  H   UNL     1      39.159  -9.256   0.302  1.00  0.00     0.126 HD
ENDBRANCH  12  29
TORSDOF 5
ENDMDL
MODEL 8
REMARK VINA RESULT:      -7.8      4.840      8.449
REMARK  5 active torsions:
REMARK  status: ('A' for Active; 'I' for Inactive)
REMARK    1  A    between atoms: C_8  and  C_9 
REMARK    2  A    between atoms: C_13  and  C_14 
REMARK    3  A    between atoms: C_14  and  O_15 
REMARK    4  A    between atoms: O_15  and  C_16 
REMARK    5  A    between atoms: C_27  and  N_28 
ROOT
HETATM    1  C   UNL     1      41.597 -11.813   4.355  1.00  0.00     0.073 C 
HETATM    2  C   UNL     1      40.289 -11.904   3.661  1.00  0.00     0.062 A 
HETATM    3  N   UNL     1      39.218 -11.248   4.141  1.00  0.00    -0.177 NA
HETATM    4  N   UNL     1      38.224 -11.563   3.285  1.00  0.00    -0.256 N 
HETATM    5  H   UNL     1      37.299 -11.183   3.448  1.00  0.00     0.191 HD
HETATM    6  C   UNL     1      38.638 -12.372   2.277  1.00  0.00     0.175 A 
HETATM    7  C   UNL     1      39.965 -12.629   2.492  1.00  0.00     0.035 A 
HETATM    8  C   UNL     1      40.730 -13.513   1.563  1.00  0.00     0.112 A 
HETATM    9  C   UNL     1      39.828 -13.905   0.376  1.00  0.00     0.081 A 
HETATM   10  C   UNL     1      40.451 -14.636  -0.677  1.00  0.00     0.100 C 
HETATM   11  N   UNL     1      40.952 -15.203  -1.557  1.00  0.00    -0.191 NA
HETATM   12  C   UNL     1      38.511 -13.570   0.295  1.00  0.00     0.140 A 
HETATM   13  O   UNL     1      37.872 -12.805   1.286  1.00  0.00    -0.279 OA
ENDROOT
BRANCH   8  14
HETATM   14  C   UNL     1      41.294 -14.712   2.303  1.00  0.00    -0.003 A 
HETATM   15  S   UNL     1      40.423 -15.413   3.596  1.00  0.00    -0.098 SA
HETATM   16  C   UNL     1      41.628 -16.596   3.870  1.00  0.00    -0.013 A 
HETATM   17  C   UNL     1      41.440 -17.608   4.954  1.00  0.00     0.057 C 
HETATM   18  C   UNL     1      42.700 -16.462   3.001  1.00  0.00    -0.020 A 
HETATM   19  C   UNL     1      42.489 -15.372   2.094  1.00  0.00     0.026 A 
BRANCH  18  20
HETATM   20  C   UNL     1      43.924 -17.338   2.982  1.00  0.00     0.215 C 
BRANCH  20  21
HETATM   21  O   UNL     1      43.689 -18.492   2.175  1.00  0.00    -0.347 OA
BRANCH  21  22
HETATM   22  C   UNL     1      44.024 -19.706   2.706  1.00  0.00     0.069 A 
HETATM   23  C   UNL     1      44.480 -19.938   4.007  1.00  0.00     0.040 A 
HETATM   24  C   UNL     1      44.789 -21.238   4.417  1.00  0.00     0.045 A 
HETATM   25  C   UNL     1      44.639 -22.298   3.529  1.00  0.00     0.116 A 
HETATM   26  F   UNL     1      44.937 -23.540   3.929  1.00  0.00    -0.206 F 
HETATM   27  C   UNL     1      44.183 -22.083   2.236  1.00  0.00     0.045 A 
HETATM   28  C   UNL     1      43.875 -20.785   1.827  1.00  0.00     0.040 A 
ENDBRANCH  21  22
ENDBRANCH  20  21
ENDBRANCH  18  20
ENDBRANCH   8  14
BRANCH  12  29
HETATM   29  N   UNL     1      37.664 -13.907  -0.737  1.00  0.00    -0.282 NA
HETATM   30  H   UNL     1      37.426 -14.893  -0.811  1.00  0.00     0.126 HD
HETATM   31  H   UNL     1      37.955 -13.499  -1.622  1.00  0.00     0.126 HD
ENDBRANCH  12  29
TORSDOF 5
ENDMDL
MODEL 9
REMARK VINA RESULT:      -7.8      4.630      8.370
REMARK  5 active torsions:
REMARK  status: ('A' for Active; 'I' for Inactive)
REMARK    1  A    between atoms: C_8  and  C_9 
REMARK    2  A    between atoms: C_13  and  C_14 
REMARK    3  A    between atoms: C_14  and  O_15 
REMARK    4  A    between atoms: O_15  and  C_16 
REMARK    5  A    between atoms: C_27  and  N_28 
ROOT
HETATM    1  C   UNL     1      40.974 -10.891   4.331  1.00  0.00     0.073 C 
HETATM    2  C   UNL     1      39.781 -11.201   3.506  1.00  0.00     0.062 A 
HETATM    3  N   UNL     1      38.650 -10.490   3.652  1.00  0.00    -0.177 NA
HETATM    4  N   UNL     1      37.791 -11.044   2.771  1.00  0.00    -0.256 N 
HETATM    5  H   UNL     1      36.852 -10.671   2.703  1.00  0.00     0.191 HD
HETATM    6  C   UNL     1      38.350 -12.059   2.064  1.00  0.00     0.175 A 
HETATM    7  C   UNL     1      39.633 -12.204   2.521  1.00  0.00     0.035 A 
HETATM    8  C   UNL     1      40.527 -13.259   1.958  1.00  0.00     0.112 A 
HETATM    9  C   UNL     1      39.808 -13.966   0.792  1.00  0.00     0.081 A 
HETATM   10  C   UNL     1      40.579 -14.909   0.053  1.00  0.00     0.100 C 
HETATM   11  N   UNL     1      41.205 -15.655  -0.579  1.00  0.00    -0.191 NA
HETATM   12  C   UNL     1      38.516 -13.712   0.446  1.00  0.00     0.140 A 
HETATM   13  O   UNL     1      37.737 -12.752   1.115  1.00  0.00    -0.279 OA
ENDROOT
BRANCH   8  14
HETATM   14  C   UNL     1      40.980 -14.216   3.046  1.00  0.00    -0.003 A 
HETATM   15  S   UNL     1      39.936 -14.602   4.343  1.00  0.00    -0.098 SA
HETATM   16  C   UNL     1      41.089 -15.638   5.066  1.00  0.00    -0.013 A 
HETATM   17  C   UNL     1      40.750 -16.354   6.333  1.00  0.00     0.057 C 
HETATM   18  C   UNL     1      42.272 -15.689   4.345  1.00  0.00    -0.020 A 
HETATM   19  C   UNL     1      42.192 -14.867   3.172  1.00  0.00     0.026 A 
BRANCH  18  20
HETATM   20  C   UNL     1      43.485 -16.500   4.713  1.00  0.00     0.215 C 
BRANCH  20  21
HETATM   21  O   UNL     1      43.106 -17.847   4.998  1.00  0.00    -0.347 OA
BRANCH  21  22
HETATM   22  C   UNL     1      43.475 -18.805   4.095  1.00  0.00     0.069 A 
HETATM   23  C   UNL     1      43.002 -18.927   2.785  1.00  0.00     0.040 A 
HETATM   24  C   UNL     1      43.467 -19.962   1.968  1.00  0.00     0.045 A 
HETATM   25  C   UNL     1      44.402 -20.865   2.462  1.00  0.00     0.116 A 
HETATM   26  F   UNL     1      44.843 -21.854   1.675  1.00  0.00    -0.206 F 
HETATM   27  C   UNL     1      44.884 -20.754   3.759  1.00  0.00     0.045 A 
HETATM   28  C   UNL     1      44.419 -19.721   4.573  1.00  0.00     0.040 A 
ENDBRANCH  21  22
ENDBRANCH  20  21
ENDBRANCH  18  20
ENDBRANCH   8  14
BRANCH  12  29
HETATM   29  N   UNL     1      37.829 -14.325  -0.578  1.00  0.00    -0.282 NA
HETATM   30  H   UNL     1      37.153 -15.032  -0.297  1.00  0.00     0.126 HD
HETATM   31  H   UNL     1      38.446 -14.637  -1.324  1.00  0.00     0.126 HD
ENDBRANCH  12  29
TORSDOF 5
ENDMDL
MODEL 10
REMARK VINA RESULT:      -7.6      5.591      9.875
REMARK  5 active torsions:
REMARK  status: ('A' for Active; 'I' for Inactive)
REMARK    1  A    between atoms: C_8  and  C_9 
REMARK    2  A    between atoms: C_13  and  C_14 
REMARK    3  A    between atoms: C_14  and  O_15 
REMARK    4  A    between atoms: O_15  and  C_16 
REMARK    5  A    between atoms: C_27  and  N_28 
ROOT
HETATM    1  C   UNL     1      42.803 -11.637  -1.035  1.00  0.00     0.073 C 
HETATM    2  C   UNL     1      41.482 -11.274  -1.604  1.00  0.00     0.062 A 
HETATM    3  N   UNL     1      41.056  -9.999  -1.575  1.00  0.00    -0.177 NA
HETATM    4  N   UNL     1      39.837 -10.042  -2.153  1.00  0.00    -0.256 N 
HETATM    5  H   UNL     1      39.307  -9.183  -2.241  1.00  0.00     0.191 HD
HETATM    6  C   UNL     1      39.496 -11.290  -2.563  1.00  0.00     0.175 A 
HETATM    7  C   UNL     1      40.527 -12.120  -2.212  1.00  0.00     0.035 A 
HETATM    8  C   UNL     1      40.460 -13.583  -2.506  1.00  0.00     0.112 A 
HETATM    9  C   UNL     1      39.186 -13.880  -3.320  1.00  0.00     0.081 A 
HETATM   10  C   UNL     1      39.042 -15.213  -3.805  1.00  0.00     0.100 C 
HETATM   11  N   UNL     1      38.927 -16.286  -4.233  1.00  0.00    -0.191 NA
HETATM   12  C   UNL     1      38.240 -12.942  -3.600  1.00  0.00     0.140 A 
HETATM   13  O   UNL     1      38.370 -11.604  -3.187  1.00  0.00    -0.279 OA
ENDROOT
BRANCH   8  14
HETATM   14  C   UNL     1      40.551 -14.393  -1.226  1.00  0.00    -0.003 A 
HETATM   15  S   UNL     1      39.613 -13.961   0.136  1.00  0.00    -0.098 SA
HETATM   16  C   UNL     1      40.239 -15.247   1.074  1.00  0.00    -0.013 A 
HETATM   17  C   UNL     1      39.766 -15.438   2.478  1.00  0.00     0.057 C 
HETATM   18  C   UNL     1      41.168 -16.001   0.375  1.00  0.00    -0.020 A 
HETATM   19  C   UNL     1      41.334 -15.500  -0.959  1.00  0.00     0.026 A 
BRANCH  18  20
HETATM   20  C   UNL     1      41.908 -17.195   0.914  1.00  0.00     0.215 C 
BRANCH  20  21
HETATM   21  O   UNL     1      42.832 -16.786   1.923  1.00  0.00    -0.347 OA
BRANCH  21  22
HETATM   22  C   UNL     1      43.398 -17.768   2.687  1.00  0.00     0.069 A 
HETATM   23  C   UNL     1      43.705 -17.678   4.048  1.00  0.00     0.040 A 
HETATM   24  C   UNL     1      44.288 -18.767   4.705  1.00  0.00     0.045 A 
HETATM   25  C   UNL     1      44.556 -19.936   4.003  1.00  0.00     0.116 A 
HETATM   26  F   UNL     1      45.114 -20.974   4.639  1.00  0.00    -0.206 F 
HETATM   27  C   UNL     1      44.252 -20.041   2.653  1.00  0.00     0.045 A 
HETATM   28  C   UNL     1      43.672 -18.955   1.997  1.00  0.00     0.040 A 
ENDBRANCH  21  22
ENDBRANCH  20  21
ENDBRANCH  18  20
ENDBRANCH   8  14
BRANCH  12  29
HETATM   29  N   UNL     1      37.082 -13.162  -4.312  1.00  0.00    -0.282 NA
HETATM   30  H   UNL     1      36.641 -12.335  -4.707  1.00  0.00     0.126 HD
HETATM   31  H   UNL     1      36.431 -13.762  -3.812  1.00  0.00     0.126 HD
ENDBRANCH  12  29
TORSDOF 5
ENDMDL
