MODEL 1
REMARK VINA RESULT:      -8.0      0.000      0.000
REMARK  8 active torsions:
REMARK  status: ('A' for Active; 'I' for Inactive)
REMARK    1  A    between atoms: C_2  and  C_3 
REMARK    2  A    between atoms: C_3  and  N_4 
REMARK    3  A    between atoms: C_3  and  C_19 
REMARK       I    between atoms: C_19  and  N_20 
REMARK    4  A    between atoms: N_20  and  C_21 
REMARK    5  A    between atoms: C_21  and  C_22 
REMARK    6  A    between atoms: C_22  and  C_23 
REMARK    7  A    between atoms: C_23  and  O_24 
REMARK    8  A    between atoms: O_24  and  C_25 
ROOT
HETATM    1  N   UNL     1      42.407 -16.241   4.638  1.00  0.00    -0.220 N 
HETATM    2  N   UNL     1      42.357 -16.035   3.256  1.00  0.00    -0.172 NA
HETATM    3  C   UNL     1      42.820 -16.950   2.455  1.00  0.00     0.069 A 
HETATM    4  C   UNL     1      42.792 -16.687   0.973  1.00  0.00     0.074 C 
HETATM    5  C   UNL     1      43.335 -18.185   2.987  1.00  0.00     0.048 A 
HETATM    6  C   UNL     1      43.405 -18.420   4.338  1.00  0.00     0.064 A 
HETATM    7  C   UNL     1      42.966 -17.378   5.256  1.00  0.00     0.277 A 
HETATM    8  O   UNL     1      43.058 -17.498   6.476  1.00  0.00    -0.266 OA
HETATM    9  S   UNL     1      43.889 -19.481   2.057  1.00  0.00    -0.086 SA
HETATM   10  C   UNL     1      44.218 -20.432   3.456  1.00  0.00     0.017 A 
HETATM   11  C   UNL     1      43.915 -19.736   4.633  1.00  0.00    -0.002 A 
HETATM   12  C   UNL     1      44.721 -21.747   3.481  1.00  0.00     0.020 A 
HETATM   13  C   UNL     1      44.920 -22.375   4.712  1.00  0.00     0.001 A 
HETATM   14  C   UNL     1      44.629 -21.710   5.894  1.00  0.00     0.001 A 
HETATM   15  C   UNL     1      44.133 -20.403   5.865  1.00  0.00     0.014 A 
ENDROOT
BRANCH   1  16
HETATM   16  C   UNL     1      41.973 -15.130   5.495  1.00  0.00     0.205 C 
BRANCH  16  17
HETATM   17  C   UNL     1      40.797 -14.340   4.897  1.00  0.00     0.032 C 
HETATM   18  C   UNL     1      40.102 -13.450   5.916  1.00  0.00     0.007 C 
ENDBRANCH  16  17
BRANCH  16  19
HETATM   19  C   UNL     1      43.184 -14.209   5.755  1.00  0.00     0.242 C 
HETATM   20  N   UNL     1      43.803 -14.415   6.976  1.00  0.00    -0.359 N 
HETATM   21  H   UNL     1      43.542 -15.213   7.543  1.00  0.00     0.162 HD
HETATM   22  O   UNL     1      43.556 -13.334   4.977  1.00  0.00    -0.271 OA
BRANCH  20  23
HETATM   23  C   UNL     1      44.959 -13.648   7.394  1.00  0.00     0.125 C 
BRANCH  23  24
HETATM   24  C   UNL     1      44.783 -13.015   8.774  1.00  0.00     0.046 C 
BRANCH  24  25
HETATM   25  C   UNL     1      45.648 -11.776   8.984  1.00  0.00     0.169 C 
BRANCH  25  26
HETATM   26  O   UNL     1      44.810 -10.651   9.239  1.00  0.00    -0.387 OA
BRANCH  26  27
HETATM   27  C   UNL     1      43.723 -10.927  10.126  1.00  0.00     0.113 C 
HETATM   28  C   UNL     1      43.972 -10.323  11.506  1.00  0.00     0.039 C 
HETATM   29  C   UNL     1      42.477 -10.308   9.500  1.00  0.00     0.039 C 
ENDBRANCH  26  27
ENDBRANCH  25  26
ENDBRANCH  24  25
ENDBRANCH  23  24
ENDBRANCH  20  23
ENDBRANCH  16  19
ENDBRANCH   1  16
TORSDOF 8
ENDMDL
MODEL 2
REMARK VINA RESULT:      -8.0      2.114      3.259
REMARK  8 active torsions:
REMARK  status: ('A' for Active; 'I' for Inactive)
REMARK    1  A    between atoms: C_2  and  C_3 
REMARK    2  A    between atoms: C_3  and  N_4 
REMARK    3  A    between atoms: C_3  and  C_19 
REMARK       I    between atoms: C_19  and  N_20 
REMARK    4  A    between atoms: N_20  and  C_21 
REMARK    5  A    between atoms: C_21  and  C_22 
REMARK    6  A    between atoms: C_22  and  C_23 
REMARK    7  A    between atoms: C_23  and  O_24 
REMARK    8  A    between atoms: O_24  and  C_25 
ROOT
HETATM    1  N   UNL     1      42.404 -15.448   4.116  1.00  0.00    -0.220 N 
HETATM    2  N   UNL     1      42.970 -15.308   5.387  1.00  0.00    -0.172 NA
HETATM    3  C   UNL     1      43.602 -16.314   5.919  1.00  0.00     0.069 A 
HETATM    4  C   UNL     1      44.167 -16.152   7.306  1.00  0.00     0.074 C 
HETATM    5  C   UNL     1      43.760 -17.541   5.185  1.00  0.00     0.048 A 
HETATM    6  C   UNL     1      43.214 -17.717   3.937  1.00  0.00     0.064 A 
HETATM    7  C   UNL     1      42.434 -16.634   3.354  1.00  0.00     0.277 A 
HETATM    8  O   UNL     1      41.867 -16.746   2.268  1.00  0.00    -0.266 OA
HETATM    9  S   UNL     1      44.626 -18.887   5.727  1.00  0.00    -0.086 SA
HETATM   10  C   UNL     1      44.320 -19.755   4.269  1.00  0.00     0.017 A 
HETATM   11  C   UNL     1      43.538 -19.007   3.381  1.00  0.00    -0.002 A 
HETATM   12  C   UNL     1      44.776 -21.048   3.949  1.00  0.00     0.020 A 
HETATM   13  C   UNL     1      44.440 -21.598   2.711  1.00  0.00     0.001 A 
HETATM   14  C   UNL     1      43.666 -20.881   1.811  1.00  0.00     0.001 A 
HETATM   15  C   UNL     1      43.212 -19.599   2.134  1.00  0.00     0.014 A 
ENDROOT
BRANCH   1  16
HETATM   16  C   UNL     1      41.608 -14.322   3.611  1.00  0.00     0.205 C 
BRANCH  16  17
HETATM   17  C   UNL     1      42.462 -13.264   2.892  1.00  0.00     0.032 C 
HETATM   18  C   UNL     1      42.077 -13.084   1.431  1.00  0.00     0.007 C 
ENDBRANCH  16  17
BRANCH  16  19
HETATM   19  C   UNL     1      40.834 -13.700   4.793  1.00  0.00     0.242 C 
HETATM   20  N   UNL     1      41.442 -12.588   5.347  1.00  0.00    -0.359 N 
HETATM   21  H   UNL     1      42.241 -12.169   4.886  1.00  0.00     0.162 HD
HETATM   22  O   UNL     1      39.789 -14.163   5.244  1.00  0.00    -0.271 OA
BRANCH  20  23
HETATM   23  C   UNL     1      40.863 -11.866   6.463  1.00  0.00     0.125 C 
BRANCH  23  24
HETATM   24  C   UNL     1      41.757 -10.735   6.966  1.00  0.00     0.046 C 
BRANCH  24  25
HETATM   25  C   UNL     1      42.011 -10.790   8.470  1.00  0.00     0.169 C 
BRANCH  25  26
HETATM   26  O   UNL     1      43.384 -10.509   8.729  1.00  0.00    -0.387 OA
BRANCH  26  27
HETATM   27  C   UNL     1      44.061 -11.538   9.455  1.00  0.00     0.113 C 
HETATM   28  C   UNL     1      44.640 -12.589   8.511  1.00  0.00     0.039 C 
HETATM   29  C   UNL     1      45.182 -10.861  10.236  1.00  0.00     0.039 C 
ENDBRANCH  26  27
ENDBRANCH  25  26
ENDBRANCH  24  25
ENDBRANCH  23  24
ENDBRANCH  20  23
ENDBRANCH  16  19
ENDBRANCH   1  16
TORSDOF 8
ENDMDL
MODEL 3
REMARK VINA RESULT:      -7.8      3.573      6.542
REMARK  8 active torsions:
REMARK  status: ('A' for Active; 'I' for Inactive)
REMARK    1  A    between atoms: C_2  and  C_3 
REMARK    2  A    between atoms: C_3  and  N_4 
REMARK    3  A    between atoms: C_3  and  C_19 
REMARK       I    between atoms: C_19  and  N_20 
REMARK    4  A    between atoms: N_20  and  C_21 
REMARK    5  A    between atoms: C_21  and  C_22 
REMARK    6  A    between atoms: C_22  and  C_23 
REMARK    7  A    between atoms: C_23  and  O_24 
REMARK    8  A    between atoms: O_24  and  C_25 
ROOT
HETATM    1  N   UNL     1      42.912 -15.857   3.748  1.00  0.00    -0.220 N 
HETATM    2  N   UNL     1      43.301 -15.725   5.084  1.00  0.00    -0.172 NA
HETATM    3  C   UNL     1      43.752 -16.765   5.725  1.00  0.00     0.069 A 
HETATM    4  C   UNL     1      44.125 -16.606   7.175  1.00  0.00     0.074 C 
HETATM    5  C   UNL     1      43.895 -18.027   5.048  1.00  0.00     0.048 A 
HETATM    6  C   UNL     1      43.519 -18.195   3.738  1.00  0.00     0.064 A 
HETATM    7  C   UNL     1      42.938 -17.067   3.024  1.00  0.00     0.277 A 
HETATM    8  O   UNL     1      42.524 -17.165   1.870  1.00  0.00    -0.266 OA
HETATM    9  S   UNL     1      44.541 -19.426   5.739  1.00  0.00    -0.086 SA
HETATM   10  C   UNL     1      44.366 -20.313   4.272  1.00  0.00     0.017 A 
HETATM   11  C   UNL     1      43.794 -19.528   3.263  1.00  0.00    -0.002 A 
HETATM   12  C   UNL     1      44.737 -21.653   4.050  1.00  0.00     0.020 A 
HETATM   13  C   UNL     1      44.531 -22.213   2.788  1.00  0.00     0.001 A 
HETATM   14  C   UNL     1      43.966 -21.461   1.769  1.00  0.00     0.001 A 
HETATM   15  C   UNL     1      43.595 -20.132   1.995  1.00  0.00     0.014 A 
ENDROOT
BRANCH   1  16
HETATM   16  C   UNL     1      42.308 -14.681   3.108  1.00  0.00     0.205 C 
BRANCH  16  17
HETATM   17  C   UNL     1      42.739 -13.359   3.765  1.00  0.00     0.032 C 
HETATM   18  C   UNL     1      41.845 -12.188   3.382  1.00  0.00     0.007 C 
ENDBRANCH  16  17
BRANCH  16  19
HETATM   19  C   UNL     1      40.774 -14.841   3.138  1.00  0.00     0.242 C 
HETATM   20  N   UNL     1      40.190 -14.947   1.887  1.00  0.00    -0.359 N 
HETATM   21  H   UNL     1      40.774 -15.059   1.068  1.00  0.00     0.162 HD
HETATM   22  O   UNL     1      40.106 -14.834   4.169  1.00  0.00    -0.271 OA
BRANCH  20  23
HETATM   23  C   UNL     1      38.760 -15.108   1.715  1.00  0.00     0.125 C 
BRANCH  23  24
HETATM   24  C   UNL     1      38.111 -13.921   1.002  1.00  0.00     0.046 C 
BRANCH  24  25
HETATM   25  C   UNL     1      38.963 -13.360  -0.132  1.00  0.00     0.169 C 
BRANCH  25  26
HETATM   26  O   UNL     1      39.317 -14.414  -1.024  1.00  0.00    -0.387 OA
BRANCH  26  27
HETATM   27  C   UNL     1      40.465 -14.133  -1.829  1.00  0.00     0.113 C 
HETATM   28  C   UNL     1      41.586 -13.519  -0.994  1.00  0.00     0.039 C 
HETATM   29  C   UNL     1      40.922 -15.461  -2.423  1.00  0.00     0.039 C 
ENDBRANCH  26  27
ENDBRANCH  25  26
ENDBRANCH  24  25
ENDBRANCH  23  24
ENDBRANCH  20  23
ENDBRANCH  16  19
ENDBRANCH   1  16
TORSDOF 8
ENDMDL
MODEL 4
REMARK VINA RESULT:      -7.8      3.347      4.788
REMARK  8 active torsions:
REMARK  status: ('A' for Active; 'I' for Inactive)
REMARK    1  A    between atoms: C_2  and  C_3 
REMARK    2  A    between atoms: C_3  and  N_4 
REMARK    3  A    between atoms: C_3  and  C_19 
REMARK       I    between atoms: C_19  and  N_20 
REMARK    4  A    between atoms: N_20  and  C_21 
REMARK    5  A    between atoms: C_21  and  C_22 
REMARK    6  A    between atoms: C_22  and  C_23 
REMARK    7  A    between atoms: C_23  and  O_24 
REMARK    8  A    between atoms: O_24  and  C_25 
ROOT
HETATM    1  N   UNL     1      42.633 -15.930   3.310  1.00  0.00    -0.220 N 
HETATM    2  N   UNL     1      43.131 -15.643   4.584  1.00  0.00    -0.172 NA
HETATM    3  C   UNL     1      43.703 -16.586   5.275  1.00  0.00     0.069 A 
HETATM    4  C   UNL     1      44.194 -16.262   6.661  1.00  0.00     0.074 C 
HETATM    5  C   UNL     1      43.864 -17.901   4.712  1.00  0.00     0.048 A 
HETATM    6  C   UNL     1      43.383 -18.221   3.466  1.00  0.00     0.064 A 
HETATM    7  C   UNL     1      42.670 -17.204   2.706  1.00  0.00     0.277 A 
HETATM    8  O   UNL     1      42.161 -17.440   1.612  1.00  0.00    -0.266 OA
HETATM    9  S   UNL     1      44.657 -19.186   5.468  1.00  0.00    -0.086 SA
HETATM   10  C   UNL     1      44.407 -20.225   4.116  1.00  0.00     0.017 A 
HETATM   11  C   UNL     1      43.698 -19.578   3.097  1.00  0.00    -0.002 A 
HETATM   12  C   UNL     1      44.840 -21.559   3.989  1.00  0.00     0.020 A 
HETATM   13  C   UNL     1      44.557 -22.254   2.812  1.00  0.00     0.001 A 
HETATM   14  C   UNL     1      43.856 -21.640   1.785  1.00  0.00     0.001 A 
HETATM   15  C   UNL     1      43.424 -20.317   1.917  1.00  0.00     0.014 A 
ENDROOT
BRANCH   1  16
HETATM   16  C   UNL     1      41.900 -14.859   2.621  1.00  0.00     0.205 C 
BRANCH  16  17
HETATM   17  C   UNL     1      42.700 -13.548   2.540  1.00  0.00     0.032 C 
HETATM   18  C   UNL     1      42.045 -12.509   1.642  1.00  0.00     0.007 C 
ENDBRANCH  16  17
BRANCH  16  19
HETATM   19  C   UNL     1      40.553 -14.644   3.343  1.00  0.00     0.242 C 
HETATM   20  N   UNL     1      40.669 -14.085   4.604  1.00  0.00    -0.359 N 
HETATM   21  H   UNL     1      41.563 -13.725   4.915  1.00  0.00     0.162 HD
HETATM   22  O   UNL     1      39.466 -14.974   2.874  1.00  0.00    -0.271 OA
BRANCH  20  23
HETATM   23  C   UNL     1      39.513 -13.804   5.432  1.00  0.00     0.125 C 
BRANCH  23  24
HETATM   24  C   UNL     1      39.757 -12.670   6.426  1.00  0.00     0.046 C 
BRANCH  24  25
HETATM   25  C   UNL     1      39.497 -11.286   5.838  1.00  0.00     0.169 C 
BRANCH  25  26
HETATM   26  O   UNL     1      38.372 -11.346   4.965  1.00  0.00    -0.387 OA
BRANCH  26  27
HETATM   27  C   UNL     1      38.559 -10.652   3.729  1.00  0.00     0.113 C 
HETATM   28  C   UNL     1      38.425 -11.600   2.539  1.00  0.00     0.039 C 
HETATM   29  C   UNL     1      37.482  -9.574   3.663  1.00  0.00     0.039 C 
ENDBRANCH  26  27
ENDBRANCH  25  26
ENDBRANCH  24  25
ENDBRANCH  23  24
ENDBRANCH  20  23
ENDBRANCH  16  19
ENDBRANCH   1  16
TORSDOF 8
ENDMDL
MODEL 5
REMARK VINA RESULT:      -7.7      2.531      3.851
REMARK  8 active torsions:
REMARK  status: ('A' for Active; 'I' for Inactive)
REMARK    1  A    between atoms: C_2  and  C_3 
REMARK    2  A    between atoms: C_3  and  N_4 
REMARK    3  A    between atoms: C_3  and  C_19 
REMARK       I    between atoms: C_19  and  N_20 
REMARK    4  A    between atoms: N_20  and  C_21 
REMARK    5  A    between atoms: C_21  and  C_22 
REMARK    6  A    between atoms: C_22  and  C_23 
REMARK    7  A    between atoms: C_23  and  O_24 
REMARK    8  A    between atoms: O_24  and  C_25 
ROOT
HETATM    1  N   UNL     1      42.600 -15.872   3.401  1.00  0.00    -0.220 N 
HETATM    2  N   UNL     1      43.098 -15.600   4.679  1.00  0.00    -0.172 NA
HETATM    3  C   UNL     1      43.671 -16.552   5.357  1.00  0.00     0.069 A 
HETATM    4  C   UNL     1      44.162 -16.245   6.747  1.00  0.00     0.074 C 
HETATM    5  C   UNL     1      43.834 -17.859   4.777  1.00  0.00     0.048 A 
HETATM    6  C   UNL     1      43.353 -18.164   3.528  1.00  0.00     0.064 A 
HETATM    7  C   UNL     1      42.638 -17.138   2.781  1.00  0.00     0.277 A 
HETATM    8  O   UNL     1      42.129 -17.361   1.684  1.00  0.00    -0.266 OA
HETATM    9  S   UNL     1      44.628 -19.152   5.517  1.00  0.00    -0.086 SA
HETATM   10  C   UNL     1      44.379 -20.175   4.152  1.00  0.00     0.017 A 
HETATM   11  C   UNL     1      43.669 -19.516   3.141  1.00  0.00    -0.002 A 
HETATM   12  C   UNL     1      44.814 -21.506   4.008  1.00  0.00     0.020 A 
HETATM   13  C   UNL     1      44.531 -22.187   2.822  1.00  0.00     0.001 A 
HETATM   14  C   UNL     1      43.829 -21.560   1.803  1.00  0.00     0.001 A 
HETATM   15  C   UNL     1      43.396 -20.240   1.952  1.00  0.00     0.014 A 
ENDROOT
BRANCH   1  16
HETATM   16  C   UNL     1      41.866 -14.793   2.726  1.00  0.00     0.205 C 
BRANCH  16  17
HETATM   17  C   UNL     1      42.702 -13.511   2.571  1.00  0.00     0.032 C 
HETATM   18  C   UNL     1      42.083 -12.514   1.602  1.00  0.00     0.007 C 
ENDBRANCH  16  17
BRANCH  16  19
HETATM   19  C   UNL     1      40.568 -14.516   3.514  1.00  0.00     0.242 C 
HETATM   20  N   UNL     1      40.761 -13.846   4.709  1.00  0.00    -0.359 N 
HETATM   21  H   UNL     1      41.672 -13.459   4.927  1.00  0.00     0.162 HD
HETATM   22  O   UNL     1      39.455 -14.888   3.148  1.00  0.00    -0.271 OA
BRANCH  20  23
HETATM   23  C   UNL     1      39.660 -13.495   5.583  1.00  0.00     0.125 C 
BRANCH  23  24
HETATM   24  C   UNL     1      39.062 -12.126   5.263  1.00  0.00     0.046 C 
BRANCH  24  25
HETATM   25  C   UNL     1      39.875 -10.965   5.826  1.00  0.00     0.169 C 
BRANCH  25  26
HETATM   26  O   UNL     1      40.981 -11.476   6.567  1.00  0.00    -0.387 OA
BRANCH  26  27
HETATM   27  C   UNL     1      41.646 -10.497   7.368  1.00  0.00     0.113 C 
HETATM   28  C   UNL     1      41.461  -9.095   6.791  1.00  0.00     0.039 C 
HETATM   29  C   UNL     1      41.030 -10.576   8.760  1.00  0.00     0.039 C 
ENDBRANCH  26  27
ENDBRANCH  25  26
ENDBRANCH  24  25
ENDBRANCH  23  24
ENDBRANCH  20  23
ENDBRANCH  16  19
ENDBRANCH   1  16
TORSDOF 8
ENDMDL
MODEL 6
REMARK VINA RESULT:      -7.5      3.078      4.860
REMARK  8 active torsions:
REMARK  status: ('A' for Active; 'I' for Inactive)
REMARK    1  A    between atoms: C_2  and  C_3 
REMARK    2  A    between atoms: C_3  and  N_4 
REMARK    3  A    between atoms: C_3  and  C_19 
REMARK       I    between atoms: C_19  and  N_20 
REMARK    4  A    between atoms: N_20  and  C_21 
REMARK    5  A    between atoms: C_21  and  C_22 
REMARK    6  A    between atoms: C_22  and  C_23 
REMARK    7  A    between atoms: C_23  and  O_24 
REMARK    8  A    between atoms: O_24  and  C_25 
ROOT
HETATM    1  N   UNL     1      43.143 -16.529   4.417  1.00  0.00    -0.220 N 
HETATM    2  N   UNL     1      42.745 -16.330   3.092  1.00  0.00    -0.172 NA
HETATM    3  C   UNL     1      42.877 -17.298   2.232  1.00  0.00     0.069 A 
HETATM    4  C   UNL     1      42.479 -17.046   0.802  1.00  0.00     0.074 C 
HETATM    5  C   UNL     1      43.383 -18.578   2.654  1.00  0.00     0.048 A 
HETATM    6  C   UNL     1      43.789 -18.808   3.945  1.00  0.00     0.064 A 
HETATM    7  C   UNL     1      43.725 -17.716   4.907  1.00  0.00     0.277 A 
HETATM    8  O   UNL     1      44.129 -17.836   6.062  1.00  0.00    -0.266 OA
HETATM    9  S   UNL     1      43.527 -19.936   1.660  1.00  0.00    -0.086 SA
HETATM   10  C   UNL     1      44.119 -20.906   2.956  1.00  0.00     0.017 A 
HETATM   11  C   UNL     1      44.218 -20.170   4.143  1.00  0.00    -0.002 A 
HETATM   12  C   UNL     1      44.469 -22.269   2.895  1.00  0.00     0.020 A 
HETATM   13  C   UNL     1      44.924 -22.904   4.052  1.00  0.00     0.001 A 
HETATM   14  C   UNL     1      45.033 -22.201   5.242  1.00  0.00     0.001 A 
HETATM   15  C   UNL     1      44.689 -20.847   5.297  1.00  0.00     0.014 A 
ENDROOT
BRANCH   1  16
HETATM   16  C   UNL     1      43.075 -15.370   5.317  1.00  0.00     0.205 C 
BRANCH  16  17
HETATM   17  C   UNL     1      41.836 -15.395   6.227  1.00  0.00     0.032 C 
HETATM   18  C   UNL     1      40.860 -16.506   5.869  1.00  0.00     0.007 C 
ENDBRANCH  16  17
BRANCH  16  19
HETATM   19  C   UNL     1      43.110 -14.084   4.463  1.00  0.00     0.242 C 
HETATM   20  N   UNL     1      41.874 -13.686   3.987  1.00  0.00    -0.359 N 
HETATM   21  H   UNL     1      41.034 -14.141   4.323  1.00  0.00     0.162 HD
HETATM   22  O   UNL     1      44.142 -13.478   4.184  1.00  0.00    -0.271 OA
BRANCH  20  23
HETATM   23  C   UNL     1      41.707 -12.500   3.171  1.00  0.00     0.125 C 
BRANCH  23  24
HETATM   24  C   UNL     1      40.334 -11.850   3.341  1.00  0.00     0.046 C 
BRANCH  24  25
HETATM   25  C   UNL     1      39.248 -12.503   2.490  1.00  0.00     0.169 C 
BRANCH  25  26
HETATM   26  O   UNL     1      39.852 -13.183   1.392  1.00  0.00    -0.387 OA
BRANCH  26  27
HETATM   27  C   UNL     1      39.169 -14.377   1.003  1.00  0.00     0.113 C 
HETATM   28  C   UNL     1      39.306 -15.463   2.067  1.00  0.00     0.039 C 
HETATM   29  C   UNL     1      37.702 -14.004   0.820  1.00  0.00     0.039 C 
ENDBRANCH  26  27
ENDBRANCH  25  26
ENDBRANCH  24  25
ENDBRANCH  23  24
ENDBRANCH  20  23
ENDBRANCH  16  19
ENDBRANCH   1  16
TORSDOF 8
ENDMDL
MODEL 7
REMARK VINA RESULT:      -7.4      3.745      7.438
REMARK  8 active torsions:
REMARK  status: ('A' for Active; 'I' for Inactive)
REMARK    1  A    between atoms: C_2  and  C_3 
REMARK    2  A    between atoms: C_3  and  N_4 
REMARK    3  A    between atoms: C_3  and  C_19 
REMARK       I    between atoms: C_19  and  N_20 
REMARK    4  A    between atoms: N_20  and  C_21 
REMARK    5  A    between atoms: C_21  and  C_22 
REMARK    6  A    between atoms: C_22  and  C_23 
REMARK    7  A    between atoms: C_23  and  O_24 
REMARK    8  A    between atoms: O_24  and  C_25 
ROOT
HETATM    1  N   UNL     1      41.830 -15.728   3.197  1.00  0.00    -0.220 N 
HETATM    2  N   UNL     1      42.394 -15.311   4.406  1.00  0.00    -0.172 NA
HETATM    3  C   UNL     1      43.153 -16.131   5.074  1.00  0.00     0.069 A 
HETATM    4  C   UNL     1      43.715 -15.673   6.394  1.00  0.00     0.074 C 
HETATM    5  C   UNL     1      43.448 -17.437   4.547  1.00  0.00     0.048 A 
HETATM    6  C   UNL     1      42.908 -17.883   3.366  1.00  0.00     0.064 A 
HETATM    7  C   UNL     1      41.993 -17.013   2.640  1.00  0.00     0.277 A 
HETATM    8  O   UNL     1      41.427 -17.372   1.609  1.00  0.00    -0.266 OA
HETATM    9  S   UNL     1      44.480 -18.561   5.272  1.00  0.00    -0.086 SA
HETATM   10  C   UNL     1      44.260 -19.691   3.990  1.00  0.00     0.017 A 
HETATM   11  C   UNL     1      43.378 -19.201   3.020  1.00  0.00    -0.002 A 
HETATM   12  C   UNL     1      44.864 -20.958   3.872  1.00  0.00     0.020 A 
HETATM   13  C   UNL     1      44.579 -21.744   2.754  1.00  0.00     0.001 A 
HETATM   14  C   UNL     1      43.709 -21.284   1.776  1.00  0.00     0.001 A 
HETATM   15  C   UNL     1      43.108 -20.028   1.900  1.00  0.00     0.014 A 
ENDROOT
BRANCH   1  16
HETATM   16  C   UNL     1      40.895 -14.804   2.542  1.00  0.00     0.205 C 
BRANCH  16  17
HETATM   17  C   UNL     1      39.632 -15.508   2.017  1.00  0.00     0.032 C 
HETATM   18  C   UNL     1      38.528 -14.534   1.631  1.00  0.00     0.007 C 
ENDBRANCH  16  17
BRANCH  16  19
HETATM   19  C   UNL     1      41.640 -14.079   1.401  1.00  0.00     0.242 C 
HETATM   20  N   UNL     1      41.270 -14.488   0.132  1.00  0.00    -0.359 N 
HETATM   21  H   UNL     1      40.470 -15.098   0.013  1.00  0.00     0.162 HD
HETATM   22  O   UNL     1      42.520 -13.240   1.584  1.00  0.00    -0.271 OA
BRANCH  20  23
HETATM   23  C   UNL     1      41.858 -13.919  -1.064  1.00  0.00     0.125 C 
BRANCH  23  24
HETATM   24  C   UNL     1      41.098 -12.695  -1.574  1.00  0.00     0.046 C 
BRANCH  24  25
HETATM   25  C   UNL     1      39.930 -13.049  -2.490  1.00  0.00     0.169 C 
BRANCH  25  26
HETATM   26  O   UNL     1      39.841 -14.466  -2.617  1.00  0.00    -0.387 OA
BRANCH  26  27
HETATM   27  C   UNL     1      38.982 -14.901  -3.674  1.00  0.00     0.113 C 
HETATM   28  C   UNL     1      39.227 -16.368  -4.015  1.00  0.00     0.039 C 
HETATM   29  C   UNL     1      37.550 -14.708  -3.185  1.00  0.00     0.039 C 
ENDBRANCH  26  27
ENDBRANCH  25  26
ENDBRANCH  24  25
ENDBRANCH  23  24
ENDBRANCH  20  23
ENDBRANCH  16  19
ENDBRANCH   1  16
TORSDOF 8
ENDMDL
MODEL 8
REMARK VINA RESULT:      -7.2      3.916      7.527
REMARK  8 active torsions:
REMARK  status: ('A' for Active; 'I' for Inactive)
REMARK    1  A    between atoms: C_2  and  C_3 
REMARK    2  A    between atoms: C_3  and  N_4 
REMARK    3  A    between atoms: C_3  and  C_19 
REMARK       I    between atoms: C_19  and  N_20 
REMARK    4  A    between atoms: N_20  and  C_21 
REMARK    5  A    between atoms: C_21  and  C_22 
REMARK    6  A    between atoms: C_22  and  C_23 
REMARK    7  A    between atoms: C_23  and  O_24 
REMARK    8  A    between atoms: O_24  and  C_25 
ROOT
HETATM    1  N   UNL     1      41.361 -15.323   2.481  1.00  0.00    -0.220 N 
HETATM    2  N   UNL     1      42.003 -16.068   1.488  1.00  0.00    -0.172 NA
HETATM    3  C   UNL     1      42.869 -16.978   1.829  1.00  0.00     0.069 A 
HETATM    4  C   UNL     1      43.577 -17.738   0.740  1.00  0.00     0.074 C 
HETATM    5  C   UNL     1      43.125 -17.249   3.219  1.00  0.00     0.048 A 
HETATM    6  C   UNL     1      42.517 -16.534   4.222  1.00  0.00     0.064 A 
HETATM    7  C   UNL     1      41.605 -15.457   3.864  1.00  0.00     0.277 A 
HETATM    8  O   UNL     1      41.074 -14.738   4.709  1.00  0.00    -0.266 OA
HETATM    9  S   UNL     1      44.158 -18.454   3.795  1.00  0.00    -0.086 SA
HETATM   10  C   UNL     1      43.797 -18.075   5.437  1.00  0.00     0.017 A 
HETATM   11  C   UNL     1      42.894 -17.009   5.530  1.00  0.00    -0.002 A 
HETATM   12  C   UNL     1      44.305 -18.720   6.581  1.00  0.00     0.020 A 
HETATM   13  C   UNL     1      43.895 -18.285   7.843  1.00  0.00     0.001 A 
HETATM   14  C   UNL     1      43.002 -17.232   7.966  1.00  0.00     0.001 A 
HETATM   15  C   UNL     1      42.503 -16.592   6.828  1.00  0.00     0.014 A 
ENDROOT
BRANCH   1  16
HETATM   16  C   UNL     1      40.479 -14.236   2.037  1.00  0.00     0.205 C 
BRANCH  16  17
HETATM   17  C   UNL     1      39.269 -14.741   1.233  1.00  0.00     0.032 C 
HETATM   18  C   UNL     1      38.128 -13.735   1.184  1.00  0.00     0.007 C 
ENDBRANCH  16  17
BRANCH  16  19
HETATM   19  C   UNL     1      41.314 -13.234   1.210  1.00  0.00     0.242 C 
HETATM   20  N   UNL     1      41.419 -13.555  -0.132  1.00  0.00    -0.359 N 
HETATM   21  H   UNL     1      40.854 -14.303  -0.516  1.00  0.00     0.162 HD
HETATM   22  O   UNL     1      41.880 -12.256   1.692  1.00  0.00    -0.271 OA
BRANCH  20  23
HETATM   23  C   UNL     1      42.160 -12.731  -1.066  1.00  0.00     0.125 C 
BRANCH  23  24
HETATM   24  C   UNL     1      42.327 -13.391  -2.435  1.00  0.00     0.046 C 
BRANCH  24  25
HETATM   25  C   UNL     1      41.072 -13.315  -3.299  1.00  0.00     0.169 C 
BRANCH  25  26
HETATM   26  O   UNL     1      40.785 -14.606  -3.831  1.00  0.00    -0.387 OA
BRANCH  26  27
HETATM   27  C   UNL     1      39.701 -15.274  -3.179  1.00  0.00     0.113 C 
HETATM   28  C   UNL     1      38.705 -14.272  -2.600  1.00  0.00     0.039 C 
HETATM   29  C   UNL     1      39.021 -16.140  -4.234  1.00  0.00     0.039 C 
ENDBRANCH  26  27
ENDBRANCH  25  26
ENDBRANCH  24  25
ENDBRANCH  23  24
ENDBRANCH  20  23
ENDBRANCH  16  19
ENDBRANCH   1  16
TORSDOF 8
ENDMDL
MODEL 9
REMARK VINA RESULT:      -7.1      4.486      8.254
REMARK  8 active torsions:
REMARK  status: ('A' for Active; 'I' for Inactive)
REMARK    1  A    between atoms: C_2  and  C_3 
REMARK    2  A    between atoms: C_3  and  N_4 
REMARK    3  A    between atoms: C_3  and  C_19 
REMARK       I    between atoms: C_19  and  N_20 
REMARK    4  A    between atoms: N_20  and  C_21 
REMARK    5  A    between atoms: C_21  and  C_22 
REMARK    6  A    between atoms: C_22  and  C_23 
REMARK    7  A    between atoms: C_23  and  O_24 
REMARK    8  A    between atoms: O_24  and  C_25 
ROOT
HETATM    1  N   UNL     1      42.104 -14.317   1.455  1.00  0.00    -0.220 N 
HETATM    2  N   UNL     1      42.046 -13.559   2.629  1.00  0.00    -0.172 NA
HETATM    3  C   UNL     1      42.361 -14.113   3.764  1.00  0.00     0.069 A 
HETATM    4  C   UNL     1      42.251 -13.288   5.019  1.00  0.00     0.074 C 
HETATM    5  C   UNL     1      42.811 -15.480   3.803  1.00  0.00     0.048 A 
HETATM    6  C   UNL     1      42.875 -16.256   2.672  1.00  0.00     0.064 A 
HETATM    7  C   UNL     1      42.453 -15.682   1.402  1.00  0.00     0.277 A 
HETATM    8  O   UNL     1      42.427 -16.339   0.363  1.00  0.00    -0.266 OA
HETATM    9  S   UNL     1      43.324 -16.289   5.194  1.00  0.00    -0.086 SA
HETATM   10  C   UNL     1      43.686 -17.722   4.309  1.00  0.00     0.017 A 
HETATM   11  C   UNL     1      43.392 -17.573   2.948  1.00  0.00    -0.002 A 
HETATM   12  C   UNL     1      44.217 -18.920   4.827  1.00  0.00     0.020 A 
HETATM   13  C   UNL     1      44.459 -19.985   3.958  1.00  0.00     0.001 A 
HETATM   14  C   UNL     1      44.178 -19.867   2.606  1.00  0.00     0.001 A 
HETATM   15  C   UNL     1      43.647 -18.678   2.096  1.00  0.00     0.014 A 
ENDROOT
BRANCH   1  16
HETATM   16  C   UNL     1      41.633 -13.675   0.221  1.00  0.00     0.205 C 
BRANCH  16  17
HETATM   17  C   UNL     1      42.090 -12.211   0.100  1.00  0.00     0.032 C 
HETATM   18  C   UNL     1      42.774 -11.912  -1.226  1.00  0.00     0.007 C 
ENDBRANCH  16  17
BRANCH  16  19
HETATM   19  C   UNL     1      40.094 -13.781   0.169  1.00  0.00     0.242 C 
HETATM   20  N   UNL     1      39.486 -12.827  -0.627  1.00  0.00    -0.359 N 
HETATM   21  H   UNL     1      40.051 -12.233  -1.221  1.00  0.00     0.162 HD
HETATM   22  O   UNL     1      39.445 -14.608   0.807  1.00  0.00    -0.271 OA
BRANCH  20  23
HETATM   23  C   UNL     1      38.048 -12.771  -0.802  1.00  0.00     0.125 C 
BRANCH  23  24
HETATM   24  C   UNL     1      37.637 -12.457  -2.240  1.00  0.00     0.046 C 
BRANCH  24  25
HETATM   25  C   UNL     1      37.527 -13.698  -3.120  1.00  0.00     0.169 C 
BRANCH  25  26
HETATM   26  O   UNL     1      38.468 -14.675  -2.681  1.00  0.00    -0.387 OA
BRANCH  26  27
HETATM   27  C   UNL     1      39.450 -15.018  -3.661  1.00  0.00     0.113 C 
HETATM   28  C   UNL     1      40.790 -15.348  -3.008  1.00  0.00     0.039 C 
HETATM   29  C   UNL     1      38.917 -16.236  -4.409  1.00  0.00     0.039 C 
ENDBRANCH  26  27
ENDBRANCH  25  26
ENDBRANCH  24  25
ENDBRANCH  23  24
ENDBRANCH  20  23
ENDBRANCH  16  19
ENDBRANCH   1  16
TORSDOF 8
ENDMDL
MODEL 10
REMARK VINA RESULT:      -7.0      3.408      5.603
REMARK  8 active torsions:
REMARK  status: ('A' for Active; 'I' for Inactive)
REMARK    1  A    between atoms: C_2  and  C_3 
REMARK    2  A    between atoms: C_3  and  N_4 
REMARK    3  A    between atoms: C_3  and  C_19 
REMARK       I    between atoms: C_19  and  N_20 
REMARK    4  A    between atoms: N_20  and  C_21 
REMARK    5  A    between atoms: C_21  and  C_22 
REMARK    6  A    between atoms: C_22  and  C_23 
REMARK    7  A    between atoms: C_23  and  O_24 
REMARK    8  A    between atoms: O_24  and  C_25 
ROOT
HETATM    1  N   UNL     1      42.458 -15.687   4.781  1.00  0.00    -0.220 N 
HETATM    2  N   UNL     1      42.843 -15.812   6.119  1.00  0.00    -0.172 NA
HETATM    3  C   UNL     1      43.359 -16.932   6.535  1.00  0.00     0.069 A 
HETATM    4  C   UNL     1      43.727 -17.055   7.990  1.00  0.00     0.074 C 
HETATM    5  C   UNL     1      43.577 -18.015   5.613  1.00  0.00     0.048 A 
HETATM    6  C   UNL     1      43.207 -17.932   4.293  1.00  0.00     0.064 A 
HETATM    7  C   UNL     1      42.555 -16.717   3.822  1.00  0.00     0.277 A 
HETATM    8  O   UNL     1      42.143 -16.599   2.670  1.00  0.00    -0.266 OA
HETATM    9  S   UNL     1      44.310 -19.485   6.005  1.00  0.00    -0.086 SA
HETATM   10  C   UNL     1      44.184 -20.058   4.385  1.00  0.00     0.017 A 
HETATM   11  C   UNL     1      43.561 -19.118   3.555  1.00  0.00    -0.002 A 
HETATM   12  C   UNL     1      44.635 -21.299   3.893  1.00  0.00     0.020 A 
HETATM   13  C   UNL     1      44.459 -21.597   2.541  1.00  0.00     0.001 A 
HETATM   14  C   UNL     1      43.845 -20.685   1.695  1.00  0.00     0.001 A 
HETATM   15  C   UNL     1      43.395 -19.457   2.188  1.00  0.00     0.014 A 
ENDROOT
BRANCH   1  16
HETATM   16  C   UNL     1      41.780 -14.443   4.393  1.00  0.00     0.205 C 
BRANCH  16  17
HETATM   17  C   UNL     1      40.259 -14.615   4.244  1.00  0.00     0.032 C 
HETATM   18  C   UNL     1      39.474 -13.918   5.345  1.00  0.00     0.007 C 
ENDBRANCH  16  17
BRANCH  16  19
HETATM   19  C   UNL     1      42.411 -13.931   3.081  1.00  0.00     0.242 C 
HETATM   20  N   UNL     1      41.535 -13.884   2.010  1.00  0.00    -0.359 N 
HETATM   21  H   UNL     1      40.546 -14.036   2.163  1.00  0.00     0.162 HD
HETATM   22  O   UNL     1      43.596 -13.626   2.966  1.00  0.00    -0.271 OA
BRANCH  20  23
HETATM   23  C   UNL     1      41.945 -13.426   0.698  1.00  0.00     0.125 C 
BRANCH  23  24
HETATM   24  C   UNL     1      41.669 -11.940   0.475  1.00  0.00     0.046 C 
BRANCH  24  25
HETATM   25  C   UNL     1      40.242 -11.531   0.830  1.00  0.00     0.169 C 
BRANCH  25  26
HETATM   26  O   UNL     1      39.362 -12.625   0.585  1.00  0.00    -0.387 OA
BRANCH  26  27
HETATM   27  C   UNL     1      38.232 -12.668   1.460  1.00  0.00     0.113 C 
HETATM   28  C   UNL     1      38.350 -11.621   2.564  1.00  0.00     0.039 C 
HETATM   29  C   UNL     1      37.002 -12.389   0.602  1.00  0.00     0.039 C 
ENDBRANCH  26  27
ENDBRANCH  25  26
ENDBRANCH  24  25
ENDBRANCH  23  24
ENDBRANCH  20  23
ENDBRANCH  16  19
ENDBRANCH   1  16
TORSDOF 8
ENDMDL
