MODEL 1
REMARK VINA RESULT:      -8.9      0.000      0.000
REMARK  2 active torsions:
REMARK  status: ('A' for Active; 'I' for Inactive)
REMARK    1  A    between atoms: C_5  and  C_6 
REMARK    2  A    between atoms: C_9  and  C_10 
ROOT
HETATM    1  C   UNL     1      42.248 -16.048   3.713  1.00  0.00     0.220 C 
HETATM    2  N   UNL     1      42.601 -14.946   2.833  1.00  0.00    -0.126 NA
HETATM    3  N   UNL     1      41.431 -14.615   2.083  1.00  0.00    -0.126 NA
HETATM    4  C   UNL     1      41.506 -13.196   1.773  1.00  0.00     0.220 C 
HETATM    5  N   UNL     1      42.571 -12.720   2.616  1.00  0.00    -0.324 N 
HETATM    6  C   UNL     1      43.152 -13.765   3.316  1.00  0.00     0.315 C 
HETATM    7  O   UNL     1      43.945 -13.632   4.232  1.00  0.00    -0.252 OA
HETATM    8  C   UNL     1      40.332 -15.180   2.720  1.00  0.00     0.315 C 
HETATM    9  O   UNL     1      39.160 -14.875   2.592  1.00  0.00    -0.252 OA
HETATM   10  N   UNL     1      40.814 -16.121   3.616  1.00  0.00    -0.324 N 
HETATM   11  H   UNL     1      42.760 -11.756   2.836  1.00  0.00     0.165 HD
HETATM   12  H   UNL     1      40.209 -16.606   4.260  1.00  0.00     0.165 HD
ENDROOT
BRANCH   1  13
HETATM   13  C   UNL     1      42.864 -17.373   3.308  1.00  0.00    -0.020 A 
HETATM   14  C   UNL     1      42.604 -17.971   2.064  1.00  0.00     0.011 A 
HETATM   15  C   UNL     1      43.129 -19.225   1.742  1.00  0.00     0.007 A 
HETATM   16  C   UNL     1      43.918 -19.919   2.663  1.00  0.00    -0.062 A 
HETATM   17  C   UNL     1      44.466 -21.276   2.338  1.00  0.00     0.048 C 
HETATM   18  C   UNL     1      44.190 -19.330   3.903  1.00  0.00     0.007 A 
HETATM   19  C   UNL     1      43.667 -18.073   4.224  1.00  0.00     0.011 A 
ENDBRANCH   1  13
BRANCH   4  20
HETATM   20  C   UNL     1      41.832 -12.903   0.319  1.00  0.00    -0.020 A 
HETATM   21  C   UNL     1      42.401 -11.688  -0.096  1.00  0.00     0.011 A 
HETATM   22  C   UNL     1      42.614 -11.415  -1.450  1.00  0.00     0.007 A 
HETATM   23  C   UNL     1      42.259 -12.352  -2.424  1.00  0.00    -0.062 A 
HETATM   24  C   UNL     1      42.448 -12.054  -3.881  1.00  0.00     0.048 C 
HETATM   25  C   UNL     1      41.707 -13.573  -2.022  1.00  0.00     0.007 A 
HETATM   26  C   UNL     1      41.496 -13.845  -0.667  1.00  0.00     0.011 A 
ENDBRANCH   4  20
TORSDOF 2
ENDMDL
MODEL 2
REMARK VINA RESULT:      -8.9      0.058      6.756
REMARK  2 active torsions:
REMARK  status: ('A' for Active; 'I' for Inactive)
REMARK    1  A    between atoms: C_5  and  C_6 
REMARK    2  A    between atoms: C_9  and  C_10 
ROOT
HETATM    1  C   UNL     1      41.504 -13.213   1.782  1.00  0.00     0.220 C 
HETATM    2  N   UNL     1      41.459 -14.634   2.085  1.00  0.00    -0.126 NA
HETATM    3  N   UNL     1      42.617 -14.935   2.865  1.00  0.00    -0.126 NA
HETATM    4  C   UNL     1      42.273 -16.050   3.734  1.00  0.00     0.220 C 
HETATM    5  N   UNL     1      40.841 -16.139   3.619  1.00  0.00    -0.324 N 
HETATM    6  C   UNL     1      40.360 -15.221   2.701  1.00  0.00     0.315 C 
HETATM    7  O   UNL     1      39.182 -14.950   2.540  1.00  0.00    -0.252 OA
HETATM    8  C   UNL     1      43.133 -13.741   3.355  1.00  0.00     0.315 C 
HETATM    9  O   UNL     1      43.894 -13.590   4.294  1.00  0.00    -0.252 OA
HETATM   10  N   UNL     1      42.553 -12.713   2.631  1.00  0.00    -0.324 N 
HETATM   11  H   UNL     1      40.232 -16.646   4.242  1.00  0.00     0.165 HD
HETATM   12  H   UNL     1      42.706 -11.743   2.860  1.00  0.00     0.165 HD
ENDROOT
BRANCH   1  13
HETATM   13  C   UNL     1      41.821 -12.909   0.330  1.00  0.00    -0.020 A 
HETATM   14  C   UNL     1      42.377 -11.683  -0.074  1.00  0.00     0.011 A 
HETATM   15  C   UNL     1      42.596 -11.401  -1.424  1.00  0.00     0.007 A 
HETATM   16  C   UNL     1      42.254 -12.333  -2.406  1.00  0.00    -0.062 A 
HETATM   17  C   UNL     1      42.462 -12.031  -3.860  1.00  0.00     0.048 C 
HETATM   18  C   UNL     1      41.708 -13.561  -2.016  1.00  0.00     0.007 A 
HETATM   19  C   UNL     1      41.491 -13.845  -0.663  1.00  0.00     0.011 A 
ENDBRANCH   1  13
BRANCH   4  20
HETATM   20  C   UNL     1      42.905 -17.367   3.320  1.00  0.00    -0.020 A 
HETATM   21  C   UNL     1      42.726 -17.920   2.042  1.00  0.00     0.011 A 
HETATM   22  C   UNL     1      43.253 -19.173   1.717  1.00  0.00     0.007 A 
HETATM   23  C   UNL     1      43.970 -19.907   2.666  1.00  0.00    -0.062 A 
HETATM   24  C   UNL     1      44.506 -21.268   2.340  1.00  0.00     0.048 C 
HETATM   25  C   UNL     1      44.169 -19.358   3.937  1.00  0.00     0.007 A 
HETATM   26  C   UNL     1      43.643 -18.104   4.261  1.00  0.00     0.011 A 
ENDBRANCH   4  20
TORSDOF 2
ENDMDL
MODEL 3
REMARK VINA RESULT:      -8.8      3.072      6.838
REMARK  2 active torsions:
REMARK  status: ('A' for Active; 'I' for Inactive)
REMARK    1  A    between atoms: C_5  and  C_6 
REMARK    2  A    between atoms: C_9  and  C_10 
ROOT
HETATM    1  C   UNL     1      40.858 -14.482   4.624  1.00  0.00     0.220 C 
HETATM    2  N   UNL     1      41.268 -15.875   4.654  1.00  0.00    -0.126 NA
HETATM    3  N   UNL     1      42.638 -15.920   4.254  1.00  0.00    -0.126 NA
HETATM    4  C   UNL     1      43.244 -17.064   4.918  1.00  0.00     0.220 C 
HETATM    5  N   UNL     1      42.263 -17.444   5.900  1.00  0.00    -0.324 N 
HETATM    6  C   UNL     1      41.126 -16.661   5.793  1.00  0.00     0.315 C 
HETATM    7  O   UNL     1      40.218 -16.637   6.606  1.00  0.00    -0.252 OA
HETATM    8  C   UNL     1      43.162 -14.637   4.356  1.00  0.00     0.315 C 
HETATM    9  O   UNL     1      44.336 -14.316   4.418  1.00  0.00    -0.252 OA
HETATM   10  N   UNL     1      42.094 -13.762   4.463  1.00  0.00    -0.324 N 
HETATM   11  H   UNL     1      42.425 -18.050   6.688  1.00  0.00     0.165 HD
HETATM   12  H   UNL     1      42.223 -12.777   4.635  1.00  0.00     0.165 HD
ENDROOT
BRANCH   1  13
HETATM   13  C   UNL     1      39.911 -14.149   3.487  1.00  0.00    -0.020 A 
HETATM   14  C   UNL     1      39.510 -15.108   2.542  1.00  0.00     0.011 A 
HETATM   15  C   UNL     1      38.691 -14.759   1.464  1.00  0.00     0.007 A 
HETATM   16  C   UNL     1      38.263 -13.440   1.298  1.00  0.00    -0.062 A 
HETATM   17  C   UNL     1      37.406 -13.051   0.132  1.00  0.00     0.048 C 
HETATM   18  C   UNL     1      38.651 -12.478   2.238  1.00  0.00     0.007 A 
HETATM   19  C   UNL     1      39.467 -12.827   3.318  1.00  0.00     0.011 A 
ENDBRANCH   1  13
BRANCH   4  20
HETATM   20  C   UNL     1      43.523 -18.234   3.991  1.00  0.00    -0.020 A 
HETATM   21  C   UNL     1      42.907 -18.365   2.736  1.00  0.00     0.011 A 
HETATM   22  C   UNL     1      43.121 -19.493   1.941  1.00  0.00     0.007 A 
HETATM   23  C   UNL     1      43.956 -20.523   2.384  1.00  0.00    -0.062 A 
HETATM   24  C   UNL     1      44.162 -21.755   1.554  1.00  0.00     0.048 C 
HETATM   25  C   UNL     1      44.588 -20.396   3.625  1.00  0.00     0.007 A 
HETATM   26  C   UNL     1      44.375 -19.266   4.419  1.00  0.00     0.011 A 
ENDBRANCH   4  20
TORSDOF 2
ENDMDL
MODEL 4
REMARK VINA RESULT:      -8.8      3.077      3.446
REMARK  2 active torsions:
REMARK  status: ('A' for Active; 'I' for Inactive)
REMARK    1  A    between atoms: C_5  and  C_6 
REMARK    2  A    between atoms: C_9  and  C_10 
ROOT
HETATM    1  C   UNL     1      43.239 -17.064   4.971  1.00  0.00     0.220 C 
HETATM    2  N   UNL     1      42.618 -15.936   4.297  1.00  0.00    -0.126 NA
HETATM    3  N   UNL     1      41.254 -15.891   4.720  1.00  0.00    -0.126 NA
HETATM    4  C   UNL     1      40.835 -14.499   4.673  1.00  0.00     0.220 C 
HETATM    5  N   UNL     1      42.070 -13.778   4.511  1.00  0.00    -0.324 N 
HETATM    6  C   UNL     1      43.139 -14.650   4.384  1.00  0.00     0.315 C 
HETATM    7  O   UNL     1      44.312 -14.321   4.419  1.00  0.00    -0.252 OA
HETATM    8  C   UNL     1      41.129 -16.668   5.865  1.00  0.00     0.315 C 
HETATM    9  O   UNL     1      40.237 -16.633   6.694  1.00  0.00    -0.252 OA
HETATM   10  N   UNL     1      42.266 -17.455   5.956  1.00  0.00    -0.324 N 
HETATM   11  H   UNL     1      42.197 -12.790   4.660  1.00  0.00     0.165 HD
HETATM   12  H   UNL     1      42.446 -18.045   6.753  1.00  0.00     0.165 HD
ENDROOT
BRANCH   1  13
HETATM   13  C   UNL     1      43.544 -18.231   4.051  1.00  0.00    -0.020 A 
HETATM   14  C   UNL     1      42.921 -18.381   2.801  1.00  0.00     0.011 A 
HETATM   15  C   UNL     1      43.168 -19.501   2.002  1.00  0.00     0.007 A 
HETATM   16  C   UNL     1      44.035 -20.504   2.439  1.00  0.00    -0.062 A 
HETATM   17  C   UNL     1      44.288 -21.722   1.602  1.00  0.00     0.048 C 
HETATM   18  C   UNL     1      44.668 -20.362   3.680  1.00  0.00     0.007 A 
HETATM   19  C   UNL     1      44.423 -19.239   4.478  1.00  0.00     0.011 A 
ENDBRANCH   1  13
BRANCH   4  20
HETATM   20  C   UNL     1      39.898 -14.180   3.522  1.00  0.00    -0.020 A 
HETATM   21  C   UNL     1      39.514 -15.141   2.574  1.00  0.00     0.011 A 
HETATM   22  C   UNL     1      38.715 -14.798   1.480  1.00  0.00     0.007 A 
HETATM   23  C   UNL     1      38.284 -13.480   1.304  1.00  0.00    -0.062 A 
HETATM   24  C   UNL     1      37.459 -13.094   0.113  1.00  0.00     0.048 C 
HETATM   25  C   UNL     1      38.647 -12.517   2.252  1.00  0.00     0.007 A 
HETATM   26  C   UNL     1      39.443 -12.862   3.347  1.00  0.00     0.011 A 
ENDBRANCH   4  20
TORSDOF 2
ENDMDL
MODEL 5
REMARK VINA RESULT:      -8.5      2.275      6.700
REMARK  2 active torsions:
REMARK  status: ('A' for Active; 'I' for Inactive)
REMARK    1  A    between atoms: C_5  and  C_6 
REMARK    2  A    between atoms: C_9  and  C_10 
ROOT
HETATM    1  C   UNL     1      41.042 -13.642   3.718  1.00  0.00     0.220 C 
HETATM    2  N   UNL     1      41.330 -15.031   4.032  1.00  0.00    -0.126 NA
HETATM    3  N   UNL     1      42.690 -15.272   3.668  1.00  0.00    -0.126 NA
HETATM    4  C   UNL     1      43.196 -16.307   4.555  1.00  0.00     0.220 C 
HETATM    5  N   UNL     1      42.189 -16.397   5.580  1.00  0.00    -0.324 N 
HETATM    6  C   UNL     1      41.124 -15.557   5.302  1.00  0.00     0.315 C 
HETATM    7  O   UNL     1      40.225 -15.293   6.082  1.00  0.00    -0.252 OA
HETATM    8  C   UNL     1      43.323 -14.044   3.518  1.00  0.00     0.315 C 
HETATM    9  O   UNL     1      44.521 -13.819   3.531  1.00  0.00    -0.252 OA
HETATM   10  N   UNL     1      42.335 -13.078   3.433  1.00  0.00    -0.324 N 
HETATM   11  H   UNL     1      42.301 -16.845   6.475  1.00  0.00     0.165 HD
HETATM   12  H   UNL     1      42.550 -12.093   3.406  1.00  0.00     0.165 HD
ENDROOT
BRANCH   1  13
HETATM   13  C   UNL     1      40.124 -13.464   2.524  1.00  0.00    -0.020 A 
HETATM   14  C   UNL     1      39.163 -14.425   2.168  1.00  0.00     0.011 A 
HETATM   15  C   UNL     1      38.376 -14.269   1.024  1.00  0.00     0.007 A 
HETATM   16  C   UNL     1      38.538 -13.153   0.201  1.00  0.00    -0.062 A 
HETATM   17  C   UNL     1      37.717 -12.989  -1.042  1.00  0.00     0.048 C 
HETATM   18  C   UNL     1      39.487 -12.185   0.549  1.00  0.00     0.007 A 
HETATM   19  C   UNL     1      40.273 -12.339   1.696  1.00  0.00     0.011 A 
ENDBRANCH   1  13
BRANCH   4  20
HETATM   20  C   UNL     1      43.369 -17.659   3.885  1.00  0.00    -0.020 A 
HETATM   21  C   UNL     1      44.048 -18.723   4.500  1.00  0.00     0.011 A 
HETATM   22  C   UNL     1      44.262 -19.928   3.826  1.00  0.00     0.007 A 
HETATM   23  C   UNL     1      43.805 -20.098   2.516  1.00  0.00    -0.062 A 
HETATM   24  C   UNL     1      44.063 -21.373   1.771  1.00  0.00     0.048 C 
HETATM   25  C   UNL     1      43.112 -19.050   1.900  1.00  0.00     0.007 A 
HETATM   26  C   UNL     1      42.897 -17.846   2.576  1.00  0.00     0.011 A 
ENDBRANCH   4  20
TORSDOF 2
ENDMDL
MODEL 6
REMARK VINA RESULT:      -8.2      2.146      2.871
REMARK  2 active torsions:
REMARK  status: ('A' for Active; 'I' for Inactive)
REMARK    1  A    between atoms: C_5  and  C_6 
REMARK    2  A    between atoms: C_9  and  C_10 
ROOT
HETATM    1  C   UNL     1      42.812 -15.563   5.766  1.00  0.00     0.220 C 
HETATM    2  N   UNL     1      42.853 -15.116   4.385  1.00  0.00    -0.126 NA
HETATM    3  N   UNL     1      41.501 -14.940   3.958  1.00  0.00    -0.126 NA
HETATM    4  C   UNL     1      41.500 -13.892   2.950  1.00  0.00     0.220 C 
HETATM    5  N   UNL     1      42.812 -13.311   3.064  1.00  0.00    -0.324 N 
HETATM    6  C   UNL     1      43.577 -13.995   3.995  1.00  0.00     0.315 C 
HETATM    7  O   UNL     1      44.651 -13.614   4.425  1.00  0.00    -0.252 OA
HETATM    8  C   UNL     1      40.693 -14.888   5.088  1.00  0.00     0.315 C 
HETATM    9  O   UNL     1      39.563 -14.440   5.174  1.00  0.00    -0.252 OA
HETATM   10  N   UNL     1      41.439 -15.368   6.152  1.00  0.00    -0.324 N 
HETATM   11  H   UNL     1      43.096 -12.423   2.683  1.00  0.00     0.165 HD
HETATM   12  H   UNL     1      41.096 -15.348   7.099  1.00  0.00     0.165 HD
ENDROOT
BRANCH   1  13
HETATM   13  C   UNL     1      43.200 -17.018   5.948  1.00  0.00    -0.020 A 
HETATM   14  C   UNL     1      43.496 -17.856   4.860  1.00  0.00     0.011 A 
HETATM   15  C   UNL     1      43.784 -19.210   5.049  1.00  0.00     0.007 A 
HETATM   16  C   UNL     1      43.771 -19.763   6.332  1.00  0.00    -0.062 A 
HETATM   17  C   UNL     1      44.054 -21.220   6.544  1.00  0.00     0.048 C 
HETATM   18  C   UNL     1      43.485 -18.937   7.424  1.00  0.00     0.007 A 
HETATM   19  C   UNL     1      43.200 -17.581   7.235  1.00  0.00     0.011 A 
ENDBRANCH   1  13
BRANCH   4  20
HETATM   20  C   UNL     1      41.284 -14.401   1.536  1.00  0.00    -0.020 A 
HETATM   21  C   UNL     1      41.488 -15.744   1.180  1.00  0.00     0.011 A 
HETATM   22  C   UNL     1      41.359 -16.166  -0.147  1.00  0.00     0.007 A 
HETATM   23  C   UNL     1      41.027 -15.253  -1.151  1.00  0.00    -0.062 A 
HETATM   24  C   UNL     1      40.925 -15.689  -2.582  1.00  0.00     0.048 C 
HETATM   25  C   UNL     1      40.805 -13.916  -0.804  1.00  0.00     0.007 A 
HETATM   26  C   UNL     1      40.932 -13.495   0.522  1.00  0.00     0.011 A 
ENDBRANCH   4  20
TORSDOF 2
ENDMDL
MODEL 7
REMARK VINA RESULT:      -8.1      3.457      7.357
REMARK  2 active torsions:
REMARK  status: ('A' for Active; 'I' for Inactive)
REMARK    1  A    between atoms: C_5  and  C_6 
REMARK    2  A    between atoms: C_9  and  C_10 
ROOT
HETATM    1  C   UNL     1      42.425 -13.287   5.686  1.00  0.00     0.220 C 
HETATM    2  N   UNL     1      42.968 -14.417   4.952  1.00  0.00    -0.126 NA
HETATM    3  N   UNL     1      42.150 -15.549   5.254  1.00  0.00    -0.126 NA
HETATM    4  C   UNL     1      42.185 -16.427   4.095  1.00  0.00     0.220 C 
HETATM    5  N   UNL     1      42.784 -15.612   3.071  1.00  0.00    -0.324 N 
HETATM    6  C   UNL     1      43.159 -14.379   3.576  1.00  0.00     0.315 C 
HETATM    7  O   UNL     1      43.518 -13.431   2.899  1.00  0.00    -0.252 OA
HETATM    8  C   UNL     1      40.959 -15.089   5.804  1.00  0.00     0.315 C 
HETATM    9  O   UNL     1      39.901 -15.687   5.893  1.00  0.00    -0.252 OA
HETATM   10  N   UNL     1      41.156 -13.767   6.168  1.00  0.00    -0.324 N 
HETATM   11  H   UNL     1      42.768 -15.806   2.082  1.00  0.00     0.165 HD
HETATM   12  H   UNL     1      40.406 -13.189   6.513  1.00  0.00     0.165 HD
ENDROOT
BRANCH   1  13
HETATM   13  C   UNL     1      43.288 -12.844   6.851  1.00  0.00    -0.020 A 
HETATM   14  C   UNL     1      44.486 -13.497   7.186  1.00  0.00     0.011 A 
HETATM   15  C   UNL     1      45.229 -13.112   8.305  1.00  0.00     0.007 A 
HETATM   16  C   UNL     1      44.785 -12.072   9.125  1.00  0.00    -0.062 A 
HETATM   17  C   UNL     1      45.561 -11.667  10.342  1.00  0.00     0.048 C 
HETATM   18  C   UNL     1      43.598 -11.409   8.797  1.00  0.00     0.007 A 
HETATM   19  C   UNL     1      42.856 -11.791   7.675  1.00  0.00     0.011 A 
ENDBRANCH   1  13
BRANCH   4  20
HETATM   20  C   UNL     1      43.013 -17.683   4.303  1.00  0.00    -0.020 A 
HETATM   21  C   UNL     1      43.608 -18.378   3.238  1.00  0.00     0.011 A 
HETATM   22  C   UNL     1      44.296 -19.576   3.452  1.00  0.00     0.007 A 
HETATM   23  C   UNL     1      44.402 -20.110   4.738  1.00  0.00    -0.062 A 
HETATM   24  C   UNL     1      45.105 -21.414   4.973  1.00  0.00     0.048 C 
HETATM   25  C   UNL     1      43.828 -19.417   5.809  1.00  0.00     0.007 A 
HETATM   26  C   UNL     1      43.142 -18.219   5.595  1.00  0.00     0.011 A 
ENDBRANCH   4  20
TORSDOF 2
ENDMDL
MODEL 8
REMARK VINA RESULT:      -8.1      2.448      3.373
REMARK  2 active torsions:
REMARK  status: ('A' for Active; 'I' for Inactive)
REMARK    1  A    between atoms: C_5  and  C_6 
REMARK    2  A    between atoms: C_9  and  C_10 
ROOT
HETATM    1  C   UNL     1      43.300 -17.078   6.789  1.00  0.00     0.220 C 
HETATM    2  N   UNL     1      43.437 -16.029   5.793  1.00  0.00    -0.126 NA
HETATM    3  N   UNL     1      42.124 -15.722   5.320  1.00  0.00    -0.126 NA
HETATM    4  C   UNL     1      42.125 -14.323   4.924  1.00  0.00     0.220 C 
HETATM    5  N   UNL     1      43.357 -13.817   5.469  1.00  0.00    -0.324 N 
HETATM    6  C   UNL     1      44.086 -14.831   6.069  1.00  0.00     0.315 C 
HETATM    7  O   UNL     1      45.070 -14.660   6.767  1.00  0.00    -0.252 OA
HETATM    8  C   UNL     1      41.205 -16.240   6.225  1.00  0.00     0.315 C 
HETATM    9  O   UNL     1      40.035 -15.928   6.358  1.00  0.00    -0.252 OA
HETATM   10  N   UNL     1      41.883 -17.138   7.034  1.00  0.00    -0.324 N 
HETATM   11  H   UNL     1      43.592 -12.845   5.586  1.00  0.00     0.165 HD
HETATM   12  H   UNL     1      41.445 -17.581   7.826  1.00  0.00     0.165 HD
ENDROOT
BRANCH   1  13
HETATM   13  C   UNL     1      43.804 -18.431   6.325  1.00  0.00    -0.020 A 
HETATM   14  C   UNL     1      44.469 -18.601   5.099  1.00  0.00     0.011 A 
HETATM   15  C   UNL     1      44.863 -19.868   4.662  1.00  0.00     0.007 A 
HETATM   16  C   UNL     1      44.592 -20.999   5.436  1.00  0.00    -0.062 A 
HETATM   17  C   UNL     1      44.988 -22.366   4.965  1.00  0.00     0.048 C 
HETATM   18  C   UNL     1      43.937 -20.841   6.662  1.00  0.00     0.007 A 
HETATM   19  C   UNL     1      43.545 -19.572   7.101  1.00  0.00     0.011 A 
ENDBRANCH   1  13
BRANCH   4  20
HETATM   20  C   UNL     1      42.102 -14.111   3.421  1.00  0.00    -0.020 A 
HETATM   21  C   UNL     1      42.072 -12.833   2.841  1.00  0.00     0.011 A 
HETATM   22  C   UNL     1      41.969 -12.671   1.456  1.00  0.00     0.007 A 
HETATM   23  C   UNL     1      41.889 -13.785   0.617  1.00  0.00    -0.062 A 
HETATM   24  C   UNL     1      41.740 -13.622  -0.866  1.00  0.00     0.048 C 
HETATM   25  C   UNL     1      41.935 -15.064   1.183  1.00  0.00     0.007 A 
HETATM   26  C   UNL     1      42.040 -15.225   2.567  1.00  0.00     0.011 A 
ENDBRANCH   4  20
TORSDOF 2
ENDMDL
MODEL 9
REMARK VINA RESULT:      -8.0      2.091      7.011
REMARK  2 active torsions:
REMARK  status: ('A' for Active; 'I' for Inactive)
REMARK    1  A    between atoms: C_5  and  C_6 
REMARK    2  A    between atoms: C_9  and  C_10 
ROOT
HETATM    1  C   UNL     1      41.631 -13.868   3.410  1.00  0.00     0.220 C 
HETATM    2  N   UNL     1      41.684 -15.039   4.269  1.00  0.00    -0.126 NA
HETATM    3  N   UNL     1      43.040 -15.191   4.691  1.00  0.00    -0.126 NA
HETATM    4  C   UNL     1      43.016 -15.821   6.001  1.00  0.00     0.220 C 
HETATM    5  N   UNL     1      41.635 -15.728   6.396  1.00  0.00    -0.324 N 
HETATM    6  C   UNL     1      40.868 -15.171   5.387  1.00  0.00     0.315 C 
HETATM    7  O   UNL     1      39.712 -14.806   5.513  1.00  0.00    -0.252 OA
HETATM    8  C   UNL     1      43.705 -13.994   4.453  1.00  0.00     0.315 C 
HETATM    9  O   UNL     1      44.751 -13.612   4.949  1.00  0.00    -0.252 OA
HETATM   10  N   UNL     1      42.915 -13.246   3.595  1.00  0.00    -0.324 N 
HETATM   11  H   UNL     1      41.281 -15.859   7.330  1.00  0.00     0.165 HD
HETATM   12  H   UNL     1      43.147 -12.299   3.342  1.00  0.00     0.165 HD
ENDROOT
BRANCH   1  13
HETATM   13  C   UNL     1      41.418 -14.195   1.944  1.00  0.00    -0.020 A 
HETATM   14  C   UNL     1      41.226 -15.511   1.492  1.00  0.00     0.011 A 
HETATM   15  C   UNL     1      41.101 -15.793   0.129  1.00  0.00     0.007 A 
HETATM   16  C   UNL     1      41.176 -14.768  -0.816  1.00  0.00    -0.062 A 
HETATM   17  C   UNL     1      41.067 -15.062  -2.282  1.00  0.00     0.048 C 
HETATM   18  C   UNL     1      41.358 -13.452  -0.376  1.00  0.00     0.007 A 
HETATM   19  C   UNL     1      41.481 -13.169   0.988  1.00  0.00     0.011 A 
ENDBRANCH   1  13
BRANCH   4  20
HETATM   20  C   UNL     1      43.450 -17.276   5.990  1.00  0.00    -0.020 A 
HETATM   21  C   UNL     1      43.845 -17.935   4.814  1.00  0.00     0.011 A 
HETATM   22  C   UNL     1      44.162 -19.297   4.822  1.00  0.00     0.007 A 
HETATM   23  C   UNL     1      44.088 -20.034   6.007  1.00  0.00    -0.062 A 
HETATM   24  C   UNL     1      44.388 -21.503   6.017  1.00  0.00     0.048 C 
HETATM   25  C   UNL     1      43.712 -19.384   7.187  1.00  0.00     0.007 A 
HETATM   26  C   UNL     1      43.397 -18.022   7.179  1.00  0.00     0.011 A 
ENDBRANCH   4  20
TORSDOF 2
ENDMDL
MODEL 10
REMARK VINA RESULT:      -7.5      2.890      6.556
REMARK  2 active torsions:
REMARK  status: ('A' for Active; 'I' for Inactive)
REMARK    1  A    between atoms: C_5  and  C_6 
REMARK    2  A    between atoms: C_9  and  C_10 
ROOT
HETATM    1  C   UNL     1      40.236 -12.558   2.956  1.00  0.00     0.220 C 
HETATM    2  N   UNL     1      41.273 -13.491   2.549  1.00  0.00    -0.126 NA
HETATM    3  N   UNL     1      40.647 -14.760   2.356  1.00  0.00    -0.126 NA
HETATM    4  C   UNL     1      41.408 -15.466   1.338  1.00  0.00     0.220 C 
HETATM    5  N   UNL     1      42.258 -14.446   0.783  1.00  0.00    -0.324 N 
HETATM    6  C   UNL     1      42.096 -13.247   1.455  1.00  0.00     0.315 C 
HETATM    7  O   UNL     1      42.548 -12.176   1.086  1.00  0.00    -0.252 OA
HETATM    8  C   UNL     1      39.275 -14.556   2.254  1.00  0.00     0.315 C 
HETATM    9  O   UNL     1      38.445 -15.310   1.779  1.00  0.00    -0.252 OA
HETATM   10  N   UNL     1      39.013 -13.278   2.719  1.00  0.00    -0.324 N 
HETATM   11  H   UNL     1      42.761 -14.511  -0.088  1.00  0.00     0.165 HD
HETATM   12  H   UNL     1      38.094 -12.867   2.665  1.00  0.00     0.165 HD
ENDROOT
BRANCH   1  13
HETATM   13  C   UNL     1      40.323 -12.146   4.413  1.00  0.00    -0.020 A 
HETATM   14  C   UNL     1      39.465 -12.674   5.392  1.00  0.00     0.011 A 
HETATM   15  C   UNL     1      39.519 -12.228   6.715  1.00  0.00     0.007 A 
HETATM   16  C   UNL     1      40.426 -11.234   7.089  1.00  0.00    -0.062 A 
HETATM   17  C   UNL     1      40.476 -10.730   8.500  1.00  0.00     0.048 C 
HETATM   18  C   UNL     1      41.291 -10.706   6.124  1.00  0.00     0.007 A 
HETATM   19  C   UNL     1      41.239 -11.155   4.800  1.00  0.00     0.011 A 
ENDBRANCH   1  13
BRANCH   4  20
HETATM   20  C   UNL     1      42.255 -16.602   1.883  1.00  0.00    -0.020 A 
HETATM   21  C   UNL     1      43.359 -17.120   1.187  1.00  0.00     0.011 A 
HETATM   22  C   UNL     1      44.070 -18.219   1.676  1.00  0.00     0.007 A 
HETATM   23  C   UNL     1      43.691 -18.831   2.874  1.00  0.00    -0.062 A 
HETATM   24  C   UNL     1      44.423 -20.034   3.387  1.00  0.00     0.048 C 
HETATM   25  C   UNL     1      42.603 -18.313   3.584  1.00  0.00     0.007 A 
HETATM   26  C   UNL     1      41.894 -17.212   3.096  1.00  0.00     0.011 A 
ENDBRANCH   4  20
TORSDOF 2
ENDMDL
