MODEL 1
REMARK VINA RESULT:      -8.5      0.000      0.000
REMARK  6 active torsions:
REMARK  status: ('A' for Active; 'I' for Inactive)
REMARK    1  A    between atoms: N_2  and  C_4 
REMARK    2  A    between atoms: C_4  and  C_5 
REMARK    3  A    between atoms: C_5  and  C_6 
REMARK    4  A    between atoms: C_6  and  N_7 
REMARK    5  A    between atoms: C_17  and  C_18 
REMARK    6  A    between atoms: C_26  and  O_27 
ROOT
HETATM    1  N   UNL     1      40.645 -15.991   1.865  1.00  0.00    -0.327 N 
HETATM    2  C   UNL     1      40.940 -16.281   3.141  1.00  0.00     0.113 C 
HETATM    3  N   UNL     1      40.372 -15.700   4.184  1.00  0.00    -0.385 N 
HETATM    4  H   UNL     1      40.640 -15.924   5.136  1.00  0.00     0.157 HD
HETATM    5  H   UNL     1      39.724 -14.929   4.126  1.00  0.00     0.157 HD
HETATM    6  C   UNL     1      41.973 -17.342   3.381  1.00  0.00     0.052 C 
HETATM    7  C   UNL     1      42.565 -17.909   2.314  1.00  0.00     0.182 C 
HETATM    8  O   UNL     1      43.514 -18.913   2.421  1.00  0.00    -0.291 OA
HETATM    9  C   UNL     1      43.761 -19.493   3.639  1.00  0.00     0.087 A 
HETATM   10  C   UNL     1      43.222 -18.992   4.824  1.00  0.00    -0.011 A 
HETATM   11  C   UNL     1      42.366 -17.747   4.790  1.00  0.00     0.095 C 
HETATM   12  C   UNL     1      44.589 -20.618   3.639  1.00  0.00     0.074 A 
HETATM   13  C   UNL     1      44.863 -21.255   4.843  1.00  0.00     0.068 A 
HETATM   14  C   UNL     1      44.324 -20.786   6.035  1.00  0.00     0.037 A 
HETATM   15  C   UNL     1      43.505 -19.656   6.029  1.00  0.00     0.014 A 
HETATM   16  N   UNL     1      42.326 -17.498   1.035  1.00  0.00    -0.219 NA
HETATM   17  C   UNL     1      41.460 -16.578   0.836  1.00  0.00     0.214 C 
ENDROOT
BRANCH   1  18
HETATM   18  C   UNL     1      39.645 -14.955   1.492  1.00  0.00     0.133 C 
BRANCH  18  19
HETATM   19  C   UNL     1      40.125 -13.858   0.524  1.00  0.00     0.048 C 
BRANCH  19  20
HETATM   20  C   UNL     1      39.141 -13.536  -0.603  1.00  0.00     0.235 C 
BRANCH  20  21
HETATM   21  N   UNL     1      39.144 -14.623  -1.665  1.00  0.00    -0.079 N 
HETATM   22  C   UNL     1      40.478 -14.829  -2.350  1.00  0.00     0.269 C 
HETATM   23  H   UNL     1      38.899 -15.527  -1.233  1.00  0.00     0.278 HD
HETATM   24  C   UNL     1      38.067 -14.386  -2.708  1.00  0.00     0.269 C 
ENDBRANCH  20  21
ENDBRANCH  19  20
ENDBRANCH  18  19
ENDBRANCH   1  18
BRANCH  11  25
HETATM   25  C   UNL     1      43.032 -16.591   5.541  1.00  0.00    -0.045 A 
HETATM   26  C   UNL     1      43.536 -15.469   4.858  1.00  0.00     0.010 A 
HETATM   27  C   UNL     1      44.126 -14.414   5.556  1.00  0.00     0.024 A 
HETATM   28  C   UNL     1      44.235 -14.475   6.943  1.00  0.00     0.034 A 
HETATM   29 CL   UNL     1      44.945 -13.169   7.803  1.00  0.00    -0.084 Cl
HETATM   30  C   UNL     1      43.772 -15.591   7.636  1.00  0.00     0.024 A 
HETATM   31  C   UNL     1      43.179 -16.648   6.940  1.00  0.00     0.010 A 
ENDBRANCH  11  25
BRANCH  13  32
HETATM   32  O   UNL     1      45.662 -22.356   4.906  1.00  0.00    -0.361 OA
HETATM   33  H   UNL     1      45.259 -23.025   5.484  1.00  0.00     0.217 HD
ENDBRANCH  13  32
TORSDOF 6
ENDMDL
MODEL 2
REMARK VINA RESULT:      -8.5      1.470      2.419
REMARK  6 active torsions:
REMARK  status: ('A' for Active; 'I' for Inactive)
REMARK    1  A    between atoms: N_2  and  C_4 
REMARK    2  A    between atoms: C_4  and  C_5 
REMARK    3  A    between atoms: C_5  and  C_6 
REMARK    4  A    between atoms: C_6  and  N_7 
REMARK    5  A    between atoms: C_17  and  C_18 
REMARK    6  A    between atoms: C_26  and  O_27 
ROOT
HETATM    1  N   UNL     1      40.381 -15.833   2.210  1.00  0.00    -0.327 N 
HETATM    2  C   UNL     1      40.772 -16.147   3.453  1.00  0.00     0.113 C 
HETATM    3  N   UNL     1      40.290 -15.583   4.547  1.00  0.00    -0.385 N 
HETATM    4  H   UNL     1      40.630 -15.825   5.472  1.00  0.00     0.157 HD
HETATM    5  H   UNL     1      39.642 -14.810   4.554  1.00  0.00     0.157 HD
HETATM    6  C   UNL     1      41.818 -17.214   3.595  1.00  0.00     0.052 C 
HETATM    7  C   UNL     1      42.323 -17.764   2.475  1.00  0.00     0.182 C 
HETATM    8  O   UNL     1      43.274 -18.772   2.490  1.00  0.00    -0.291 OA
HETATM    9  C   UNL     1      43.612 -19.374   3.675  1.00  0.00     0.087 A 
HETATM   10  C   UNL     1      43.168 -18.893   4.907  1.00  0.00    -0.011 A 
HETATM   11  C   UNL     1      42.317 -17.646   4.961  1.00  0.00     0.095 C 
HETATM   12  C   UNL     1      44.433 -20.501   3.591  1.00  0.00     0.074 A 
HETATM   13  C   UNL     1      44.797 -21.160   4.759  1.00  0.00     0.068 A 
HETATM   14  C   UNL     1      44.354 -20.711   5.997  1.00  0.00     0.037 A 
HETATM   15  C   UNL     1      43.542 -19.580   6.074  1.00  0.00     0.014 A 
HETATM   16  N   UNL     1      41.988 -17.329   1.225  1.00  0.00    -0.219 NA
HETATM   17  C   UNL     1      41.112 -16.404   1.110  1.00  0.00     0.214 C 
ENDROOT
BRANCH   1  18
HETATM   18  C   UNL     1      39.359 -14.789   1.933  1.00  0.00     0.133 C 
BRANCH  18  19
HETATM   19  C   UNL     1      39.888 -13.416   1.477  1.00  0.00     0.048 C 
BRANCH  19  20
HETATM   20  C   UNL     1      39.998 -12.379   2.597  1.00  0.00     0.235 C 
BRANCH  20  21
HETATM   21  N   UNL     1      41.450 -12.073   2.926  1.00  0.00    -0.079 N 
HETATM   22  C   UNL     1      42.451 -13.003   2.273  1.00  0.00     0.269 C 
HETATM   23  H   UNL     1      41.684 -11.124   2.600  1.00  0.00     0.278 HD
HETATM   24  C   UNL     1      41.686 -12.041   4.425  1.00  0.00     0.269 C 
ENDBRANCH  20  21
ENDBRANCH  19  20
ENDBRANCH  18  19
ENDBRANCH   1  18
BRANCH  11  25
HETATM   25  C   UNL     1      43.043 -16.505   5.679  1.00  0.00    -0.045 A 
HETATM   26  C   UNL     1      43.158 -16.481   7.082  1.00  0.00     0.010 A 
HETATM   27  C   UNL     1      43.838 -15.444   7.724  1.00  0.00     0.024 A 
HETATM   28  C   UNL     1      44.394 -14.410   6.974  1.00  0.00     0.034 A 
HETATM   29 CL   UNL     1      45.243 -13.143   7.764  1.00  0.00    -0.084 Cl
HETATM   30  C   UNL     1      44.262 -14.398   5.588  1.00  0.00     0.024 A 
HETATM   31  C   UNL     1      43.584 -15.436   4.942  1.00  0.00     0.010 A 
ENDBRANCH  11  25
BRANCH  13  32
HETATM   32  O   UNL     1      45.594 -22.264   4.740  1.00  0.00    -0.361 OA
HETATM   33  H   UNL     1      46.202 -22.220   3.983  1.00  0.00     0.217 HD
ENDBRANCH  13  32
TORSDOF 6
ENDMDL
MODEL 3
REMARK VINA RESULT:      -8.4      3.337      6.930
REMARK  6 active torsions:
REMARK  status: ('A' for Active; 'I' for Inactive)
REMARK    1  A    between atoms: N_2  and  C_4 
REMARK    2  A    between atoms: C_4  and  C_5 
REMARK    3  A    between atoms: C_5  and  C_6 
REMARK    4  A    between atoms: C_6  and  N_7 
REMARK    5  A    between atoms: C_17  and  C_18 
REMARK    6  A    between atoms: C_26  and  O_27 
ROOT
HETATM    1  N   UNL     1      43.835 -14.439   6.442  1.00  0.00    -0.327 N 
HETATM    2  C   UNL     1      43.679 -14.642   5.125  1.00  0.00     0.113 C 
HETATM    3  N   UNL     1      43.583 -13.672   4.232  1.00  0.00    -0.385 N 
HETATM    4  H   UNL     1      43.437 -13.862   3.246  1.00  0.00     0.157 HD
HETATM    5  H   UNL     1      43.536 -12.690   4.457  1.00  0.00     0.157 HD
HETATM    6  C   UNL     1      43.623 -16.065   4.653  1.00  0.00     0.052 C 
HETATM    7  C   UNL     1      43.695 -17.045   5.572  1.00  0.00     0.182 C 
HETATM    8  O   UNL     1      43.676 -18.391   5.244  1.00  0.00    -0.291 OA
HETATM    9  C   UNL     1      43.757 -18.776   3.931  1.00  0.00     0.087 A 
HETATM   10  C   UNL     1      43.679 -17.860   2.881  1.00  0.00    -0.011 A 
HETATM   11  C   UNL     1      43.459 -16.395   3.181  1.00  0.00     0.095 C 
HETATM   12  C   UNL     1      43.920 -20.142   3.688  1.00  0.00     0.074 A 
HETATM   13  C   UNL     1      44.023 -20.588   2.377  1.00  0.00     0.068 A 
HETATM   14  C   UNL     1      43.965 -19.694   1.315  1.00  0.00     0.037 A 
HETATM   15  C   UNL     1      43.793 -18.332   1.563  1.00  0.00     0.014 A 
HETATM   16  N   UNL     1      43.729 -16.795   6.914  1.00  0.00    -0.219 NA
HETATM   17  C   UNL     1      43.755 -15.580   7.313  1.00  0.00     0.214 C 
ENDROOT
BRANCH   1  18
HETATM   18  C   UNL     1      43.899 -13.078   7.038  1.00  0.00     0.133 C 
BRANCH  18  19
HETATM   19  C   UNL     1      44.718 -12.937   8.335  1.00  0.00     0.048 C 
BRANCH  19  20
HETATM   20  C   UNL     1      44.359 -11.712   9.178  1.00  0.00     0.235 C 
BRANCH  20  21
HETATM   21  N   UNL     1      43.435 -12.083  10.327  1.00  0.00    -0.079 N 
HETATM   22  C   UNL     1      42.465 -10.994  10.730  1.00  0.00     0.269 C 
HETATM   23  H   UNL     1      42.862 -12.896  10.058  1.00  0.00     0.278 HD
HETATM   24  C   UNL     1      44.218 -12.544  11.543  1.00  0.00     0.269 C 
ENDBRANCH  20  21
ENDBRANCH  19  20
ENDBRANCH  18  19
ENDBRANCH   1  18
BRANCH  11  25
HETATM   25  C   UNL     1      42.109 -15.912   2.644  1.00  0.00    -0.045 A 
HETATM   26  C   UNL     1      40.904 -16.247   3.290  1.00  0.00     0.010 A 
HETATM   27  C   UNL     1      39.680 -15.786   2.800  1.00  0.00     0.024 A 
HETATM   28  C   UNL     1      39.645 -15.002   1.650  1.00  0.00     0.034 A 
HETATM   29 CL   UNL     1      38.141 -14.422   1.057  1.00  0.00    -0.084 Cl
HETATM   30  C   UNL     1      40.823 -14.687   0.977  1.00  0.00     0.024 A 
HETATM   31  C   UNL     1      42.050 -15.145   1.466  1.00  0.00     0.010 A 
ENDBRANCH  11  25
BRANCH  13  32
HETATM   32  O   UNL     1      44.183 -21.907   2.079  1.00  0.00    -0.361 OA
HETATM   33  H   UNL     1      43.594 -22.155   1.347  1.00  0.00     0.217 HD
ENDBRANCH  13  32
TORSDOF 6
ENDMDL
MODEL 4
REMARK VINA RESULT:      -8.3      1.942      2.515
REMARK  6 active torsions:
REMARK  status: ('A' for Active; 'I' for Inactive)
REMARK    1  A    between atoms: N_2  and  C_4 
REMARK    2  A    between atoms: C_4  and  C_5 
REMARK    3  A    between atoms: C_5  and  C_6 
REMARK    4  A    between atoms: C_6  and  N_7 
REMARK    5  A    between atoms: C_17  and  C_18 
REMARK    6  A    between atoms: C_26  and  O_27 
ROOT
HETATM    1  N   UNL     1      39.968 -14.855   0.083  1.00  0.00    -0.327 N 
HETATM    2  C   UNL     1      39.910 -15.096   1.401  1.00  0.00     0.113 C 
HETATM    3  N   UNL     1      38.956 -14.644   2.196  1.00  0.00    -0.385 N 
HETATM    4  H   UNL     1      38.960 -14.822   3.195  1.00  0.00     0.157 HD
HETATM    5  H   UNL     1      38.226 -14.010   1.910  1.00  0.00     0.157 HD
HETATM    6  C   UNL     1      40.999 -15.943   1.991  1.00  0.00     0.052 C 
HETATM    7  C   UNL     1      41.981 -16.377   1.179  1.00  0.00     0.182 C 
HETATM    8  O   UNL     1      43.021 -17.182   1.614  1.00  0.00    -0.291 OA
HETATM    9  C   UNL     1      42.990 -17.716   2.876  1.00  0.00     0.087 A 
HETATM   10  C   UNL     1      42.034 -17.338   3.820  1.00  0.00    -0.011 A 
HETATM   11  C   UNL     1      41.015 -16.279   3.470  1.00  0.00     0.095 C 
HETATM   12  C   UNL     1      43.971 -18.663   3.179  1.00  0.00     0.074 A 
HETATM   13  C   UNL     1      43.980 -19.248   4.440  1.00  0.00     0.068 A 
HETATM   14  C   UNL     1      43.029 -18.901   5.391  1.00  0.00     0.037 A 
HETATM   15  C   UNL     1      42.057 -17.948   5.086  1.00  0.00     0.014 A 
HETATM   16  N   UNL     1      42.070 -16.006  -0.132  1.00  0.00    -0.219 NA
HETATM   17  C   UNL     1      41.150 -15.267  -0.626  1.00  0.00     0.214 C 
ENDROOT
BRANCH   1  18
HETATM   18  C   UNL     1      38.955 -14.026  -0.623  1.00  0.00     0.133 C 
BRANCH  18  19
HETATM   19  C   UNL     1      39.475 -13.139  -1.770  1.00  0.00     0.048 C 
BRANCH  19  20
HETATM   20  C   UNL     1      39.012 -13.572  -3.162  1.00  0.00     0.235 C 
BRANCH  20  21
HETATM   21  N   UNL     1      38.547 -15.019  -3.163  1.00  0.00    -0.079 N 
HETATM   22  C   UNL     1      39.471 -15.976  -3.886  1.00  0.00     0.269 C 
HETATM   23  H   UNL     1      38.480 -15.360  -2.193  1.00  0.00     0.278 HD
HETATM   24  C   UNL     1      37.141 -15.151  -3.721  1.00  0.00     0.269 C 
ENDBRANCH  20  21
ENDBRANCH  19  20
ENDBRANCH  18  19
ENDBRANCH   1  18
BRANCH  11  25
HETATM   25  C   UNL     1      41.196 -15.025   4.330  1.00  0.00    -0.045 A 
HETATM   26  C   UNL     1      42.326 -14.198   4.186  1.00  0.00     0.010 A 
HETATM   27  C   UNL     1      42.471 -13.048   4.964  1.00  0.00     0.024 A 
HETATM   28  C   UNL     1      41.499 -12.720   5.906  1.00  0.00     0.034 A 
HETATM   29 CL   UNL     1      41.671 -11.296   6.850  1.00  0.00    -0.084 Cl
HETATM   30  C   UNL     1      40.390 -13.542   6.087  1.00  0.00     0.024 A 
HETATM   31  C   UNL     1      40.241 -14.694   5.308  1.00  0.00     0.010 A 
ENDBRANCH  11  25
BRANCH  13  32
HETATM   32  O   UNL     1      44.911 -20.177   4.792  1.00  0.00    -0.361 OA
HETATM   33  H   UNL     1      45.386 -20.485   4.003  1.00  0.00     0.217 HD
ENDBRANCH  13  32
TORSDOF 6
ENDMDL
MODEL 5
REMARK VINA RESULT:      -8.3      4.319      7.568
REMARK  6 active torsions:
REMARK  status: ('A' for Active; 'I' for Inactive)
REMARK    1  A    between atoms: N_2  and  C_4 
REMARK    2  A    between atoms: C_4  and  C_5 
REMARK    3  A    between atoms: C_5  and  C_6 
REMARK    4  A    between atoms: C_6  and  N_7 
REMARK    5  A    between atoms: C_17  and  C_18 
REMARK    6  A    between atoms: C_26  and  O_27 
ROOT
HETATM    1  N   UNL     1      40.093 -11.107   6.414  1.00  0.00    -0.327 N 
HETATM    2  C   UNL     1      39.992 -12.424   6.182  1.00  0.00     0.113 C 
HETATM    3  N   UNL     1      39.448 -13.287   7.024  1.00  0.00    -0.385 N 
HETATM    4  H   UNL     1      39.414 -14.281   6.828  1.00  0.00     0.157 HD
HETATM    5  H   UNL     1      39.130 -13.056   7.953  1.00  0.00     0.157 HD
HETATM    6  C   UNL     1      40.525 -12.933   4.875  1.00  0.00     0.052 C 
HETATM    7  C   UNL     1      41.101 -12.052   4.035  1.00  0.00     0.182 C 
HETATM    8  O   UNL     1      41.604 -12.410   2.795  1.00  0.00    -0.291 OA
HETATM    9  C   UNL     1      41.373 -13.667   2.299  1.00  0.00     0.087 A 
HETATM   10  C   UNL     1      40.798 -14.676   3.072  1.00  0.00    -0.011 A 
HETATM   11  C   UNL     1      40.446 -14.405   4.516  1.00  0.00     0.095 C 
HETATM   12  C   UNL     1      41.747 -13.895   0.973  1.00  0.00     0.074 A 
HETATM   13  C   UNL     1      41.524 -15.147   0.414  1.00  0.00     0.068 A 
HETATM   14  C   UNL     1      40.937 -16.164   1.157  1.00  0.00     0.037 A 
HETATM   15  C   UNL     1      40.574 -15.933   2.484  1.00  0.00     0.014 A 
HETATM   16  N   UNL     1      41.295 -10.742   4.363  1.00  0.00    -0.219 NA
HETATM   17  C   UNL     1      40.858 -10.317   5.487  1.00  0.00     0.214 C 
ENDROOT
BRANCH   1  18
HETATM   18  C   UNL     1      39.610 -10.479   7.672  1.00  0.00     0.133 C 
BRANCH  18  19
HETATM   19  C   UNL     1      40.582 -10.504   8.867  1.00  0.00     0.048 C 
BRANCH  19  20
HETATM   20  C   UNL     1      39.915 -10.773  10.218  1.00  0.00     0.235 C 
BRANCH  20  21
HETATM   21  N   UNL     1      40.840 -11.544  11.145  1.00  0.00    -0.079 N 
HETATM   22  C   UNL     1      40.425 -11.527  12.601  1.00  0.00     0.269 C 
HETATM   23  H   UNL     1      40.862 -12.535  10.863  1.00  0.00     0.278 HD
HETATM   24  C   UNL     1      42.276 -11.070  11.019  1.00  0.00     0.269 C 
ENDBRANCH  20  21
ENDBRANCH  19  20
ENDBRANCH  18  19
ENDBRANCH   1  18
BRANCH  11  25
HETATM   25  C   UNL     1      41.290 -15.260   5.466  1.00  0.00    -0.045 A 
HETATM   26  C   UNL     1      42.637 -14.949   5.727  1.00  0.00     0.010 A 
HETATM   27  C   UNL     1      43.391 -15.726   6.609  1.00  0.00     0.024 A 
HETATM   28  C   UNL     1      42.813 -16.833   7.225  1.00  0.00     0.034 A 
HETATM   29 CL   UNL     1      43.737 -17.779   8.321  1.00  0.00    -0.084 Cl
HETATM   30  C   UNL     1      41.491 -17.178   6.955  1.00  0.00     0.024 A 
HETATM   31  C   UNL     1      40.733 -16.400   6.075  1.00  0.00     0.010 A 
ENDBRANCH  11  25
BRANCH  13  32
HETATM   32  O   UNL     1      41.866 -15.429  -0.874  1.00  0.00    -0.361 OA
HETATM   33  H   UNL     1      41.542 -14.728  -1.463  1.00  0.00     0.217 HD
ENDBRANCH  13  32
TORSDOF 6
ENDMDL
MODEL 6
REMARK VINA RESULT:      -8.0      3.644      7.375
REMARK  6 active torsions:
REMARK  status: ('A' for Active; 'I' for Inactive)
REMARK    1  A    between atoms: N_2  and  C_4 
REMARK    2  A    between atoms: C_4  and  C_5 
REMARK    3  A    between atoms: C_5  and  C_6 
REMARK    4  A    between atoms: C_6  and  N_7 
REMARK    5  A    between atoms: C_17  and  C_18 
REMARK    6  A    between atoms: C_26  and  O_27 
ROOT
HETATM    1  N   UNL     1      43.985 -14.368   6.774  1.00  0.00    -0.327 N 
HETATM    2  C   UNL     1      43.317 -15.466   6.392  1.00  0.00     0.113 C 
HETATM    3  N   UNL     1      42.885 -16.399   7.223  1.00  0.00    -0.385 N 
HETATM    4  H   UNL     1      42.407 -17.232   6.895  1.00  0.00     0.157 HD
HETATM    5  H   UNL     1      43.083 -16.420   8.211  1.00  0.00     0.157 HD
HETATM    6  C   UNL     1      43.041 -15.624   4.925  1.00  0.00     0.052 C 
HETATM    7  C   UNL     1      43.508 -14.683   4.084  1.00  0.00     0.182 C 
HETATM    8  O   UNL     1      43.291 -14.718   2.715  1.00  0.00    -0.291 OA
HETATM    9  C   UNL     1      42.429 -15.643   2.183  1.00  0.00     0.087 A 
HETATM   10  C   UNL     1      41.888 -16.679   2.945  1.00  0.00    -0.011 A 
HETATM   11  C   UNL     1      42.282 -16.827   4.396  1.00  0.00     0.095 C 
HETATM   12  C   UNL     1      42.117 -15.501   0.830  1.00  0.00     0.074 A 
HETATM   13  C   UNL     1      41.238 -16.401   0.240  1.00  0.00     0.068 A 
HETATM   14  C   UNL     1      40.672 -17.431   0.981  1.00  0.00     0.037 A 
HETATM   15  C   UNL     1      40.995 -17.573   2.331  1.00  0.00     0.014 A 
HETATM   16  N   UNL     1      44.290 -13.646   4.500  1.00  0.00    -0.219 NA
HETATM   17  C   UNL     1      44.540 -13.526   5.749  1.00  0.00     0.214 C 
ENDROOT
BRANCH   1  18
HETATM   18  C   UNL     1      44.327 -14.097   8.196  1.00  0.00     0.133 C 
BRANCH  18  19
HETATM   19  C   UNL     1      45.101 -12.795   8.477  1.00  0.00     0.048 C 
BRANCH  19  20
HETATM   20  C   UNL     1      44.238 -11.653   9.018  1.00  0.00     0.235 C 
BRANCH  20  21
HETATM   21  N   UNL     1      43.444 -12.090  10.237  1.00  0.00    -0.079 N 
HETATM   22  C   UNL     1      42.390 -11.101  10.689  1.00  0.00     0.269 C 
HETATM   23  H   UNL     1      42.945 -12.967  10.027  1.00  0.00     0.278 HD
HETATM   24  C   UNL     1      44.356 -12.430  11.403  1.00  0.00     0.269 C 
ENDBRANCH  20  21
ENDBRANCH  19  20
ENDBRANCH  18  19
ENDBRANCH   1  18
BRANCH  11  25
HETATM   25  C   UNL     1      43.055 -18.127   4.635  1.00  0.00    -0.045 A 
HETATM   26  C   UNL     1      42.898 -18.862   5.825  1.00  0.00     0.010 A 
HETATM   27  C   UNL     1      43.595 -20.056   6.023  1.00  0.00     0.024 A 
HETATM   28  C   UNL     1      44.470 -20.519   5.044  1.00  0.00     0.034 A 
HETATM   29 CL   UNL     1      45.315 -21.995   5.282  1.00  0.00    -0.084 Cl
HETATM   30  C   UNL     1      44.664 -19.790   3.873  1.00  0.00     0.024 A 
HETATM   31  C   UNL     1      43.966 -18.596   3.671  1.00  0.00     0.010 A 
ENDBRANCH  11  25
BRANCH  13  32
HETATM   32  O   UNL     1      40.896 -16.312  -1.075  1.00  0.00    -0.361 OA
HETATM   33  H   UNL     1      40.845 -17.200  -1.464  1.00  0.00     0.217 HD
ENDBRANCH  13  32
TORSDOF 6
ENDMDL
MODEL 7
REMARK VINA RESULT:      -7.9      3.926      7.541
REMARK  6 active torsions:
REMARK  status: ('A' for Active; 'I' for Inactive)
REMARK    1  A    between atoms: N_2  and  C_4 
REMARK    2  A    between atoms: C_4  and  C_5 
REMARK    3  A    between atoms: C_5  and  C_6 
REMARK    4  A    between atoms: C_6  and  N_7 
REMARK    5  A    between atoms: C_17  and  C_18 
REMARK    6  A    between atoms: C_26  and  O_27 
ROOT
HETATM    1  N   UNL     1      43.580 -17.782   6.078  1.00  0.00    -0.327 N 
HETATM    2  C   UNL     1      42.488 -17.299   5.467  1.00  0.00     0.113 C 
HETATM    3  N   UNL     1      41.618 -18.043   4.806  1.00  0.00    -0.385 N 
HETATM    4  H   UNL     1      40.817 -17.641   4.331  1.00  0.00     0.157 HD
HETATM    5  H   UNL     1      41.729 -19.030   4.627  1.00  0.00     0.157 HD
HETATM    6  C   UNL     1      42.248 -15.821   5.558  1.00  0.00     0.052 C 
HETATM    7  C   UNL     1      43.153 -15.067   6.210  1.00  0.00     0.182 C 
HETATM    8  O   UNL     1      43.019 -13.698   6.373  1.00  0.00    -0.291 OA
HETATM    9  C   UNL     1      41.849 -13.078   6.017  1.00  0.00     0.087 A 
HETATM   10  C   UNL     1      40.837 -13.743   5.322  1.00  0.00    -0.011 A 
HETATM   11  C   UNL     1      41.035 -15.183   4.908  1.00  0.00     0.095 C 
HETATM   12  C   UNL     1      41.716 -11.736   6.380  1.00  0.00     0.074 A 
HETATM   13  C   UNL     1      40.545 -11.061   6.056  1.00  0.00     0.068 A 
HETATM   14  C   UNL     1      39.516 -11.706   5.381  1.00  0.00     0.037 A 
HETATM   15  C   UNL     1      39.659 -13.044   5.013  1.00  0.00     0.014 A 
HETATM   16  N   UNL     1      44.314 -15.580   6.711  1.00  0.00    -0.219 NA
HETATM   17  C   UNL     1      44.524 -16.838   6.613  1.00  0.00     0.214 C 
ENDROOT
BRANCH   1  18
HETATM   18  C   UNL     1      43.934 -19.226   6.057  1.00  0.00     0.133 C 
BRANCH  18  19
HETATM   19  C   UNL     1      45.004 -19.654   5.035  1.00  0.00     0.048 C 
BRANCH  19  20
HETATM   20  C   UNL     1      44.647 -20.910   4.237  1.00  0.00     0.235 C 
BRANCH  20  21
HETATM   21  N   UNL     1      44.690 -20.644   2.741  1.00  0.00    -0.079 N 
HETATM   22  C   UNL     1      43.896 -19.434   2.295  1.00  0.00     0.269 C 
HETATM   23  H   UNL     1      45.664 -20.474   2.450  1.00  0.00     0.278 HD
HETATM   24  C   UNL     1      44.252 -21.861   1.947  1.00  0.00     0.269 C 
ENDBRANCH  20  21
ENDBRANCH  19  20
ENDBRANCH  18  19
ENDBRANCH   1  18
BRANCH  11  25
HETATM   25  C   UNL     1      41.075 -15.324   3.384  1.00  0.00    -0.045 A 
HETATM   26  C   UNL     1      39.992 -15.873   2.672  1.00  0.00     0.010 A 
HETATM   27  C   UNL     1      40.034 -15.981   1.281  1.00  0.00     0.024 A 
HETATM   28  C   UNL     1      41.164 -15.559   0.586  1.00  0.00     0.034 A 
HETATM   29 CL   UNL     1      41.208 -15.677  -1.127  1.00  0.00    -0.084 Cl
HETATM   30  C   UNL     1      42.260 -15.044   1.274  1.00  0.00     0.024 A 
HETATM   31  C   UNL     1      42.221 -14.933   2.667  1.00  0.00     0.010 A 
ENDBRANCH  11  25
BRANCH  13  32
HETATM   32  O   UNL     1      40.358  -9.753   6.385  1.00  0.00    -0.361 OA
HETATM   33  H   UNL     1      40.589  -9.610   7.318  1.00  0.00     0.217 HD
ENDBRANCH  13  32
TORSDOF 6
ENDMDL
MODEL 8
REMARK VINA RESULT:      -7.9      3.798      5.832
REMARK  6 active torsions:
REMARK  status: ('A' for Active; 'I' for Inactive)
REMARK    1  A    between atoms: N_2  and  C_4 
REMARK    2  A    between atoms: C_4  and  C_5 
REMARK    3  A    between atoms: C_5  and  C_6 
REMARK    4  A    between atoms: C_6  and  N_7 
REMARK    5  A    between atoms: C_17  and  C_18 
REMARK    6  A    between atoms: C_26  and  O_27 
ROOT
HETATM    1  N   UNL     1      39.633 -14.289  -0.834  1.00  0.00    -0.327 N 
HETATM    2  C   UNL     1      40.814 -14.622  -0.293  1.00  0.00     0.113 C 
HETATM    3  N   UNL     1      41.812 -15.167  -0.967  1.00  0.00    -0.385 N 
HETATM    4  H   UNL     1      42.682 -15.433  -0.519  1.00  0.00     0.157 HD
HETATM    5  H   UNL     1      41.759 -15.458  -1.931  1.00  0.00     0.157 HD
HETATM    6  C   UNL     1      41.001 -14.344   1.170  1.00  0.00     0.052 C 
HETATM    7  C   UNL     1      39.970 -13.814   1.854  1.00  0.00     0.182 C 
HETATM    8  O   UNL     1      40.041 -13.496   3.201  1.00  0.00    -0.291 OA
HETATM    9  C   UNL     1      41.246 -13.552   3.854  1.00  0.00     0.087 A 
HETATM   10  C   UNL     1      42.388 -14.093   3.262  1.00  0.00    -0.011 A 
HETATM   11  C   UNL     1      42.305 -14.675   1.870  1.00  0.00     0.095 C 
HETATM   12  C   UNL     1      41.277 -13.042   5.154  1.00  0.00     0.074 A 
HETATM   13  C   UNL     1      42.474 -13.060   5.859  1.00  0.00     0.068 A 
HETATM   14  C   UNL     1      43.630 -13.578   5.285  1.00  0.00     0.037 A 
HETATM   15  C   UNL     1      43.590 -14.094   3.990  1.00  0.00     0.014 A 
HETATM   16  N   UNL     1      38.744 -13.605   1.294  1.00  0.00    -0.219 NA
HETATM   17  C   UNL     1      38.583 -13.863   0.051  1.00  0.00     0.214 C 
ENDROOT
BRANCH   1  18
HETATM   18  C   UNL     1      39.319 -14.519  -2.269  1.00  0.00     0.133 C 
BRANCH  18  19
HETATM   19  C   UNL     1      38.143 -13.713  -2.851  1.00  0.00     0.048 C 
BRANCH  19  20
HETATM   20  C   UNL     1      37.256 -14.499  -3.818  1.00  0.00     0.235 C 
BRANCH  20  21
HETATM   21  N   UNL     1      36.616 -13.583  -4.849  1.00  0.00    -0.079 N 
HETATM   22  C   UNL     1      36.564 -12.125  -4.447  1.00  0.00     0.269 C 
HETATM   23  H   UNL     1      37.156 -13.622  -5.726  1.00  0.00     0.278 HD
HETATM   24  C   UNL     1      35.224 -14.057  -5.227  1.00  0.00     0.269 C 
ENDBRANCH  20  21
ENDBRANCH  19  20
ENDBRANCH  18  19
ENDBRANCH   1  18
BRANCH  11  25
HETATM   25  C   UNL     1      42.569 -16.184   1.880  1.00  0.00    -0.045 A 
HETATM   26  C   UNL     1      41.561 -17.100   2.234  1.00  0.00     0.010 A 
HETATM   27  C   UNL     1      41.810 -18.474   2.222  1.00  0.00     0.024 A 
HETATM   28  C   UNL     1      43.072 -18.947   1.874  1.00  0.00     0.034 A 
HETATM   29 CL   UNL     1      43.372 -20.638   1.844  1.00  0.00    -0.084 Cl
HETATM   30  C   UNL     1      44.093 -18.056   1.552  1.00  0.00     0.024 A 
HETATM   31  C   UNL     1      43.847 -16.680   1.561  1.00  0.00     0.010 A 
ENDBRANCH  11  25
BRANCH  13  32
HETATM   32  O   UNL     1      42.566 -12.577   7.128  1.00  0.00    -0.361 OA
HETATM   33  H   UNL     1      41.806 -12.003   7.319  1.00  0.00     0.217 HD
ENDBRANCH  13  32
TORSDOF 6
ENDMDL
MODEL 9
REMARK VINA RESULT:      -7.9      3.866      5.850
REMARK  6 active torsions:
REMARK  status: ('A' for Active; 'I' for Inactive)
REMARK    1  A    between atoms: N_2  and  C_4 
REMARK    2  A    between atoms: C_4  and  C_5 
REMARK    3  A    between atoms: C_5  and  C_6 
REMARK    4  A    between atoms: C_6  and  N_7 
REMARK    5  A    between atoms: C_17  and  C_18 
REMARK    6  A    between atoms: C_26  and  O_27 
ROOT
HETATM    1  N   UNL     1      39.644 -14.306  -1.094  1.00  0.00    -0.327 N 
HETATM    2  C   UNL     1      40.806 -14.605  -0.495  1.00  0.00     0.113 C 
HETATM    3  N   UNL     1      41.851 -15.122  -1.118  1.00  0.00    -0.385 N 
HETATM    4  H   UNL     1      42.705 -15.362  -0.627  1.00  0.00     0.157 HD
HETATM    5  H   UNL     1      41.853 -15.416  -2.083  1.00  0.00     0.157 HD
HETATM    6  C   UNL     1      40.912 -14.319   0.974  1.00  0.00     0.052 C 
HETATM    7  C   UNL     1      39.835 -13.818   1.606  1.00  0.00     0.182 C 
HETATM    8  O   UNL     1      39.831 -13.496   2.954  1.00  0.00    -0.291 OA
HETATM    9  C   UNL     1      41.003 -13.517   3.665  1.00  0.00     0.087 A 
HETATM   10  C   UNL     1      42.188 -14.026   3.131  1.00  0.00    -0.011 A 
HETATM   11  C   UNL     1      42.190 -14.612   1.739  1.00  0.00     0.095 C 
HETATM   12  C   UNL     1      40.957 -13.004   4.963  1.00  0.00     0.074 A 
HETATM   13  C   UNL     1      42.118 -12.987   5.726  1.00  0.00     0.068 A 
HETATM   14  C   UNL     1      43.314 -13.473   5.211  1.00  0.00     0.037 A 
HETATM   15  C   UNL     1      43.352 -13.992   3.917  1.00  0.00     0.014 A 
HETATM   16  N   UNL     1      38.632 -13.644   0.985  1.00  0.00    -0.219 NA
HETATM   17  C   UNL     1      38.540 -13.909  -0.263  1.00  0.00     0.214 C 
ENDROOT
BRANCH   1  18
HETATM   18  C   UNL     1      39.407 -14.547  -2.542  1.00  0.00     0.133 C 
BRANCH  18  19
HETATM   19  C   UNL     1      40.027 -13.527  -3.516  1.00  0.00     0.048 C 
BRANCH  19  20
HETATM   20  C   UNL     1      39.824 -12.065  -3.113  1.00  0.00     0.235 C 
BRANCH  20  21
HETATM   21  N   UNL     1      41.149 -11.391  -2.797  1.00  0.00    -0.079 N 
HETATM   22  C   UNL     1      42.371 -12.179  -3.216  1.00  0.00     0.269 C 
HETATM   23  H   UNL     1      41.203 -10.489  -3.293  1.00  0.00     0.278 HD
HETATM   24  C   UNL     1      41.254 -11.033  -1.325  1.00  0.00     0.269 C 
ENDBRANCH  20  21
ENDBRANCH  19  20
ENDBRANCH  18  19
ENDBRANCH   1  18
BRANCH  11  25
HETATM   25  C   UNL     1      42.496 -16.113   1.765  1.00  0.00    -0.045 A 
HETATM   26  C   UNL     1      43.794 -16.598   1.523  1.00  0.00     0.010 A 
HETATM   27  C   UNL     1      44.064 -17.967   1.567  1.00  0.00     0.024 A 
HETATM   28  C   UNL     1      43.036 -18.868   1.836  1.00  0.00     0.034 A 
HETATM   29 CL   UNL     1      43.372 -20.551   1.906  1.00  0.00    -0.084 Cl
HETATM   30  C   UNL     1      41.738 -18.411   2.046  1.00  0.00     0.024 A 
HETATM   31  C   UNL     1      41.465 -17.041   2.004  1.00  0.00     0.010 A 
ENDBRANCH  11  25
BRANCH  13  32
HETATM   32  O   UNL     1      42.134 -12.499   6.997  1.00  0.00    -0.361 OA
HETATM   33  H   UNL     1      42.152 -11.528   6.978  1.00  0.00     0.217 HD
ENDBRANCH  13  32
TORSDOF 6
ENDMDL
MODEL 10
REMARK VINA RESULT:      -7.8      3.985      8.427
REMARK  6 active torsions:
REMARK  status: ('A' for Active; 'I' for Inactive)
REMARK    1  A    between atoms: N_2  and  C_4 
REMARK    2  A    between atoms: C_4  and  C_5 
REMARK    3  A    between atoms: C_5  and  C_6 
REMARK    4  A    between atoms: C_6  and  N_7 
REMARK    5  A    between atoms: C_17  and  C_18 
REMARK    6  A    between atoms: C_26  and  O_27 
ROOT
HETATM    1  N   UNL     1      43.006 -16.576   1.622  1.00  0.00    -0.327 N 
HETATM    2  C   UNL     1      42.078 -15.938   0.893  1.00  0.00     0.113 C 
HETATM    3  N   UNL     1      41.731 -16.286  -0.334  1.00  0.00    -0.385 N 
HETATM    4  H   UNL     1      41.044 -15.763  -0.867  1.00  0.00     0.157 HD
HETATM    5  H   UNL     1      42.181 -17.011  -0.872  1.00  0.00     0.157 HD
HETATM    6  C   UNL     1      41.394 -14.764   1.530  1.00  0.00     0.052 C 
HETATM    7  C   UNL     1      41.774 -14.401   2.768  1.00  0.00     0.182 C 
HETATM    8  O   UNL     1      41.193 -13.348   3.458  1.00  0.00    -0.291 OA
HETATM    9  C   UNL     1      40.073 -12.737   2.957  1.00  0.00     0.087 A 
HETATM   10  C   UNL     1      39.585 -13.013   1.679  1.00  0.00    -0.011 A 
HETATM   11  C   UNL     1      40.324 -13.986   0.789  1.00  0.00     0.095 C 
HETATM   12  C   UNL     1      39.437 -11.815   3.790  1.00  0.00     0.074 A 
HETATM   13  C   UNL     1      38.289 -11.175   3.340  1.00  0.00     0.068 A 
HETATM   14  C   UNL     1      37.773 -11.446   2.078  1.00  0.00     0.037 A 
HETATM   15  C   UNL     1      38.417 -12.362   1.246  1.00  0.00     0.014 A 
HETATM   16  N   UNL     1      42.808 -14.999   3.428  1.00  0.00    -0.219 NA
HETATM   17  C   UNL     1      43.402 -15.986   2.872  1.00  0.00     0.214 C 
ENDROOT
BRANCH   1  18
HETATM   18  C   UNL     1      43.761 -17.749   1.105  1.00  0.00     0.133 C 
BRANCH  18  19
HETATM   19  C   UNL     1      43.433 -19.110   1.746  1.00  0.00     0.048 C 
BRANCH  19  20
HETATM   20  C   UNL     1      44.353 -19.499   2.906  1.00  0.00     0.235 C 
BRANCH  20  21
HETATM   21  N   UNL     1      44.771 -20.957   2.814  1.00  0.00    -0.079 N 
HETATM   22  C   UNL     1      43.979 -21.776   1.816  1.00  0.00     0.269 C 
HETATM   23  H   UNL     1      45.756 -21.014   2.517  1.00  0.00     0.278 HD
HETATM   24  C   UNL     1      44.733 -21.634   4.172  1.00  0.00     0.269 C 
ENDBRANCH  20  21
ENDBRANCH  19  20
ENDBRANCH  18  19
ENDBRANCH   1  18
BRANCH  11  25
HETATM   25  C   UNL     1      40.893 -13.287  -0.449  1.00  0.00    -0.045 A 
HETATM   26  C   UNL     1      42.038 -12.473  -0.367  1.00  0.00     0.010 A 
HETATM   27  C   UNL     1      42.557 -11.855  -1.507  1.00  0.00     0.024 A 
HETATM   28  C   UNL     1      41.928 -12.028  -2.737  1.00  0.00     0.034 A 
HETATM   29 CL   UNL     1      42.576 -11.282  -4.141  1.00  0.00    -0.084 Cl
HETATM   30  C   UNL     1      40.775 -12.803  -2.834  1.00  0.00     0.024 A 
HETATM   31  C   UNL     1      40.253 -13.425  -1.695  1.00  0.00     0.010 A 
ENDBRANCH  11  25
BRANCH  13  32
HETATM   32  O   UNL     1      37.626 -10.267   4.108  1.00  0.00    -0.361 OA
HETATM   33  H   UNL     1      36.754 -10.081   3.721  1.00  0.00     0.217 HD
ENDBRANCH  13  32
TORSDOF 6
ENDMDL
