MODEL 1
REMARK VINA RESULT:      -8.9      0.000      0.000
REMARK  6 active torsions:
REMARK  status: ('A' for Active; 'I' for Inactive)
REMARK    1  A    between atoms: C_2  and  N_3 
REMARK       I    between atoms: N_3  and  C_4 
REMARK    2  A    between atoms: C_4  and  C_6 
REMARK    3  A    between atoms: C_10  and  C_11 
REMARK    4  A    between atoms: C_11  and  N_12 
REMARK       I    between atoms: N_12  and  C_13 
REMARK    5  A    between atoms: C_13  and  C_15 
REMARK    6  A    between atoms: C_18  and  C_22 
ROOT
HETATM    1  N   UNL     1      44.085 -13.608   7.733  1.00  0.00    -0.353 N 
HETATM    2  C   UNL     1      44.899 -12.743   8.431  1.00  0.00     0.251 C 
HETATM    3  O   UNL     1      46.067 -12.524   8.134  1.00  0.00    -0.268 OA
HETATM    4  H   UNL     1      43.156 -13.820   8.063  1.00  0.00     0.163 HD
ENDROOT
BRANCH   1   5
HETATM    5  C   UNL     1      44.559 -14.333   6.575  1.00  0.00     0.161 C 
BRANCH   5   6
HETATM    6  C   UNL     1      43.937 -15.704   6.494  1.00  0.00    -0.040 A 
HETATM    7  C   UNL     1      43.622 -16.410   7.664  1.00  0.00     0.009 A 
HETATM    8  C   UNL     1      43.002 -17.658   7.597  1.00  0.00     0.002 A 
HETATM    9  C   UNL     1      42.685 -18.219   6.358  1.00  0.00     0.017 A 
HETATM   10  C   UNL     1      43.001 -17.534   5.178  1.00  0.00     0.032 A 
HETATM   11  C   UNL     1      43.620 -16.277   5.254  1.00  0.00     0.026 A 
BRANCH  10  12
HETATM   12  C   UNL     1      42.661 -18.070   3.828  1.00  0.00     0.251 C 
HETATM   13  N   UNL     1      43.461 -19.083   3.339  1.00  0.00    -0.357 N 
HETATM   14  H   UNL     1      44.328 -19.304   3.807  1.00  0.00     0.162 HD
HETATM   15  O   UNL     1      41.722 -17.594   3.199  1.00  0.00    -0.268 OA
BRANCH  13  16
HETATM   16  C   UNL     1      43.239 -19.655   2.027  1.00  0.00     0.118 C 
HETATM   17  C   UNL     1      43.771 -21.074   1.934  1.00  0.00     0.026 C 
ENDBRANCH  13  16
ENDBRANCH  10  12
ENDBRANCH   5   6
ENDBRANCH   1   5
BRANCH   2  18
HETATM   18  C   UNL     1      44.304 -12.078   9.623  1.00  0.00     0.032 A 
HETATM   19  C   UNL     1      44.640 -12.570  10.886  1.00  0.00     0.018 A 
HETATM   20  C   UNL     1      44.115 -11.974  12.035  1.00  0.00     0.014 A 
HETATM   21  C   UNL     1      43.249 -10.872  11.941  1.00  0.00    -0.017 A 
HETATM   22  C   UNL     1      42.903 -10.368  10.669  1.00  0.00    -0.050 A 
HETATM   23  C   UNL     1      41.987  -9.186  10.491  1.00  0.00     0.049 C 
HETATM   24  C   UNL     1      43.451 -10.971   9.519  1.00  0.00     0.024 A 
BRANCH  21  25
HETATM   25  C   UNL     1      42.754 -10.280  13.170  1.00  0.00     0.011 A 
HETATM   26  C   UNL     1      41.561 -10.495  13.895  1.00  0.00     0.152 A 
HETATM   27  N   UNL     1      41.480  -9.733  14.990  1.00  0.00    -0.187 NA
HETATM   28  N   UNL     1      42.615  -9.014  14.957  1.00  0.00    -0.289 N 
HETATM   29  H   UNL     1      42.780  -8.343  15.701  1.00  0.00     0.188 HD
HETATM   30  C   UNL     1      43.411  -9.302  13.887  1.00  0.00     0.123 A 
ENDBRANCH  21  25
ENDBRANCH   2  18
TORSDOF 6
ENDMDL
MODEL 2
REMARK VINA RESULT:      -8.5      6.324      9.868
REMARK  6 active torsions:
REMARK  status: ('A' for Active; 'I' for Inactive)
REMARK    1  A    between atoms: C_2  and  N_3 
REMARK       I    between atoms: N_3  and  C_4 
REMARK    2  A    between atoms: C_4  and  C_6 
REMARK    3  A    between atoms: C_10  and  C_11 
REMARK    4  A    between atoms: C_11  and  N_12 
REMARK       I    between atoms: N_12  and  C_13 
REMARK    5  A    between atoms: C_13  and  C_15 
REMARK    6  A    between atoms: C_18  and  C_22 
ROOT
HETATM    1  N   UNL     1      41.053 -16.303   4.636  1.00  0.00    -0.353 N 
HETATM    2  C   UNL     1      40.400 -15.211   4.110  1.00  0.00     0.251 C 
HETATM    3  O   UNL     1      39.743 -14.425   4.783  1.00  0.00    -0.268 OA
HETATM    4  H   UNL     1      41.511 -16.968   4.032  1.00  0.00     0.163 HD
ENDROOT
BRANCH   1   5
HETATM    5  C   UNL     1      41.012 -16.608   6.049  1.00  0.00     0.161 C 
BRANCH   5   6
HETATM    6  C   UNL     1      42.215 -17.413   6.471  1.00  0.00    -0.040 A 
HETATM    7  C   UNL     1      42.767 -17.247   7.750  1.00  0.00     0.009 A 
HETATM    8  C   UNL     1      43.849 -18.024   8.165  1.00  0.00     0.002 A 
HETATM    9  C   UNL     1      44.394 -18.981   7.308  1.00  0.00     0.017 A 
HETATM   10  C   UNL     1      43.865 -19.155   6.023  1.00  0.00     0.032 A 
HETATM   11  C   UNL     1      42.772 -18.374   5.615  1.00  0.00     0.026 A 
BRANCH  10  12
HETATM   12  C   UNL     1      44.386 -20.182   5.075  1.00  0.00     0.251 C 
HETATM   13  N   UNL     1      44.368 -19.858   3.733  1.00  0.00    -0.357 N 
HETATM   14  H   UNL     1      43.857 -19.045   3.424  1.00  0.00     0.162 HD
HETATM   15  O   UNL     1      44.785 -21.262   5.499  1.00  0.00    -0.268 OA
BRANCH  13  16
HETATM   16  C   UNL     1      44.822 -20.792   2.724  1.00  0.00     0.118 C 
HETATM   17  C   UNL     1      43.668 -21.345   1.907  1.00  0.00     0.026 C 
ENDBRANCH  13  16
ENDBRANCH  10  12
ENDBRANCH   5   6
ENDBRANCH   1   5
BRANCH   2  18
HETATM   18  C   UNL     1      40.492 -15.021   2.636  1.00  0.00     0.032 A 
HETATM   19  C   UNL     1      41.676 -15.396   1.997  1.00  0.00     0.018 A 
HETATM   20  C   UNL     1      41.806 -15.246   0.615  1.00  0.00     0.014 A 
HETATM   21  C   UNL     1      40.753 -14.723  -0.154  1.00  0.00    -0.017 A 
HETATM   22  C   UNL     1      39.553 -14.342   0.481  1.00  0.00    -0.050 A 
HETATM   23  C   UNL     1      38.379 -13.782  -0.278  1.00  0.00     0.049 C 
HETATM   24  C   UNL     1      39.430 -14.511   1.876  1.00  0.00     0.024 A 
BRANCH  21  25
HETATM   25  C   UNL     1      40.939 -14.614  -1.590  1.00  0.00     0.011 A 
HETATM   26  C   UNL     1      40.553 -15.466  -2.648  1.00  0.00     0.152 A 
HETATM   27  N   UNL     1      40.926 -15.001  -3.844  1.00  0.00    -0.187 NA
HETATM   28  N   UNL     1      41.567 -13.858  -3.551  1.00  0.00    -0.289 N 
HETATM   29  H   UNL     1      41.956 -13.315  -4.316  1.00  0.00     0.188 HD
HETATM   30  C   UNL     1      41.606 -13.582  -2.215  1.00  0.00     0.123 A 
ENDBRANCH  21  25
ENDBRANCH   2  18
TORSDOF 6
ENDMDL
MODEL 3
REMARK VINA RESULT:      -8.4      7.582     10.822
REMARK  6 active torsions:
REMARK  status: ('A' for Active; 'I' for Inactive)
REMARK    1  A    between atoms: C_2  and  N_3 
REMARK       I    between atoms: N_3  and  C_4 
REMARK    2  A    between atoms: C_4  and  C_6 
REMARK    3  A    between atoms: C_10  and  C_11 
REMARK    4  A    between atoms: C_11  and  N_12 
REMARK       I    between atoms: N_12  and  C_13 
REMARK    5  A    between atoms: C_13  and  C_15 
REMARK    6  A    between atoms: C_18  and  C_22 
ROOT
HETATM    1  N   UNL     1      42.301 -14.299   1.743  1.00  0.00    -0.353 N 
HETATM    2  C   UNL     1      43.238 -14.695   2.670  1.00  0.00     0.251 C 
HETATM    3  O   UNL     1      43.897 -13.912   3.345  1.00  0.00    -0.268 OA
HETATM    4  H   UNL     1      41.844 -14.976   1.152  1.00  0.00     0.163 HD
ENDROOT
BRANCH   1   5
HETATM    5  C   UNL     1      42.018 -12.903   1.494  1.00  0.00     0.161 C 
BRANCH   5   6
HETATM    6  C   UNL     1      41.923 -12.617   0.017  1.00  0.00    -0.040 A 
HETATM    7  C   UNL     1      42.544 -11.483  -0.527  1.00  0.00     0.009 A 
HETATM    8  C   UNL     1      42.502 -11.238  -1.900  1.00  0.00     0.002 A 
HETATM    9  C   UNL     1      41.840 -12.126  -2.751  1.00  0.00     0.017 A 
HETATM   10  C   UNL     1      41.205 -13.258  -2.226  1.00  0.00     0.032 A 
HETATM   11  C   UNL     1      41.257 -13.500  -0.844  1.00  0.00     0.026 A 
BRANCH  10  12
HETATM   12  C   UNL     1      40.509 -14.256  -3.089  1.00  0.00     0.251 C 
HETATM   13  N   UNL     1      39.144 -14.383  -2.918  1.00  0.00    -0.357 N 
HETATM   14  H   UNL     1      38.698 -13.948  -2.124  1.00  0.00     0.162 HD
HETATM   15  O   UNL     1      41.151 -14.932  -3.885  1.00  0.00    -0.268 OA
BRANCH  13  16
HETATM   16  C   UNL     1      38.373 -15.342  -3.681  1.00  0.00     0.118 C 
HETATM   17  C   UNL     1      37.035 -14.773  -4.115  1.00  0.00     0.026 C 
ENDBRANCH  13  16
ENDBRANCH  10  12
ENDBRANCH   5   6
ENDBRANCH   1   5
BRANCH   2  18
HETATM   18  C   UNL     1      43.461 -16.161   2.814  1.00  0.00     0.032 A 
HETATM   19  C   UNL     1      43.891 -16.874   1.693  1.00  0.00     0.018 A 
HETATM   20  C   UNL     1      44.123 -18.248   1.780  1.00  0.00     0.014 A 
HETATM   21  C   UNL     1      43.935 -18.933   2.992  1.00  0.00    -0.017 A 
HETATM   22  C   UNL     1      43.500 -18.222   4.131  1.00  0.00    -0.050 A 
HETATM   23  C   UNL     1      43.285 -18.887   5.465  1.00  0.00     0.049 C 
HETATM   24  C   UNL     1      43.283 -16.832   4.031  1.00  0.00     0.024 A 
BRANCH  21  25
HETATM   25  C   UNL     1      44.215 -20.356   3.028  1.00  0.00     0.011 A 
HETATM   26  C   UNL     1      43.987 -21.376   2.077  1.00  0.00     0.152 A 
HETATM   27  N   UNL     1      44.389 -22.576   2.504  1.00  0.00    -0.187 NA
HETATM   28  N   UNL     1      44.860 -22.330   3.738  1.00  0.00    -0.289 N 
HETATM   29  H   UNL     1      45.223 -23.109   4.278  1.00  0.00     0.188 HD
HETATM   30  C   UNL     1      44.775 -21.017   4.101  1.00  0.00     0.123 A 
ENDBRANCH  21  25
ENDBRANCH   2  18
TORSDOF 6
ENDMDL
MODEL 4
REMARK VINA RESULT:      -8.1      3.325     10.516
REMARK  6 active torsions:
REMARK  status: ('A' for Active; 'I' for Inactive)
REMARK    1  A    between atoms: C_2  and  N_3 
REMARK       I    between atoms: N_3  and  C_4 
REMARK    2  A    between atoms: C_4  and  C_6 
REMARK    3  A    between atoms: C_10  and  C_11 
REMARK    4  A    between atoms: C_11  and  N_12 
REMARK       I    between atoms: N_12  and  C_13 
REMARK    5  A    between atoms: C_13  and  C_15 
REMARK    6  A    between atoms: C_18  and  C_22 
ROOT
HETATM    1  N   UNL     1      41.974 -14.080   3.075  1.00  0.00    -0.353 N 
HETATM    2  C   UNL     1      43.245 -14.565   3.288  1.00  0.00     0.251 C 
HETATM    3  O   UNL     1      44.212 -13.850   3.521  1.00  0.00    -0.268 OA
HETATM    4  H   UNL     1      41.225 -14.699   2.804  1.00  0.00     0.163 HD
ENDROOT
BRANCH   1   5
HETATM    5  C   UNL     1      41.682 -12.664   3.113  1.00  0.00     0.161 C 
BRANCH   5   6
HETATM    6  C   UNL     1      41.047 -12.270   4.422  1.00  0.00    -0.040 A 
HETATM    7  C   UNL     1      39.698 -12.562   4.672  1.00  0.00     0.009 A 
HETATM    8  C   UNL     1      39.116 -12.244   5.900  1.00  0.00     0.002 A 
HETATM    9  C   UNL     1      39.876 -11.631   6.899  1.00  0.00     0.017 A 
HETATM   10  C   UNL     1      41.221 -11.321   6.664  1.00  0.00     0.032 A 
HETATM   11  C   UNL     1      41.801 -11.649   5.429  1.00  0.00     0.026 A 
BRANCH  10  12
HETATM   12  C   UNL     1      42.090 -10.693   7.703  1.00  0.00     0.251 C 
HETATM   13  N   UNL     1      42.892 -11.542   8.440  1.00  0.00    -0.357 N 
HETATM   14  H   UNL     1      42.745 -12.539   8.386  1.00  0.00     0.162 HD
HETATM   15  O   UNL     1      42.051  -9.481   7.882  1.00  0.00    -0.268 OA
BRANCH  13  16
HETATM   16  C   UNL     1      43.751 -11.043   9.494  1.00  0.00     0.118 C 
HETATM   17  C   UNL     1      45.106 -11.727   9.487  1.00  0.00     0.026 C 
ENDBRANCH  13  16
ENDBRANCH  10  12
ENDBRANCH   5   6
ENDBRANCH   1   5
BRANCH   2  18
HETATM   18  C   UNL     1      43.424 -16.040   3.193  1.00  0.00     0.032 A 
HETATM   19  C   UNL     1      43.719 -16.588   1.942  1.00  0.00     0.018 A 
HETATM   20  C   UNL     1      43.905 -17.965   1.804  1.00  0.00     0.014 A 
HETATM   21  C   UNL     1      43.805 -18.819   2.915  1.00  0.00    -0.017 A 
HETATM   22  C   UNL     1      43.507 -18.275   4.183  1.00  0.00    -0.050 A 
HETATM   23  C   UNL     1      43.392 -19.127   5.420  1.00  0.00     0.049 C 
HETATM   24  C   UNL     1      43.335 -16.881   4.310  1.00  0.00     0.024 A 
BRANCH  21  25
HETATM   25  C   UNL     1      44.032 -20.238   2.714  1.00  0.00     0.011 A 
HETATM   26  C   UNL     1      44.753 -21.184   3.476  1.00  0.00     0.152 A 
HETATM   27  N   UNL     1      44.726 -22.406   2.937  1.00  0.00    -0.187 NA
HETATM   28  N   UNL     1      44.001 -22.240   1.818  1.00  0.00    -0.289 N 
HETATM   29  H   UNL     1      43.844 -23.048   1.222  1.00  0.00     0.188 HD
HETATM   30  C   UNL     1      43.565 -20.960   1.636  1.00  0.00     0.123 A 
ENDBRANCH  21  25
ENDBRANCH   2  18
TORSDOF 6
ENDMDL
MODEL 5
REMARK VINA RESULT:      -8.0      8.008     11.326
REMARK  6 active torsions:
REMARK  status: ('A' for Active; 'I' for Inactive)
REMARK    1  A    between atoms: C_2  and  N_3 
REMARK       I    between atoms: N_3  and  C_4 
REMARK    2  A    between atoms: C_4  and  C_6 
REMARK    3  A    between atoms: C_10  and  C_11 
REMARK    4  A    between atoms: C_11  and  N_12 
REMARK       I    between atoms: N_12  and  C_13 
REMARK    5  A    between atoms: C_13  and  C_15 
REMARK    6  A    between atoms: C_18  and  C_22 
ROOT
HETATM    1  N   UNL     1      41.800 -15.638   0.981  1.00  0.00    -0.353 N 
HETATM    2  C   UNL     1      42.715 -15.655   2.010  1.00  0.00     0.251 C 
HETATM    3  O   UNL     1      43.212 -14.643   2.491  1.00  0.00    -0.268 OA
HETATM    4  H   UNL     1      41.481 -16.499   0.563  1.00  0.00     0.163 HD
ENDROOT
BRANCH   1   5
HETATM    5  C   UNL     1      41.349 -14.402   0.382  1.00  0.00     0.161 C 
BRANCH   5   6
HETATM    6  C   UNL     1      40.746 -14.640  -0.979  1.00  0.00    -0.040 A 
HETATM    7  C   UNL     1      41.252 -15.649  -1.812  1.00  0.00     0.009 A 
HETATM    8  C   UNL     1      40.668 -15.907  -3.053  1.00  0.00     0.002 A 
HETATM    9  C   UNL     1      39.567 -15.161  -3.479  1.00  0.00     0.017 A 
HETATM   10  C   UNL     1      39.054 -14.142  -2.667  1.00  0.00     0.032 A 
HETATM   11  C   UNL     1      39.644 -13.892  -1.417  1.00  0.00     0.026 A 
BRANCH  10  12
HETATM   12  C   UNL     1      37.863 -13.333  -3.055  1.00  0.00     0.251 C 
HETATM   13  N   UNL     1      37.232 -13.680  -4.233  1.00  0.00    -0.357 N 
HETATM   14  H   UNL     1      37.679 -14.326  -4.867  1.00  0.00     0.162 HD
HETATM   15  O   UNL     1      37.501 -12.397  -2.351  1.00  0.00    -0.268 OA
BRANCH  13  16
HETATM   16  C   UNL     1      36.085 -12.943  -4.722  1.00  0.00     0.118 C 
HETATM   17  C   UNL     1      34.956 -13.868  -5.139  1.00  0.00     0.026 C 
ENDBRANCH  13  16
ENDBRANCH  10  12
ENDBRANCH   5   6
ENDBRANCH   1   5
BRANCH   2  18
HETATM   18  C   UNL     1      43.123 -16.992   2.523  1.00  0.00     0.032 A 
HETATM   19  C   UNL     1      43.678 -17.901   1.620  1.00  0.00     0.018 A 
HETATM   20  C   UNL     1      44.085 -19.164   2.055  1.00  0.00     0.014 A 
HETATM   21  C   UNL     1      43.949 -19.539   3.403  1.00  0.00    -0.017 A 
HETATM   22  C   UNL     1      43.389 -18.627   4.323  1.00  0.00    -0.050 A 
HETATM   23  C   UNL     1      43.220 -18.955   5.783  1.00  0.00     0.049 C 
HETATM   24  C   UNL     1      42.995 -17.350   3.872  1.00  0.00     0.024 A 
BRANCH  21  25
HETATM   25  C   UNL     1      44.412 -20.855   3.800  1.00  0.00     0.011 A 
HETATM   26  C   UNL     1      45.032 -21.307   4.986  1.00  0.00     0.152 A 
HETATM   27  N   UNL     1      45.312 -22.613   4.954  1.00  0.00    -0.187 NA
HETATM   28  N   UNL     1      44.887 -22.997   3.738  1.00  0.00    -0.289 N 
HETATM   29  H   UNL     1      45.002 -23.970   3.473  1.00  0.00     0.188 HD
HETATM   30  C   UNL     1      44.343 -21.981   3.007  1.00  0.00     0.123 A 
ENDBRANCH  21  25
ENDBRANCH   2  18
TORSDOF 6
ENDMDL
MODEL 6
REMARK VINA RESULT:      -7.8      6.364      9.597
REMARK  6 active torsions:
REMARK  status: ('A' for Active; 'I' for Inactive)
REMARK    1  A    between atoms: C_2  and  N_3 
REMARK       I    between atoms: N_3  and  C_4 
REMARK    2  A    between atoms: C_4  and  C_6 
REMARK    3  A    between atoms: C_10  and  C_11 
REMARK    4  A    between atoms: C_11  and  N_12 
REMARK       I    between atoms: N_12  and  C_13 
REMARK    5  A    between atoms: C_13  and  C_15 
REMARK    6  A    between atoms: C_18  and  C_22 
ROOT
HETATM    1  N   UNL     1      41.428 -15.927   3.865  1.00  0.00    -0.353 N 
HETATM    2  C   UNL     1      41.937 -14.668   3.640  1.00  0.00     0.251 C 
HETATM    3  O   UNL     1      42.388 -13.951   4.525  1.00  0.00    -0.268 OA
HETATM    4  H   UNL     1      40.992 -16.447   3.119  1.00  0.00     0.163 HD
ENDROOT
BRANCH   1   5
HETATM    5  C   UNL     1      41.389 -16.507   5.190  1.00  0.00     0.161 C 
BRANCH   5   6
HETATM    6  C   UNL     1      42.698 -17.168   5.538  1.00  0.00    -0.040 A 
HETATM    7  C   UNL     1      43.547 -16.598   6.499  1.00  0.00     0.009 A 
HETATM    8  C   UNL     1      44.737 -17.229   6.861  1.00  0.00     0.002 A 
HETATM    9  C   UNL     1      45.096 -18.442   6.271  1.00  0.00     0.017 A 
HETATM   10  C   UNL     1      44.268 -19.022   5.302  1.00  0.00     0.032 A 
HETATM   11  C   UNL     1      43.069 -18.384   4.946  1.00  0.00     0.026 A 
BRANCH  10  12
HETATM   12  C   UNL     1      44.584 -20.330   4.659  1.00  0.00     0.251 C 
HETATM   13  N   UNL     1      44.533 -20.375   3.280  1.00  0.00    -0.357 N 
HETATM   14  H   UNL     1      44.123 -19.606   2.770  1.00  0.00     0.162 HD
HETATM   15  O   UNL     1      44.852 -21.306   5.352  1.00  0.00    -0.268 OA
BRANCH  13  16
HETATM   16  C   UNL     1      44.792 -21.601   2.553  1.00  0.00     0.118 C 
HETATM   17  C   UNL     1      43.738 -21.861   1.492  1.00  0.00     0.026 C 
ENDBRANCH  13  16
ENDBRANCH  10  12
ENDBRANCH   5   6
ENDBRANCH   1   5
BRANCH   2  18
HETATM   18  C   UNL     1      41.895 -14.169   2.237  1.00  0.00     0.032 A 
HETATM   19  C   UNL     1      41.711 -15.101   1.213  1.00  0.00     0.018 A 
HETATM   20  C   UNL     1      41.655 -14.681  -0.117  1.00  0.00     0.014 A 
HETATM   21  C   UNL     1      41.777 -13.321  -0.448  1.00  0.00    -0.017 A 
HETATM   22  C   UNL     1      41.964 -12.372   0.579  1.00  0.00    -0.050 A 
HETATM   23  C   UNL     1      42.095 -10.897   0.302  1.00  0.00     0.049 C 
HETATM   24  C   UNL     1      42.005 -12.809   1.920  1.00  0.00     0.024 A 
BRANCH  21  25
HETATM   25  C   UNL     1      41.687 -12.942  -1.846  1.00  0.00     0.011 A 
HETATM   26  C   UNL     1      40.576 -12.607  -2.651  1.00  0.00     0.152 A 
HETATM   27  N   UNL     1      40.922 -12.321  -3.910  1.00  0.00    -0.187 NA
HETATM   28  N   UNL     1      42.255 -12.491  -3.917  1.00  0.00    -0.289 N 
HETATM   29  H   UNL     1      42.755 -12.334  -4.786  1.00  0.00     0.188 HD
HETATM   30  C   UNL     1      42.761 -12.866  -2.707  1.00  0.00     0.123 A 
ENDBRANCH  21  25
ENDBRANCH   2  18
TORSDOF 6
ENDMDL
MODEL 7
REMARK VINA RESULT:      -7.7      6.856     10.328
REMARK  6 active torsions:
REMARK  status: ('A' for Active; 'I' for Inactive)
REMARK    1  A    between atoms: C_2  and  N_3 
REMARK       I    between atoms: N_3  and  C_4 
REMARK    2  A    between atoms: C_4  and  C_6 
REMARK    3  A    between atoms: C_10  and  C_11 
REMARK    4  A    between atoms: C_11  and  N_12 
REMARK       I    between atoms: N_12  and  C_13 
REMARK    5  A    between atoms: C_13  and  C_15 
REMARK    6  A    between atoms: C_18  and  C_22 
ROOT
HETATM    1  N   UNL     1      41.698 -14.430   3.500  1.00  0.00    -0.353 N 
HETATM    2  C   UNL     1      43.005 -14.801   3.278  1.00  0.00     0.251 C 
HETATM    3  O   UNL     1      43.912 -14.001   3.077  1.00  0.00    -0.268 OA
HETATM    4  H   UNL     1      40.972 -15.126   3.577  1.00  0.00     0.163 HD
ENDROOT
BRANCH   1   5
HETATM    5  C   UNL     1      41.291 -13.042   3.513  1.00  0.00     0.161 C 
BRANCH   5   6
HETATM    6  C   UNL     1      40.115 -12.806   2.601  1.00  0.00    -0.040 A 
HETATM    7  C   UNL     1      39.094 -11.919   2.974  1.00  0.00     0.009 A 
HETATM    8  C   UNL     1      38.028 -11.659   2.113  1.00  0.00     0.002 A 
HETATM    9  C   UNL     1      37.966 -12.280   0.864  1.00  0.00     0.017 A 
HETATM   10  C   UNL     1      38.968 -13.178   0.478  1.00  0.00     0.032 A 
HETATM   11  C   UNL     1      40.042 -13.430   1.347  1.00  0.00     0.026 A 
BRANCH  10  12
HETATM   12  C   UNL     1      38.971 -13.849  -0.854  1.00  0.00     0.251 C 
HETATM   13  N   UNL     1      40.093 -14.584  -1.180  1.00  0.00    -0.357 N 
HETATM   14  H   UNL     1      40.924 -14.505  -0.611  1.00  0.00     0.162 HD
HETATM   15  O   UNL     1      38.014 -13.715  -1.610  1.00  0.00    -0.268 OA
BRANCH  13  16
HETATM   16  C   UNL     1      40.215 -15.252  -2.459  1.00  0.00     0.118 C 
HETATM   17  C   UNL     1      40.960 -14.400  -3.471  1.00  0.00     0.026 C 
ENDBRANCH  13  16
ENDBRANCH  10  12
ENDBRANCH   5   6
ENDBRANCH   1   5
BRANCH   2  18
HETATM   18  C   UNL     1      43.293 -16.262   3.258  1.00  0.00     0.032 A 
HETATM   19  C   UNL     1      43.632 -16.849   2.037  1.00  0.00     0.018 A 
HETATM   20  C   UNL     1      43.920 -18.214   1.969  1.00  0.00     0.014 A 
HETATM   21  C   UNL     1      43.880 -19.015   3.122  1.00  0.00    -0.017 A 
HETATM   22  C   UNL     1      43.539 -18.431   4.361  1.00  0.00    -0.050 A 
HETATM   23  C   UNL     1      43.484 -19.225   5.639  1.00  0.00     0.049 C 
HETATM   24  C   UNL     1      43.264 -17.049   4.417  1.00  0.00     0.024 A 
BRANCH  21  25
HETATM   25  C   UNL     1      44.212 -20.422   2.994  1.00  0.00     0.011 A 
HETATM   26  C   UNL     1      44.042 -21.326   1.922  1.00  0.00     0.152 A 
HETATM   27  N   UNL     1      44.480 -22.554   2.212  1.00  0.00    -0.187 NA
HETATM   28  N   UNL     1      44.916 -22.443   3.478  1.00  0.00    -0.289 N 
HETATM   29  H   UNL     1      45.298 -23.268   3.929  1.00  0.00     0.188 HD
HETATM   30  C   UNL     1      44.775 -21.187   3.993  1.00  0.00     0.123 A 
ENDBRANCH  21  25
ENDBRANCH   2  18
TORSDOF 6
ENDMDL
MODEL 8
REMARK VINA RESULT:      -7.7      2.177     10.723
REMARK  6 active torsions:
REMARK  status: ('A' for Active; 'I' for Inactive)
REMARK    1  A    between atoms: C_2  and  N_3 
REMARK       I    between atoms: N_3  and  C_4 
REMARK    2  A    between atoms: C_4  and  C_6 
REMARK    3  A    between atoms: C_10  and  C_11 
REMARK    4  A    between atoms: C_11  and  N_12 
REMARK       I    between atoms: N_12  and  C_13 
REMARK    5  A    between atoms: C_13  and  C_15 
REMARK    6  A    between atoms: C_18  and  C_22 
ROOT
HETATM    1  N   UNL     1      42.957 -13.809   5.693  1.00  0.00    -0.353 N 
HETATM    2  C   UNL     1      42.009 -14.769   5.421  1.00  0.00     0.251 C 
HETATM    3  O   UNL     1      40.823 -14.649   5.706  1.00  0.00    -0.268 OA
HETATM    4  H   UNL     1      43.935 -13.986   5.516  1.00  0.00     0.163 HD
ENDROOT
BRANCH   1   5
HETATM    5  C   UNL     1      42.617 -12.564   6.346  1.00  0.00     0.161 C 
BRANCH   5   6
HETATM    6  C   UNL     1      43.473 -12.331   7.565  1.00  0.00    -0.040 A 
HETATM    7  C   UNL     1      44.748 -12.908   7.656  1.00  0.00     0.009 A 
HETATM    8  C   UNL     1      45.565 -12.657   8.759  1.00  0.00     0.002 A 
HETATM    9  C   UNL     1      45.120 -11.823   9.787  1.00  0.00     0.017 A 
HETATM   10  C   UNL     1      43.845 -11.248   9.720  1.00  0.00     0.032 A 
HETATM   11  C   UNL     1      43.032 -11.500   8.605  1.00  0.00     0.026 A 
BRANCH  10  12
HETATM   12  C   UNL     1      43.328 -10.327  10.773  1.00  0.00     0.251 C 
HETATM   13  N   UNL     1      43.904 -10.424  12.024  1.00  0.00    -0.357 N 
HETATM   14  H   UNL     1      44.507 -11.205  12.236  1.00  0.00     0.162 HD
HETATM   15  O   UNL     1      42.418  -9.547  10.513  1.00  0.00    -0.268 OA
BRANCH  13  16
HETATM   16  C   UNL     1      43.457  -9.600  13.129  1.00  0.00     0.118 C 
HETATM   17  C   UNL     1      42.460 -10.330  14.009  1.00  0.00     0.026 C 
ENDBRANCH  13  16
ENDBRANCH  10  12
ENDBRANCH   5   6
ENDBRANCH   1   5
BRANCH   2  18
HETATM   18  C   UNL     1      42.489 -16.021   4.773  1.00  0.00     0.032 A 
HETATM   19  C   UNL     1      42.297 -17.227   5.449  1.00  0.00     0.018 A 
HETATM   20  C   UNL     1      42.722 -18.428   4.877  1.00  0.00     0.014 A 
HETATM   21  C   UNL     1      43.341 -18.445   3.616  1.00  0.00    -0.017 A 
HETATM   22  C   UNL     1      43.540 -17.231   2.925  1.00  0.00    -0.050 A 
HETATM   23  C   UNL     1      44.188 -17.173   1.567  1.00  0.00     0.049 C 
HETATM   24  C   UNL     1      43.094 -16.028   3.509  1.00  0.00     0.024 A 
BRANCH  21  25
HETATM   25  C   UNL     1      43.739 -19.727   3.063  1.00  0.00     0.011 A 
HETATM   26  C   UNL     1      44.737 -20.644   3.460  1.00  0.00     0.152 A 
HETATM   27  N   UNL     1      44.789 -21.720   2.669  1.00  0.00    -0.187 NA
HETATM   28  N   UNL     1      43.834 -21.484   1.754  1.00  0.00    -0.289 N 
HETATM   29  H   UNL     1      43.686 -22.176   1.025  1.00  0.00     0.188 HD
HETATM   30  C   UNL     1      43.178 -20.303   1.943  1.00  0.00     0.123 A 
ENDBRANCH  21  25
ENDBRANCH   2  18
TORSDOF 6
ENDMDL
MODEL 9
REMARK VINA RESULT:      -7.7      1.950      2.481
REMARK  6 active torsions:
REMARK  status: ('A' for Active; 'I' for Inactive)
REMARK    1  A    between atoms: C_2  and  N_3 
REMARK       I    between atoms: N_3  and  C_4 
REMARK    2  A    between atoms: C_4  and  C_6 
REMARK    3  A    between atoms: C_10  and  C_11 
REMARK    4  A    between atoms: C_11  and  N_12 
REMARK       I    between atoms: N_12  and  C_13 
REMARK    5  A    between atoms: C_13  and  C_15 
REMARK    6  A    between atoms: C_18  and  C_22 
ROOT
HETATM    1  N   UNL     1      42.386 -12.822   6.520  1.00  0.00    -0.353 N 
HETATM    2  C   UNL     1      41.977 -11.545   6.833  1.00  0.00     0.251 C 
HETATM    3  O   UNL     1      41.483 -10.774   6.019  1.00  0.00    -0.268 OA
HETATM    4  H   UNL     1      42.863 -13.391   7.203  1.00  0.00     0.163 HD
ENDROOT
BRANCH   1   5
HETATM    5  C   UNL     1      42.257 -13.358   5.183  1.00  0.00     0.161 C 
BRANCH   5   6
HETATM    6  C   UNL     1      42.069 -14.854   5.207  1.00  0.00    -0.040 A 
HETATM    7  C   UNL     1      41.065 -15.430   5.998  1.00  0.00     0.009 A 
HETATM    8  C   UNL     1      40.853 -16.809   5.987  1.00  0.00     0.002 A 
HETATM    9  C   UNL     1      41.642 -17.633   5.183  1.00  0.00     0.017 A 
HETATM   10  C   UNL     1      42.657 -17.079   4.394  1.00  0.00     0.032 A 
HETATM   11  C   UNL     1      42.860 -15.690   4.406  1.00  0.00     0.026 A 
BRANCH  10  12
HETATM   12  C   UNL     1      43.512 -17.906   3.493  1.00  0.00     0.251 C 
HETATM   13  N   UNL     1      43.653 -19.240   3.820  1.00  0.00    -0.357 N 
HETATM   14  H   UNL     1      43.338 -19.569   4.721  1.00  0.00     0.162 HD
HETATM   15  O   UNL     1      44.066 -17.389   2.529  1.00  0.00    -0.268 OA
BRANCH  13  16
HETATM   16  C   UNL     1      44.484 -20.127   3.033  1.00  0.00     0.118 C 
HETATM   17  C   UNL     1      43.683 -20.848   1.964  1.00  0.00     0.026 C 
ENDBRANCH  13  16
ENDBRANCH  10  12
ENDBRANCH   5   6
ENDBRANCH   1   5
BRANCH   2  18
HETATM   18  C   UNL     1      42.189 -11.098   8.238  1.00  0.00     0.032 A 
HETATM   19  C   UNL     1      41.093 -10.591   8.939  1.00  0.00     0.018 A 
HETATM   20  C   UNL     1      41.240 -10.168  10.262  1.00  0.00     0.014 A 
HETATM   21  C   UNL     1      42.484 -10.251  10.909  1.00  0.00    -0.017 A 
HETATM   22  C   UNL     1      43.598 -10.762  10.209  1.00  0.00    -0.050 A 
HETATM   23  C   UNL     1      44.959 -10.887  10.839  1.00  0.00     0.049 C 
HETATM   24  C   UNL     1      43.432 -11.197   8.878  1.00  0.00     0.024 A 
BRANCH  21  25
HETATM   25  C   UNL     1      42.570  -9.819  12.292  1.00  0.00     0.011 A 
HETATM   26  C   UNL     1      42.768  -8.540  12.858  1.00  0.00     0.152 A 
HETATM   27  N   UNL     1      42.792  -8.568  14.194  1.00  0.00    -0.187 NA
HETATM   28  N   UNL     1      42.626  -9.870  14.484  1.00  0.00    -0.289 N 
HETATM   29  H   UNL     1      42.617 -10.147  15.461  1.00  0.00     0.188 HD
HETATM   30  C   UNL     1      42.492 -10.661  13.381  1.00  0.00     0.123 A 
ENDBRANCH  21  25
ENDBRANCH   2  18
TORSDOF 6
ENDMDL
MODEL 10
REMARK VINA RESULT:      -7.5      6.367      9.108
REMARK  6 active torsions:
REMARK  status: ('A' for Active; 'I' for Inactive)
REMARK    1  A    between atoms: C_2  and  N_3 
REMARK       I    between atoms: N_3  and  C_4 
REMARK    2  A    between atoms: C_4  and  C_6 
REMARK    3  A    between atoms: C_10  and  C_11 
REMARK    4  A    between atoms: C_11  and  N_12 
REMARK       I    between atoms: N_12  and  C_13 
REMARK    5  A    between atoms: C_13  and  C_15 
REMARK    6  A    between atoms: C_18  and  C_22 
ROOT
HETATM    1  N   UNL     1      43.559 -16.416   4.973  1.00  0.00    -0.353 N 
HETATM    2  C   UNL     1      42.756 -15.309   4.818  1.00  0.00     0.251 C 
HETATM    3  O   UNL     1      42.499 -14.527   5.726  1.00  0.00    -0.268 OA
HETATM    4  H   UNL     1      43.675 -17.077   4.220  1.00  0.00     0.163 HD
ENDROOT
BRANCH   1   5
HETATM    5  C   UNL     1      44.173 -16.742   6.241  1.00  0.00     0.161 C 
BRANCH   5   6
HETATM    6  C   UNL     1      44.146 -18.228   6.498  1.00  0.00    -0.040 A 
HETATM    7  C   UNL     1      43.756 -18.725   7.750  1.00  0.00     0.009 A 
HETATM    8  C   UNL     1      43.682 -20.099   7.979  1.00  0.00     0.002 A 
HETATM    9  C   UNL     1      43.996 -20.998   6.958  1.00  0.00     0.017 A 
HETATM   10  C   UNL     1      44.399 -20.522   5.704  1.00  0.00     0.032 A 
HETATM   11  C   UNL     1      44.465 -19.138   5.480  1.00  0.00     0.026 A 
BRANCH  10  12
HETATM   12  C   UNL     1      44.719 -21.434   4.568  1.00  0.00     0.251 C 
HETATM   13  N   UNL     1      44.565 -20.921   3.295  1.00  0.00    -0.357 N 
HETATM   14  H   UNL     1      44.088 -20.040   3.166  1.00  0.00     0.162 HD
HETATM   15  O   UNL     1      45.076 -22.586   4.788  1.00  0.00    -0.268 OA
BRANCH  13  16
HETATM   16  C   UNL     1      44.818 -21.728   2.119  1.00  0.00     0.118 C 
HETATM   17  C   UNL     1      43.557 -21.941   1.301  1.00  0.00     0.026 C 
ENDBRANCH  13  16
ENDBRANCH  10  12
ENDBRANCH   5   6
ENDBRANCH   1   5
BRANCH   2  18
HETATM   18  C   UNL     1      42.158 -15.097   3.471  1.00  0.00     0.032 A 
HETATM   19  C   UNL     1      41.357 -16.110   2.940  1.00  0.00     0.018 A 
HETATM   20  C   UNL     1      40.766 -15.954   1.684  1.00  0.00     0.014 A 
HETATM   21  C   UNL     1      40.962 -14.780   0.939  1.00  0.00    -0.017 A 
HETATM   22  C   UNL     1      41.771 -13.750   1.466  1.00  0.00    -0.050 A 
HETATM   23  C   UNL     1      42.020 -12.461   0.728  1.00  0.00     0.049 C 
HETATM   24  C   UNL     1      42.350 -13.916   2.741  1.00  0.00     0.024 A 
BRANCH  21  25
HETATM   25  C   UNL     1      40.304 -14.665  -0.349  1.00  0.00     0.011 A 
HETATM   26  C   UNL     1      40.714 -15.053  -1.644  1.00  0.00     0.152 A 
HETATM   27  N   UNL     1      39.806 -14.760  -2.580  1.00  0.00    -0.187 NA
HETATM   28  N   UNL     1      38.819 -14.168  -1.886  1.00  0.00    -0.289 N 
HETATM   29  H   UNL     1      38.002 -13.843  -2.395  1.00  0.00     0.188 HD
HETATM   30  C   UNL     1      39.070 -14.083  -0.548  1.00  0.00     0.123 A 
ENDBRANCH  21  25
ENDBRANCH   2  18
TORSDOF 6
ENDMDL
