MODEL 1
REMARK VINA RESULT:      -9.2      0.000      0.000
REMARK  5 active torsions:
REMARK  status: ('A' for Active; 'I' for Inactive)
REMARK    1  A    between atoms: O_2  and  C_3 
REMARK    2  A    between atoms: C_4  and  O_5 
REMARK    3  A    between atoms: C_8  and  C_9 
REMARK    4  A    between atoms: C_13  and  C_14 
REMARK       I    between atoms: C_14  and  N_15 
REMARK    5  A    between atoms: N_15  and  N_16 
ROOT
HETATM    1  C   UNL     1      43.649 -14.497   6.381  1.00  0.00     0.069 A 
HETATM    2  N   UNL     1      44.163 -15.698   6.729  1.00  0.00    -0.248 NA
HETATM    3  C   UNL     1      44.046 -16.743   5.895  1.00  0.00     0.068 A 
HETATM    4  C   UNL     1      43.378 -16.675   4.654  1.00  0.00     0.009 A 
HETATM    5  C   UNL     1      42.740 -15.441   4.365  1.00  0.00     0.048 A 
HETATM    6  C   UNL     1      42.901 -14.349   5.228  1.00  0.00     0.050 A 
HETATM    7  C   UNL     1      44.642 -17.933   6.285  1.00  0.00     0.032 A 
HETATM    8  C   UNL     1      44.639 -19.066   5.470  1.00  0.00     0.002 A 
HETATM    9  C   UNL     1      44.046 -19.003   4.221  1.00  0.00     0.001 A 
HETATM   10  C   UNL     1      43.433 -17.820   3.811  1.00  0.00     0.015 A 
ENDROOT
BRANCH   5  11
HETATM   11  C   UNL     1      41.878 -15.174   3.174  1.00  0.00     0.271 C 
HETATM   12  N   UNL     1      42.520 -14.946   1.974  1.00  0.00    -0.252 N 
HETATM   13  H   UNL     1      43.473 -15.277   1.838  1.00  0.00     0.191 HD
HETATM   14  O   UNL     1      40.658 -15.254   3.288  1.00  0.00    -0.266 OA
BRANCH  12  15
HETATM   15  N   UNL     1      41.746 -14.928   0.818  1.00  0.00    -0.167 N 
HETATM   16  C   UNL     1      41.388 -16.080   0.171  1.00  0.00     0.345 C 
HETATM   17  O   UNL     1      41.595 -17.227   0.534  1.00  0.00    -0.245 OA
HETATM   18  N   UNL     1      40.810 -15.726  -1.031  1.00  0.00    -0.323 N 
HETATM   19  C   UNL     1      40.668 -14.283  -1.157  1.00  0.00     0.117 C 
HETATM   20  H   UNL     1      40.407 -16.424  -1.645  1.00  0.00     0.165 HD
HETATM   21  C   UNL     1      39.225 -13.860  -0.839  1.00  0.00     0.041 C 
HETATM   22  C   UNL     1      41.137 -13.753  -2.510  1.00  0.00     0.041 C 
HETATM   23  C   UNL     1      41.601 -13.837  -0.008  1.00  0.00     0.275 C 
HETATM   24  C   UNL     1      38.265 -14.226  -1.970  1.00  0.00     0.003 C 
HETATM   25  C   UNL     1      38.736 -13.662  -3.308  1.00  0.00     0.000 C 
HETATM   26  C   UNL     1      40.161 -14.095  -3.637  1.00  0.00     0.003 C 
HETATM   27  O   UNL     1      42.089 -12.722   0.112  1.00  0.00    -0.268 OA
ENDBRANCH  12  15
ENDBRANCH   5  11
BRANCH   1  28
HETATM   28  C   UNL     1      43.974 -13.374   7.285  1.00  0.00    -0.004 A 
HETATM   29  C   UNL     1      43.059 -12.318   7.487  1.00  0.00     0.053 A 
HETATM   30  C   UNL     1      43.321 -11.269   8.383  1.00  0.00     0.102 A 
HETATM   31  C   UNL     1      44.513 -11.294   9.118  1.00  0.00     0.101 A 
HETATM   32  C   UNL     1      45.450 -12.305   8.907  1.00  0.00     0.040 A 
HETATM   33  C   UNL     1      45.179 -13.337   8.008  1.00  0.00     0.017 A 
BRANCH  30  34
HETATM   34  O   UNL     1      42.482 -10.206   8.592  1.00  0.00    -0.353 OA
HETATM   35  C   UNL     1      41.254 -10.459   9.260  1.00  0.00     0.210 C 
ENDBRANCH  30  34
BRANCH  31  36
HETATM   36  O   UNL     1      44.886 -10.342  10.035  1.00  0.00    -0.353 OA
HETATM   37  C   UNL     1      44.398 -10.611  11.349  1.00  0.00     0.210 C 
ENDBRANCH  31  36
ENDBRANCH   1  28
TORSDOF 5
ENDMDL
MODEL 2
REMARK VINA RESULT:      -9.2      4.023      6.830
REMARK  5 active torsions:
REMARK  status: ('A' for Active; 'I' for Inactive)
REMARK    1  A    between atoms: O_2  and  C_3 
REMARK    2  A    between atoms: C_4  and  O_5 
REMARK    3  A    between atoms: C_8  and  C_9 
REMARK    4  A    between atoms: C_13  and  C_14 
REMARK       I    between atoms: C_14  and  N_15 
REMARK    5  A    between atoms: N_15  and  N_16 
ROOT
HETATM    1  C   UNL     1      42.436 -16.016   3.155  1.00  0.00     0.069 A 
HETATM    2  N   UNL     1      41.749 -15.736   4.286  1.00  0.00    -0.248 NA
HETATM    3  C   UNL     1      41.036 -14.603   4.373  1.00  0.00     0.068 A 
HETATM    4  C   UNL     1      40.974 -13.643   3.340  1.00  0.00     0.009 A 
HETATM    5  C   UNL     1      41.799 -13.897   2.214  1.00  0.00     0.048 A 
HETATM    6  C   UNL     1      42.510 -15.100   2.122  1.00  0.00     0.050 A 
HETATM    7  C   UNL     1      40.309 -14.400   5.537  1.00  0.00     0.032 A 
HETATM    8  C   UNL     1      39.482 -13.290   5.711  1.00  0.00     0.002 A 
HETATM    9  C   UNL     1      39.356 -12.368   4.686  1.00  0.00     0.001 A 
HETATM   10  C   UNL     1      40.083 -12.547   3.509  1.00  0.00     0.015 A 
ENDROOT
BRANCH   5  11
HETATM   11  C   UNL     1      41.989 -12.970   1.058  1.00  0.00     0.271 C 
HETATM   12  N   UNL     1      41.411 -13.335  -0.141  1.00  0.00    -0.252 N 
HETATM   13  H   UNL     1      40.635 -13.992  -0.149  1.00  0.00     0.191 HD
HETATM   14  O   UNL     1      42.563 -11.898   1.238  1.00  0.00    -0.266 OA
BRANCH  12  15
HETATM   15  N   UNL     1      41.375 -12.387  -1.158  1.00  0.00    -0.167 N 
HETATM   16  C   UNL     1      40.256 -11.641  -1.410  1.00  0.00     0.345 C 
HETATM   17  O   UNL     1      39.219 -11.622  -0.766  1.00  0.00    -0.245 OA
HETATM   18  N   UNL     1      40.464 -10.953  -2.589  1.00  0.00    -0.323 N 
HETATM   19  C   UNL     1      41.812 -11.150  -3.097  1.00  0.00     0.117 C 
HETATM   20  H   UNL     1      39.786 -10.283  -2.931  1.00  0.00     0.165 HD
HETATM   21  C   UNL     1      42.696  -9.943  -2.747  1.00  0.00     0.041 C 
HETATM   22  C   UNL     1      41.846 -11.474  -4.590  1.00  0.00     0.041 C 
HETATM   23  C   UNL     1      42.232 -12.363  -2.235  1.00  0.00     0.275 C 
HETATM   24  C   UNL     1      42.363  -8.727  -3.612  1.00  0.00     0.003 C 
HETATM   25  C   UNL     1      42.431  -9.064  -5.099  1.00  0.00     0.000 C 
HETATM   26  C   UNL     1      41.541 -10.251  -5.455  1.00  0.00     0.003 C 
HETATM   27  O   UNL     1      43.154 -13.125  -2.490  1.00  0.00    -0.268 OA
ENDBRANCH  12  15
ENDBRANCH   5  11
BRANCH   1  28
HETATM   28  C   UNL     1      43.050 -17.358   3.094  1.00  0.00    -0.004 A 
HETATM   29  C   UNL     1      43.562 -17.974   4.257  1.00  0.00     0.053 A 
HETATM   30  C   UNL     1      44.100 -19.270   4.237  1.00  0.00     0.102 A 
HETATM   31  C   UNL     1      44.096 -19.982   3.029  1.00  0.00     0.101 A 
HETATM   32  C   UNL     1      43.631 -19.381   1.860  1.00  0.00     0.040 A 
HETATM   33  C   UNL     1      43.106 -18.088   1.894  1.00  0.00     0.017 A 
BRANCH  30  34
HETATM   34  O   UNL     1      44.638 -19.900   5.329  1.00  0.00    -0.353 OA
HETATM   35  C   UNL     1      43.836 -19.987   6.498  1.00  0.00     0.210 C 
ENDBRANCH  30  34
BRANCH  31  36
HETATM   36  O   UNL     1      44.576 -21.259   2.873  1.00  0.00    -0.353 OA
HETATM   37  C   UNL     1      44.109 -21.888   1.681  1.00  0.00     0.210 C 
ENDBRANCH  31  36
ENDBRANCH   1  28
TORSDOF 5
ENDMDL
MODEL 3
REMARK VINA RESULT:      -9.1      2.811      8.414
REMARK  5 active torsions:
REMARK  status: ('A' for Active; 'I' for Inactive)
REMARK    1  A    between atoms: O_2  and  C_3 
REMARK    2  A    between atoms: C_4  and  O_5 
REMARK    3  A    between atoms: C_8  and  C_9 
REMARK    4  A    between atoms: C_13  and  C_14 
REMARK       I    between atoms: C_14  and  N_15 
REMARK    5  A    between atoms: N_15  and  N_16 
ROOT
HETATM    1  C   UNL     1      42.500 -16.816   2.242  1.00  0.00     0.069 A 
HETATM    2  N   UNL     1      42.090 -16.886   0.955  1.00  0.00    -0.248 NA
HETATM    3  C   UNL     1      41.560 -15.806   0.362  1.00  0.00     0.068 A 
HETATM    4  C   UNL     1      41.373 -14.572   1.020  1.00  0.00     0.009 A 
HETATM    5  C   UNL     1      41.696 -14.556   2.401  1.00  0.00     0.048 A 
HETATM    6  C   UNL     1      42.280 -15.680   2.998  1.00  0.00     0.050 A 
HETATM    7  C   UNL     1      41.210 -15.927  -0.975  1.00  0.00     0.032 A 
HETATM    8  C   UNL     1      40.710 -14.851  -1.710  1.00  0.00     0.002 A 
HETATM    9  C   UNL     1      40.580 -13.614  -1.103  1.00  0.00     0.001 A 
HETATM   10  C   UNL     1      40.918 -13.471   0.242  1.00  0.00     0.015 A 
ENDROOT
BRANCH   5  11
HETATM   11  C   UNL     1      41.470 -13.405   3.327  1.00  0.00     0.271 C 
HETATM   12  N   UNL     1      40.957 -13.695   4.575  1.00  0.00    -0.252 N 
HETATM   13  H   UNL     1      41.054 -14.632   4.957  1.00  0.00     0.191 HD
HETATM   14  O   UNL     1      41.825 -12.281   2.982  1.00  0.00    -0.266 OA
BRANCH  12  15
HETATM   15  N   UNL     1      40.958 -12.681   5.527  1.00  0.00    -0.167 N 
HETATM   16  C   UNL     1      42.008 -12.499   6.387  1.00  0.00     0.345 C 
HETATM   17  O   UNL     1      43.073 -13.094   6.389  1.00  0.00    -0.245 OA
HETATM   18  N   UNL     1      41.625 -11.564   7.327  1.00  0.00    -0.323 N 
HETATM   19  C   UNL     1      40.314 -11.008   7.033  1.00  0.00     0.117 C 
HETATM   20  H   UNL     1      42.277 -11.226   8.025  1.00  0.00     0.165 HD
HETATM   21  C   UNL     1      40.456  -9.633   6.362  1.00  0.00     0.041 C 
HETATM   22  C   UNL     1      39.398 -10.960   8.254  1.00  0.00     0.041 C 
HETATM   23  C   UNL     1      39.830 -12.042   5.990  1.00  0.00     0.275 C 
HETATM   24  C   UNL     1      40.877  -8.556   7.363  1.00  0.00     0.003 C 
HETATM   25  C   UNL     1      39.933  -8.505   8.560  1.00  0.00     0.000 C 
HETATM   26  C   UNL     1      39.803  -9.864   9.240  1.00  0.00     0.003 C 
HETATM   27  O   UNL     1      38.666 -12.223   5.662  1.00  0.00    -0.268 OA
ENDBRANCH  12  15
ENDBRANCH   5  11
BRANCH   1  28
HETATM   28  C   UNL     1      43.220 -18.002   2.751  1.00  0.00    -0.004 A 
HETATM   29  C   UNL     1      43.677 -18.054   4.085  1.00  0.00     0.053 A 
HETATM   30  C   UNL     1      44.315 -19.190   4.609  1.00  0.00     0.102 A 
HETATM   31  C   UNL     1      44.469 -20.315   3.787  1.00  0.00     0.101 A 
HETATM   32  C   UNL     1      44.061 -20.273   2.454  1.00  0.00     0.040 A 
HETATM   33  C   UNL     1      43.436 -19.134   1.945  1.00  0.00     0.017 A 
BRANCH  30  34
HETATM   34  O   UNL     1      44.804 -19.281   5.886  1.00  0.00    -0.353 OA
HETATM   35  C   UNL     1      45.198 -18.075   6.525  1.00  0.00     0.210 C 
ENDBRANCH  30  34
BRANCH  31  36
HETATM   36  O   UNL     1      45.059 -21.492   4.176  1.00  0.00    -0.353 OA
HETATM   37  C   UNL     1      44.586 -22.622   3.444  1.00  0.00     0.210 C 
ENDBRANCH  31  36
ENDBRANCH   1  28
TORSDOF 5
ENDMDL
MODEL 4
REMARK VINA RESULT:      -8.8      3.350      6.182
REMARK  5 active torsions:
REMARK  status: ('A' for Active; 'I' for Inactive)
REMARK    1  A    between atoms: O_2  and  C_3 
REMARK    2  A    between atoms: C_4  and  O_5 
REMARK    3  A    between atoms: C_8  and  C_9 
REMARK    4  A    between atoms: C_13  and  C_14 
REMARK       I    between atoms: C_14  and  N_15 
REMARK    5  A    between atoms: N_15  and  N_16 
ROOT
HETATM    1  C   UNL     1      41.290 -10.336   7.838  1.00  0.00     0.069 A 
HETATM    2  N   UNL     1      40.330  -9.482   7.420  1.00  0.00    -0.248 NA
HETATM    3  C   UNL     1      39.704  -9.697   6.252  1.00  0.00     0.068 A 
HETATM    4  C   UNL     1      40.010 -10.774   5.394  1.00  0.00     0.009 A 
HETATM    5  C   UNL     1      41.103 -11.587   5.793  1.00  0.00     0.048 A 
HETATM    6  C   UNL     1      41.723 -11.372   7.030  1.00  0.00     0.050 A 
HETATM    7  C   UNL     1      38.691  -8.815   5.906  1.00  0.00     0.032 A 
HETATM    8  C   UNL     1      37.930  -8.978   4.748  1.00  0.00     0.002 A 
HETATM    9  C   UNL     1      38.169 -10.065   3.924  1.00  0.00     0.001 A 
HETATM   10  C   UNL     1      39.188 -10.961   4.248  1.00  0.00     0.015 A 
ENDROOT
BRANCH   5  11
HETATM   11  C   UNL     1      41.682 -12.707   4.991  1.00  0.00     0.271 C 
HETATM   12  N   UNL     1      41.238 -13.981   5.280  1.00  0.00    -0.252 N 
HETATM   13  H   UNL     1      40.345 -14.111   5.749  1.00  0.00     0.191 HD
HETATM   14  O   UNL     1      42.447 -12.447   4.065  1.00  0.00    -0.266 OA
BRANCH  12  15
HETATM   15  N   UNL     1      41.582 -15.002   4.400  1.00  0.00    -0.167 N 
HETATM   16  C   UNL     1      40.724 -15.436   3.427  1.00  0.00     0.345 C 
HETATM   17  O   UNL     1      39.636 -14.965   3.136  1.00  0.00    -0.245 OA
HETATM   18  N   UNL     1      41.265 -16.576   2.865  1.00  0.00    -0.323 N 
HETATM   19  C   UNL     1      42.588 -16.862   3.396  1.00  0.00     0.117 C 
HETATM   20  H   UNL     1      40.825 -17.028   2.073  1.00  0.00     0.165 HD
HETATM   21  C   UNL     1      43.670 -16.391   2.413  1.00  0.00     0.041 C 
HETATM   22  C   UNL     1      42.768 -18.327   3.791  1.00  0.00     0.041 C 
HETATM   23  C   UNL     1      42.572 -15.931   4.630  1.00  0.00     0.275 C 
HETATM   24  C   UNL     1      43.771 -17.313   1.197  1.00  0.00     0.003 C 
HETATM   25  C   UNL     1      43.980 -18.766   1.612  1.00  0.00     0.000 C 
HETATM   26  C   UNL     1      42.897 -19.244   2.575  1.00  0.00     0.003 C 
HETATM   27  O   UNL     1      43.314 -16.027   5.598  1.00  0.00    -0.268 OA
ENDBRANCH  12  15
ENDBRANCH   5  11
BRANCH   1  28
HETATM   28  C   UNL     1      41.799 -10.109   9.207  1.00  0.00    -0.004 A 
HETATM   29  C   UNL     1      43.046 -10.633   9.612  1.00  0.00     0.053 A 
HETATM   30  C   UNL     1      43.577 -10.386  10.888  1.00  0.00     0.102 A 
HETATM   31  C   UNL     1      42.858  -9.566  11.769  1.00  0.00     0.101 A 
HETATM   32  C   UNL     1      41.607  -9.068  11.405  1.00  0.00     0.040 A 
HETATM   33  C   UNL     1      41.088  -9.330  10.136  1.00  0.00     0.017 A 
BRANCH  30  34
HETATM   34  O   UNL     1      44.765 -10.896  11.341  1.00  0.00    -0.353 OA
HETATM   35  C   UNL     1      45.490 -11.749  10.467  1.00  0.00     0.210 C 
ENDBRANCH  30  34
BRANCH  31  36
HETATM   36  O   UNL     1      43.268  -9.232  13.036  1.00  0.00    -0.353 OA
HETATM   37  C   UNL     1      42.607  -9.984  14.052  1.00  0.00     0.210 C 
ENDBRANCH  31  36
ENDBRANCH   1  28
TORSDOF 5
ENDMDL
MODEL 5
REMARK VINA RESULT:      -8.8      3.461      6.415
REMARK  5 active torsions:
REMARK  status: ('A' for Active; 'I' for Inactive)
REMARK    1  A    between atoms: O_2  and  C_3 
REMARK    2  A    between atoms: C_4  and  O_5 
REMARK    3  A    between atoms: C_8  and  C_9 
REMARK    4  A    between atoms: C_13  and  C_14 
REMARK       I    between atoms: C_14  and  N_15 
REMARK    5  A    between atoms: N_15  and  N_16 
ROOT
HETATM    1  C   UNL     1      42.888 -16.097   3.069  1.00  0.00     0.069 A 
HETATM    2  N   UNL     1      42.892 -15.323   4.177  1.00  0.00    -0.248 NA
HETATM    3  C   UNL     1      42.242 -14.148   4.175  1.00  0.00     0.068 A 
HETATM    4  C   UNL     1      41.557 -13.641   3.051  1.00  0.00     0.009 A 
HETATM    5  C   UNL     1      41.669 -14.410   1.864  1.00  0.00     0.048 A 
HETATM    6  C   UNL     1      42.321 -15.650   1.890  1.00  0.00     0.050 A 
HETATM    7  C   UNL     1      42.238 -13.427   5.360  1.00  0.00     0.032 A 
HETATM    8  C   UNL     1      41.542 -12.225   5.493  1.00  0.00     0.002 A 
HETATM    9  C   UNL     1      40.808 -11.741   4.423  1.00  0.00     0.001 A 
HETATM   10  C   UNL     1      40.805 -12.445   3.219  1.00  0.00     0.015 A 
ENDROOT
BRANCH   5  11
HETATM   11  C   UNL     1      41.133 -14.015   0.527  1.00  0.00     0.271 C 
HETATM   12  N   UNL     1      40.365 -14.947  -0.142  1.00  0.00    -0.252 N 
HETATM   13  H   UNL     1      39.915 -15.698   0.377  1.00  0.00     0.191 HD
HETATM   14  O   UNL     1      41.315 -12.870   0.123  1.00  0.00    -0.266 OA
BRANCH  12  15
HETATM   15  N   UNL     1      39.667 -14.525  -1.268  1.00  0.00    -0.167 N 
HETATM   16  C   UNL     1      40.287 -14.340  -2.474  1.00  0.00     0.345 C 
HETATM   17  O   UNL     1      41.448 -14.593  -2.756  1.00  0.00    -0.245 OA
HETATM   18  N   UNL     1      39.385 -13.731  -3.323  1.00  0.00    -0.323 N 
HETATM   19  C   UNL     1      38.072 -13.599  -2.710  1.00  0.00     0.117 C 
HETATM   20  H   UNL     1      39.612 -13.562  -4.296  1.00  0.00     0.165 HD
HETATM   21  C   UNL     1      37.134 -14.705  -3.215  1.00  0.00     0.041 C 
HETATM   22  C   UNL     1      37.469 -12.207  -2.888  1.00  0.00     0.041 C 
HETATM   23  C   UNL     1      38.453 -13.878  -1.238  1.00  0.00     0.275 C 
HETATM   24  C   UNL     1      36.678 -14.449  -4.651  1.00  0.00     0.003 C 
HETATM   25  C   UNL     1      36.051 -13.066  -4.801  1.00  0.00     0.000 C 
HETATM   26  C   UNL     1      36.986 -11.963  -4.318  1.00  0.00     0.003 C 
HETATM   27  O   UNL     1      37.778 -13.574  -0.264  1.00  0.00    -0.268 OA
ENDBRANCH  12  15
ENDBRANCH   5  11
BRANCH   1  28
HETATM   28  C   UNL     1      43.485 -17.440   3.223  1.00  0.00    -0.004 A 
HETATM   29  C   UNL     1      43.869 -17.920   4.494  1.00  0.00     0.053 A 
HETATM   30  C   UNL     1      44.387 -19.212   4.675  1.00  0.00     0.102 A 
HETATM   31  C   UNL     1      44.494 -20.057   3.562  1.00  0.00     0.101 A 
HETATM   32  C   UNL     1      44.158 -19.592   2.291  1.00  0.00     0.040 A 
HETATM   33  C   UNL     1      43.652 -18.302   2.125  1.00  0.00     0.017 A 
BRANCH  30  34
HETATM   34  O   UNL     1      44.803 -19.714   5.881  1.00  0.00    -0.353 OA
HETATM   35  C   UNL     1      43.802 -20.084   6.819  1.00  0.00     0.210 C 
ENDBRANCH  30  34
BRANCH  31  36
HETATM   36  O   UNL     1      44.968 -21.344   3.601  1.00  0.00    -0.353 OA
HETATM   37  C   UNL     1      44.305 -22.212   2.682  1.00  0.00     0.210 C 
ENDBRANCH  31  36
ENDBRANCH   1  28
TORSDOF 5
ENDMDL
MODEL 6
REMARK VINA RESULT:      -8.6      3.553      6.467
REMARK  5 active torsions:
REMARK  status: ('A' for Active; 'I' for Inactive)
REMARK    1  A    between atoms: O_2  and  C_3 
REMARK    2  A    between atoms: C_4  and  O_5 
REMARK    3  A    between atoms: C_8  and  C_9 
REMARK    4  A    between atoms: C_13  and  C_14 
REMARK       I    between atoms: C_14  and  N_15 
REMARK    5  A    between atoms: N_15  and  N_16 
ROOT
HETATM    1  C   UNL     1      39.464 -10.917   6.818  1.00  0.00     0.069 A 
HETATM    2  N   UNL     1      38.855 -10.130   5.903  1.00  0.00    -0.248 NA
HETATM    3  C   UNL     1      38.682 -10.573   4.649  1.00  0.00     0.068 A 
HETATM    4  C   UNL     1      39.131 -11.834   4.201  1.00  0.00     0.009 A 
HETATM    5  C   UNL     1      39.874 -12.591   5.142  1.00  0.00     0.048 A 
HETATM    6  C   UNL     1      40.017 -12.132   6.458  1.00  0.00     0.050 A 
HETATM    7  C   UNL     1      38.001  -9.740   3.772  1.00  0.00     0.032 A 
HETATM    8  C   UNL     1      37.708 -10.123   2.463  1.00  0.00     0.002 A 
HETATM    9  C   UNL     1      38.081 -11.382   2.022  1.00  0.00     0.001 A 
HETATM   10  C   UNL     1      38.773 -12.233   2.883  1.00  0.00     0.015 A 
ENDROOT
BRANCH   5  11
HETATM   11  C   UNL     1      40.548 -13.895   4.860  1.00  0.00     0.271 C 
HETATM   12  N   UNL     1      41.107 -14.055   3.609  1.00  0.00    -0.252 N 
HETATM   13  H   UNL     1      41.347 -13.237   3.053  1.00  0.00     0.191 HD
HETATM   14  O   UNL     1      40.655 -14.721   5.763  1.00  0.00    -0.266 OA
BRANCH  12  15
HETATM   15  N   UNL     1      41.935 -15.154   3.404  1.00  0.00    -0.167 N 
HETATM   16  C   UNL     1      43.279 -15.015   3.187  1.00  0.00     0.345 C 
HETATM   17  O   UNL     1      43.933 -13.986   3.233  1.00  0.00    -0.245 OA
HETATM   18  N   UNL     1      43.776 -16.249   2.820  1.00  0.00    -0.323 N 
HETATM   19  C   UNL     1      42.759 -17.286   2.898  1.00  0.00     0.117 C 
HETATM   20  H   UNL     1      44.769 -16.393   2.677  1.00  0.00     0.165 HD
HETATM   21  C   UNL     1      42.920 -18.094   4.195  1.00  0.00     0.041 C 
HETATM   22  C   UNL     1      42.724 -18.182   1.662  1.00  0.00     0.041 C 
HETATM   23  C   UNL     1      41.499 -16.395   2.999  1.00  0.00     0.275 C 
HETATM   24  C   UNL     1      44.120 -19.038   4.128  1.00  0.00     0.003 C 
HETATM   25  C   UNL     1      44.051 -19.945   2.903  1.00  0.00     0.000 C 
HETATM   26  C   UNL     1      43.910 -19.146   1.611  1.00  0.00     0.003 C 
HETATM   27  O   UNL     1      40.355 -16.760   2.763  1.00  0.00    -0.268 OA
ENDBRANCH  12  15
ENDBRANCH   5  11
BRANCH   1  28
HETATM   28  C   UNL     1      39.457 -10.410   8.207  1.00  0.00    -0.004 A 
HETATM   29  C   UNL     1      40.128 -11.106   9.235  1.00  0.00     0.053 A 
HETATM   30  C   UNL     1      40.183 -10.618  10.550  1.00  0.00     0.102 A 
HETATM   31  C   UNL     1      39.580  -9.385  10.836  1.00  0.00     0.101 A 
HETATM   32  C   UNL     1      38.879  -8.698   9.846  1.00  0.00     0.040 A 
HETATM   33  C   UNL     1      38.826  -9.201   8.545  1.00  0.00     0.017 A 
BRANCH  30  34
HETATM   34  O   UNL     1      40.793 -11.269  11.590  1.00  0.00    -0.353 OA
HETATM   35  C   UNL     1      42.207 -11.178  11.684  1.00  0.00     0.210 C 
ENDBRANCH  30  34
BRANCH  31  36
HETATM   36  O   UNL     1      39.572  -8.787  12.072  1.00  0.00    -0.353 OA
HETATM   37  C   UNL     1      38.258  -8.485  12.538  1.00  0.00     0.210 C 
ENDBRANCH  31  36
ENDBRANCH   1  28
TORSDOF 5
ENDMDL
MODEL 7
REMARK VINA RESULT:      -8.6      3.095      8.939
REMARK  5 active torsions:
REMARK  status: ('A' for Active; 'I' for Inactive)
REMARK    1  A    between atoms: O_2  and  C_3 
REMARK    2  A    between atoms: C_4  and  O_5 
REMARK    3  A    between atoms: C_8  and  C_9 
REMARK    4  A    between atoms: C_13  and  C_14 
REMARK       I    between atoms: C_14  and  N_15 
REMARK    5  A    between atoms: N_15  and  N_16 
ROOT
HETATM    1  C   UNL     1      41.466 -16.317   2.890  1.00  0.00     0.069 A 
HETATM    2  N   UNL     1      40.892 -16.097   1.686  1.00  0.00    -0.248 NA
HETATM    3  C   UNL     1      40.163 -14.989   1.484  1.00  0.00     0.068 A 
HETATM    4  C   UNL     1      39.927 -14.022   2.485  1.00  0.00     0.009 A 
HETATM    5  C   UNL     1      40.435 -14.333   3.772  1.00  0.00     0.048 A 
HETATM    6  C   UNL     1      41.223 -15.475   3.959  1.00  0.00     0.050 A 
HETATM    7  C   UNL     1      39.646 -14.795   0.212  1.00  0.00     0.032 A 
HETATM    8  C   UNL     1      38.928 -13.648  -0.129  1.00  0.00     0.002 A 
HETATM    9  C   UNL     1      38.740 -12.656   0.818  1.00  0.00     0.001 A 
HETATM   10  C   UNL     1      39.243 -12.833   2.106  1.00  0.00     0.015 A 
ENDROOT
BRANCH   5  11
HETATM   11  C   UNL     1      40.208 -13.523   5.007  1.00  0.00     0.271 C 
HETATM   12  N   UNL     1      40.817 -12.286   5.068  1.00  0.00    -0.252 N 
HETATM   13  H   UNL     1      41.104 -11.821   4.210  1.00  0.00     0.191 HD
HETATM   14  O   UNL     1      39.432 -13.941   5.863  1.00  0.00    -0.266 OA
BRANCH  12  15
HETATM   15  N   UNL     1      40.435 -11.425   6.091  1.00  0.00    -0.167 N 
HETATM   16  C   UNL     1      39.399 -10.544   5.944  1.00  0.00     0.345 C 
HETATM   17  O   UNL     1      38.638 -10.448   4.994  1.00  0.00    -0.245 OA
HETATM   18  N   UNL     1      39.402  -9.702   7.039  1.00  0.00    -0.323 N 
HETATM   19  C   UNL     1      40.404 -10.095   8.017  1.00  0.00     0.117 C 
HETATM   20  H   UNL     1      38.673  -9.011   7.170  1.00  0.00     0.165 HD
HETATM   21  C   UNL     1      39.749 -10.874   9.168  1.00  0.00     0.041 C 
HETATM   22  C   UNL     1      41.239  -8.919   8.521  1.00  0.00     0.041 C 
HETATM   23  C   UNL     1      41.239 -11.063   7.149  1.00  0.00     0.275 C 
HETATM   24  C   UNL     1      38.955  -9.954  10.095  1.00  0.00     0.003 C 
HETATM   25  C   UNL     1      39.815  -8.803  10.611  1.00  0.00     0.000 C 
HETATM   26  C   UNL     1      40.453  -8.015   9.471  1.00  0.00     0.003 C 
HETATM   27  O   UNL     1      42.384 -11.420   7.390  1.00  0.00    -0.268 OA
ENDBRANCH  12  15
ENDBRANCH   5  11
BRANCH   1  28
HETATM   28  C   UNL     1      42.383 -17.474   2.961  1.00  0.00    -0.004 A 
HETATM   29  C   UNL     1      43.016 -17.823   4.174  1.00  0.00     0.053 A 
HETATM   30  C   UNL     1      43.847 -18.949   4.282  1.00  0.00     0.102 A 
HETATM   31  C   UNL     1      44.023 -19.766   3.157  1.00  0.00     0.101 A 
HETATM   32  C   UNL     1      43.439 -19.421   1.938  1.00  0.00     0.040 A 
HETATM   33  C   UNL     1      42.622 -18.294   1.844  1.00  0.00     0.017 A 
BRANCH  30  34
HETATM   34  O   UNL     1      44.510 -19.312   5.426  1.00  0.00    -0.353 OA
HETATM   35  C   UNL     1      45.121 -18.281   6.187  1.00  0.00     0.210 C 
ENDBRANCH  30  34
BRANCH  31  36
HETATM   36  O   UNL     1      44.795 -20.901   3.129  1.00  0.00    -0.353 OA
HETATM   37  C   UNL     1      44.386 -21.829   2.124  1.00  0.00     0.210 C 
ENDBRANCH  31  36
ENDBRANCH   1  28
TORSDOF 5
ENDMDL
MODEL 8
REMARK VINA RESULT:      -8.6      3.562     10.195
REMARK  5 active torsions:
REMARK  status: ('A' for Active; 'I' for Inactive)
REMARK    1  A    between atoms: O_2  and  C_3 
REMARK    2  A    between atoms: C_4  and  O_5 
REMARK    3  A    between atoms: C_8  and  C_9 
REMARK    4  A    between atoms: C_13  and  C_14 
REMARK       I    between atoms: C_14  and  N_15 
REMARK    5  A    between atoms: N_15  and  N_16 
ROOT
HETATM    1  C   UNL     1      42.122 -13.824   4.317  1.00  0.00     0.069 A 
HETATM    2  N   UNL     1      41.723 -13.050   3.283  1.00  0.00    -0.248 NA
HETATM    3  C   UNL     1      41.295 -11.799   3.508  1.00  0.00     0.068 A 
HETATM    4  C   UNL     1      41.206 -11.229   4.796  1.00  0.00     0.009 A 
HETATM    5  C   UNL     1      41.513 -12.097   5.875  1.00  0.00     0.048 A 
HETATM    6  C   UNL     1      41.992 -13.389   5.623  1.00  0.00     0.050 A 
HETATM    7  C   UNL     1      40.951 -11.038   2.400  1.00  0.00     0.032 A 
HETATM    8  C   UNL     1      40.554  -9.706   2.510  1.00  0.00     0.002 A 
HETATM    9  C   UNL     1      40.523  -9.105   3.757  1.00  0.00     0.001 A 
HETATM   10  C   UNL     1      40.856  -9.853   4.887  1.00  0.00     0.015 A 
ENDROOT
BRANCH   5  11
HETATM   11  C   UNL     1      41.375 -11.754   7.323  1.00  0.00     0.271 C 
HETATM   12  N   UNL     1      42.522 -11.370   7.989  1.00  0.00    -0.252 N 
HETATM   13  H   UNL     1      43.317 -11.015   7.463  1.00  0.00     0.191 HD
HETATM   14  O   UNL     1      40.257 -11.740   7.832  1.00  0.00    -0.266 OA
BRANCH  12  15
HETATM   15  N   UNL     1      42.381 -10.827   9.261  1.00  0.00    -0.167 N 
HETATM   16  C   UNL     1      41.911  -9.556   9.455  1.00  0.00     0.345 C 
HETATM   17  O   UNL     1      41.480  -8.789   8.609  1.00  0.00    -0.245 OA
HETATM   18  N   UNL     1      42.082  -9.242  10.789  1.00  0.00    -0.323 N 
HETATM   19  C   UNL     1      42.581 -10.377  11.550  1.00  0.00     0.117 C 
HETATM   20  H   UNL     1      41.738  -8.369  11.170  1.00  0.00     0.165 HD
HETATM   21  C   UNL     1      41.431 -11.058  12.308  1.00  0.00     0.041 C 
HETATM   22  C   UNL     1      43.742 -10.012  12.473  1.00  0.00     0.041 C 
HETATM   23  C   UNL     1      43.036 -11.283  10.383  1.00  0.00     0.275 C 
HETATM   24  C   UNL     1      40.978 -10.231  13.512  1.00  0.00     0.003 C 
HETATM   25  C   UNL     1      42.147  -9.903  14.436  1.00  0.00     0.000 C 
HETATM   26  C   UNL     1      43.284  -9.210  13.691  1.00  0.00     0.003 C 
HETATM   27  O   UNL     1      43.820 -12.217  10.478  1.00  0.00    -0.268 OA
ENDBRANCH  12  15
ENDBRANCH   5  11
BRANCH   1  28
HETATM   28  C   UNL     1      42.732 -15.119   3.951  1.00  0.00    -0.004 A 
HETATM   29  C   UNL     1      43.027 -16.085   4.938  1.00  0.00     0.053 A 
HETATM   30  C   UNL     1      43.555 -17.344   4.612  1.00  0.00     0.102 A 
HETATM   31  C   UNL     1      43.762 -17.658   3.262  1.00  0.00     0.101 A 
HETATM   32  C   UNL     1      43.514 -16.706   2.272  1.00  0.00     0.040 A 
HETATM   33  C   UNL     1      42.997 -15.456   2.613  1.00  0.00     0.017 A 
BRANCH  30  34
HETATM   34  O   UNL     1      43.888 -18.303   5.532  1.00  0.00    -0.353 OA
HETATM   35  C   UNL     1      45.099 -18.129   6.254  1.00  0.00     0.210 C 
ENDBRANCH  30  34
BRANCH  31  36
HETATM   36  O   UNL     1      44.257 -18.854   2.804  1.00  0.00    -0.353 OA
HETATM   37  C   UNL     1      43.294 -19.615   2.077  1.00  0.00     0.210 C 
ENDBRANCH  31  36
ENDBRANCH   1  28
TORSDOF 5
ENDMDL
MODEL 9
REMARK VINA RESULT:      -8.5      1.642      2.631
REMARK  5 active torsions:
REMARK  status: ('A' for Active; 'I' for Inactive)
REMARK    1  A    between atoms: O_2  and  C_3 
REMARK    2  A    between atoms: C_4  and  O_5 
REMARK    3  A    between atoms: C_8  and  C_9 
REMARK    4  A    between atoms: C_13  and  C_14 
REMARK       I    between atoms: C_14  and  N_15 
REMARK    5  A    between atoms: N_15  and  N_16 
ROOT
HETATM    1  C   UNL     1      43.111 -15.602   4.628  1.00  0.00     0.069 A 
HETATM    2  N   UNL     1      43.631 -16.836   4.812  1.00  0.00    -0.248 NA
HETATM    3  C   UNL     1      43.516 -17.762   3.849  1.00  0.00     0.068 A 
HETATM    4  C   UNL     1      42.844 -17.534   2.628  1.00  0.00     0.009 A 
HETATM    5  C   UNL     1      42.201 -16.276   2.507  1.00  0.00     0.048 A 
HETATM    6  C   UNL     1      42.359 -15.307   3.506  1.00  0.00     0.050 A 
HETATM    7  C   UNL     1      44.118 -18.991   4.076  1.00  0.00     0.032 A 
HETATM    8  C   UNL     1      44.118 -20.006   3.119  1.00  0.00     0.002 A 
HETATM    9  C   UNL     1      43.522 -19.781   1.890  1.00  0.00     0.001 A 
HETATM   10  C   UNL     1      42.902 -18.557   1.641  1.00  0.00     0.015 A 
ENDROOT
BRANCH   5  11
HETATM   11  C   UNL     1      41.335 -15.857   1.363  1.00  0.00     0.271 C 
HETATM   12  N   UNL     1      40.754 -14.608   1.441  1.00  0.00    -0.252 N 
HETATM   13  H   UNL     1      41.156 -13.899   2.050  1.00  0.00     0.191 HD
HETATM   14  O   UNL     1      41.249 -16.586   0.379  1.00  0.00    -0.266 OA
BRANCH  12  15
HETATM   15  N   UNL     1      40.142 -14.105   0.298  1.00  0.00    -0.167 N 
HETATM   16  C   UNL     1      40.824 -13.341  -0.610  1.00  0.00     0.345 C 
HETATM   17  O   UNL     1      42.016 -13.079  -0.609  1.00  0.00    -0.245 OA
HETATM   18  N   UNL     1      39.906 -12.833  -1.508  1.00  0.00    -0.323 N 
HETATM   19  C   UNL     1      38.571 -13.360  -1.270  1.00  0.00     0.117 C 
HETATM   20  H   UNL     1      40.203 -12.291  -2.310  1.00  0.00     0.165 HD
HETATM   21  C   UNL     1      38.260 -14.491  -2.262  1.00  0.00     0.041 C 
HETATM   22  C   UNL     1      37.493 -12.278  -1.276  1.00  0.00     0.041 C 
HETATM   23  C   UNL     1      38.782 -13.955   0.140  1.00  0.00     0.275 C 
HETATM   24  C   UNL     1      37.985 -13.953  -3.667  1.00  0.00     0.003 C 
HETATM   25  C   UNL     1      36.885 -12.896  -3.655  1.00  0.00     0.000 C 
HETATM   26  C   UNL     1      37.198 -11.761  -2.684  1.00  0.00     0.003 C 
HETATM   27  O   UNL     1      37.891 -14.231   0.931  1.00  0.00    -0.268 OA
ENDBRANCH  12  15
ENDBRANCH   5  11
BRANCH   1  28
HETATM   28  C   UNL     1      43.434 -14.607   5.672  1.00  0.00    -0.004 A 
HETATM   29  C   UNL     1      42.619 -13.471   5.867  1.00  0.00     0.053 A 
HETATM   30  C   UNL     1      42.872 -12.540   6.887  1.00  0.00     0.102 A 
HETATM   31  C   UNL     1      43.949 -12.770   7.755  1.00  0.00     0.101 A 
HETATM   32  C   UNL     1      44.790 -13.864   7.558  1.00  0.00     0.040 A 
HETATM   33  C   UNL     1      44.531 -14.776   6.535  1.00  0.00     0.017 A 
BRANCH  30  34
HETATM   34  O   UNL     1      42.132 -11.407   7.098  1.00  0.00    -0.353 OA
HETATM   35  C   UNL     1      41.144 -11.077   6.132  1.00  0.00     0.210 C 
ENDBRANCH  30  34
BRANCH  31  36
HETATM   36  O   UNL     1      44.298 -11.950   8.800  1.00  0.00    -0.353 OA
HETATM   37  C   UNL     1      45.710 -11.817   8.956  1.00  0.00     0.210 C 
ENDBRANCH  31  36
ENDBRANCH   1  28
TORSDOF 5
ENDMDL
MODEL 10
REMARK VINA RESULT:      -8.5      3.866      6.793
REMARK  5 active torsions:
REMARK  status: ('A' for Active; 'I' for Inactive)
REMARK    1  A    between atoms: O_2  and  C_3 
REMARK    2  A    between atoms: C_4  and  O_5 
REMARK    3  A    between atoms: C_8  and  C_9 
REMARK    4  A    between atoms: C_13  and  C_14 
REMARK       I    between atoms: C_14  and  N_15 
REMARK    5  A    between atoms: N_15  and  N_16 
ROOT
HETATM    1  C   UNL     1      42.016 -16.169   3.081  1.00  0.00     0.069 A 
HETATM    2  N   UNL     1      41.813 -15.694   4.331  1.00  0.00    -0.248 NA
HETATM    3  C   UNL     1      41.015 -14.633   4.523  1.00  0.00     0.068 A 
HETATM    4  C   UNL     1      40.373 -13.944   3.472  1.00  0.00     0.009 A 
HETATM    5  C   UNL     1      40.696 -14.381   2.162  1.00  0.00     0.048 A 
HETATM    6  C   UNL     1      41.503 -15.511   1.978  1.00  0.00     0.050 A 
HETATM    7  C   UNL     1      40.804 -14.229   5.834  1.00  0.00     0.032 A 
HETATM    8  C   UNL     1      39.944 -13.179   6.156  1.00  0.00     0.002 A 
HETATM    9  C   UNL     1      39.253 -12.531   5.147  1.00  0.00     0.001 A 
HETATM   10  C   UNL     1      39.455 -12.914   3.821  1.00  0.00     0.015 A 
ENDROOT
BRANCH   5  11
HETATM   11  C   UNL     1      40.236 -13.731   0.898  1.00  0.00     0.271 C 
HETATM   12  N   UNL     1      39.045 -14.176   0.361  1.00  0.00    -0.252 N 
HETATM   13  H   UNL     1      38.369 -14.653   0.954  1.00  0.00     0.191 HD
HETATM   14  O   UNL     1      40.874 -12.785   0.444  1.00  0.00    -0.266 OA
BRANCH  12  15
HETATM   15  N   UNL     1      38.483 -13.436  -0.673  1.00  0.00    -0.167 N 
HETATM   16  C   UNL     1      37.470 -12.543  -0.454  1.00  0.00     0.345 C 
HETATM   17  O   UNL     1      36.999 -12.208   0.621  1.00  0.00    -0.245 OA
HETATM   18  N   UNL     1      36.998 -12.129  -1.684  1.00  0.00    -0.323 N 
HETATM   19  C   UNL     1      37.791 -12.673  -2.776  1.00  0.00     0.117 C 
HETATM   20  H   UNL     1      36.288 -11.411  -1.759  1.00  0.00     0.165 HD
HETATM   21  C   UNL     1      38.783 -11.619  -3.291  1.00  0.00     0.041 C 
HETATM   22  C   UNL     1      36.938 -13.256  -3.900  1.00  0.00     0.041 C 
HETATM   23  C   UNL     1      38.560 -13.771  -2.006  1.00  0.00     0.275 C 
HETATM   24  C   UNL     1      38.083 -10.535  -4.111  1.00  0.00     0.003 C 
HETATM   25  C   UNL     1      37.261 -11.137  -5.246  1.00  0.00     0.000 C 
HETATM   26  C   UNL     1      36.261 -12.171  -4.738  1.00  0.00     0.003 C 
HETATM   27  O   UNL     1      39.119 -14.732  -2.517  1.00  0.00    -0.268 OA
ENDBRANCH  12  15
ENDBRANCH   5  11
BRANCH   1  28
HETATM   28  C   UNL     1      42.772 -17.435   2.991  1.00  0.00    -0.004 A 
HETATM   29  C   UNL     1      43.416 -17.976   4.125  1.00  0.00     0.053 A 
HETATM   30  C   UNL     1      44.094 -19.205   4.080  1.00  0.00     0.102 A 
HETATM   31  C   UNL     1      44.099 -19.926   2.878  1.00  0.00     0.101 A 
HETATM   32  C   UNL     1      43.503 -19.394   1.735  1.00  0.00     0.040 A 
HETATM   33  C   UNL     1      42.840 -18.168   1.793  1.00  0.00     0.017 A 
BRANCH  30  34
HETATM   34  O   UNL     1      44.761 -19.758   5.141  1.00  0.00    -0.353 OA
HETATM   35  C   UNL     1      44.071 -19.839   6.380  1.00  0.00     0.210 C 
ENDBRANCH  30  34
BRANCH  31  36
HETATM   36  O   UNL     1      44.710 -21.143   2.700  1.00  0.00    -0.353 OA
HETATM   37  C   UNL     1      44.117 -21.918   1.658  1.00  0.00     0.210 C 
ENDBRANCH  31  36
ENDBRANCH   1  28
TORSDOF 5
ENDMDL
