MODEL 1
REMARK VINA RESULT:      -8.6      0.000      0.000
REMARK  9 active torsions:
REMARK  status: ('A' for Active; 'I' for Inactive)
REMARK    1  A    between atoms: C_2  and  C_3 
REMARK    2  A    between atoms: C_3  and  O_4 
REMARK    3  A    between atoms: O_4  and  C_5 
REMARK    4  A    between atoms: C_8  and  C_9 
REMARK    5  A    between atoms: N_10  and  N_11 
REMARK       I    between atoms: N_11  and  C_12 
REMARK    6  A    between atoms: C_12  and  C_13 
REMARK    7  A    between atoms: C_17  and  C_18 
REMARK    8  A    between atoms: C_21  and  O_22 
REMARK    9  A    between atoms: O_22  and  C_23 
ROOT
HETATM    1  N   UNL     1      44.261 -13.901   7.876  1.00  0.00    -0.242 N 
HETATM    2  C   UNL     1      45.210 -12.952   8.225  1.00  0.00     0.289 C 
HETATM    3  O   UNL     1      46.294 -12.820   7.664  1.00  0.00    -0.264 OA
HETATM    4  H   UNL     1      43.402 -13.989   8.402  1.00  0.00     0.192 HD
ENDROOT
BRANCH   2   5
HETATM    5  C   UNL     1      44.844 -12.108   9.334  1.00  0.00     0.121 A 
HETATM    6  N   UNL     1      45.551 -10.974   9.618  1.00  0.00    -0.272 N 
HETATM    7  H   UNL     1      46.356 -10.618   9.109  1.00  0.00     0.189 HD
HETATM    8  N   UNL     1      45.113 -10.305  10.694  1.00  0.00    -0.174 NA
HETATM    9  C   UNL     1      44.048 -11.003  11.117  1.00  0.00     0.089 A 
HETATM   10  C   UNL     1      43.849 -12.147  10.292  1.00  0.00     0.071 A 
BRANCH   9  11
HETATM   11  C   UNL     1      43.268 -10.583  12.284  1.00  0.00    -0.005 A 
HETATM   12  C   UNL     1      43.715  -9.558  13.126  1.00  0.00     0.016 A 
HETATM   13  C   UNL     1      42.950  -9.158  14.227  1.00  0.00     0.037 A 
HETATM   14  C   UNL     1      41.724  -9.768  14.503  1.00  0.00     0.068 A 
HETATM   15  C   UNL     1      41.278 -10.800  13.680  1.00  0.00     0.037 A 
HETATM   16  C   UNL     1      42.046 -11.204  12.581  1.00  0.00     0.016 A 
BRANCH  14  17
HETATM   17  O   UNL     1      41.074  -9.274  15.600  1.00  0.00    -0.352 OA
BRANCH  17  18
HETATM   18  C   UNL     1      40.797  -7.875  15.610  1.00  0.00     0.171 C 
HETATM   19  C   UNL     1      39.728  -7.603  14.567  1.00  0.00     0.034 C 
ENDBRANCH  17  18
ENDBRANCH  14  17
ENDBRANCH   9  11
ENDBRANCH   2   5
BRANCH   1  20
HETATM   20  N   UNL     1      44.501 -14.753   6.838  1.00  0.00    -0.184 NA
HETATM   21  C   UNL     1      43.681 -15.746   6.714  1.00  0.00     0.150 C 
BRANCH  21  22
HETATM   22  C   UNL     1      43.833 -16.734   5.627  1.00  0.00    -0.017 A 
HETATM   23  C   UNL     1      43.421 -16.428   4.327  1.00  0.00     0.016 A 
HETATM   24  C   UNL     1      43.567 -17.372   3.305  1.00  0.00     0.037 A 
HETATM   25  C   UNL     1      44.125 -18.622   3.579  1.00  0.00     0.068 A 
HETATM   26  C   UNL     1      44.536 -18.918   4.883  1.00  0.00     0.037 A 
HETATM   27  C   UNL     1      44.392 -17.980   5.910  1.00  0.00     0.016 A 
BRANCH  25  28
HETATM   28  O   UNL     1      44.324 -19.627   2.674  1.00  0.00    -0.351 OA
BRANCH  28  29
HETATM   29  C   UNL     1      43.167 -20.145   2.016  1.00  0.00     0.175 C 
BRANCH  29  30
HETATM   30  C   UNL     1      43.444 -21.600   1.651  1.00  0.00     0.022 C 
HETATM   31  C   UNL     1      44.456 -22.234   2.590  1.00  0.00     0.007 C 
ENDBRANCH  29  30
ENDBRANCH  28  29
ENDBRANCH  25  28
ENDBRANCH  21  22
ENDBRANCH   1  20
TORSDOF 9
ENDMDL
MODEL 2
REMARK VINA RESULT:      -7.6      9.210     13.140
REMARK  9 active torsions:
REMARK  status: ('A' for Active; 'I' for Inactive)
REMARK    1  A    between atoms: C_2  and  C_3 
REMARK    2  A    between atoms: C_3  and  O_4 
REMARK    3  A    between atoms: O_4  and  C_5 
REMARK    4  A    between atoms: C_8  and  C_9 
REMARK    5  A    between atoms: N_10  and  N_11 
REMARK       I    between atoms: N_11  and  C_12 
REMARK    6  A    between atoms: C_12  and  C_13 
REMARK    7  A    between atoms: C_17  and  C_18 
REMARK    8  A    between atoms: C_21  and  O_22 
REMARK    9  A    between atoms: O_22  and  C_23 
ROOT
HETATM    1  N   UNL     1      42.087 -14.194  -1.312  1.00  0.00    -0.242 N 
HETATM    2  C   UNL     1      40.980 -14.741  -0.681  1.00  0.00     0.289 C 
HETATM    3  O   UNL     1      39.821 -14.397  -0.897  1.00  0.00    -0.264 OA
HETATM    4  H   UNL     1      43.022 -14.490  -1.063  1.00  0.00     0.192 HD
ENDROOT
BRANCH   2   5
HETATM    5  C   UNL     1      41.279 -15.764   0.289  1.00  0.00     0.121 A 
HETATM    6  N   UNL     1      40.288 -16.330   1.042  1.00  0.00    -0.272 N 
HETATM    7  H   UNL     1      39.296 -16.112   1.000  1.00  0.00     0.189 HD
HETATM    8  N   UNL     1      40.719 -17.245   1.922  1.00  0.00    -0.174 NA
HETATM    9  C   UNL     1      42.043 -17.317   1.716  1.00  0.00     0.089 A 
HETATM   10  C   UNL     1      42.435 -16.397   0.701  1.00  0.00     0.071 A 
BRANCH   9  11
HETATM   11  C   UNL     1      42.892 -18.231   2.486  1.00  0.00    -0.005 A 
HETATM   12  C   UNL     1      43.291 -19.465   1.962  1.00  0.00     0.016 A 
HETATM   13  C   UNL     1      44.115 -20.319   2.704  1.00  0.00     0.037 A 
HETATM   14  C   UNL     1      44.559 -19.953   3.977  1.00  0.00     0.068 A 
HETATM   15  C   UNL     1      44.154 -18.733   4.514  1.00  0.00     0.037 A 
HETATM   16  C   UNL     1      43.325 -17.881   3.773  1.00  0.00     0.016 A 
BRANCH  14  17
HETATM   17  O   UNL     1      45.367 -20.873   4.587  1.00  0.00    -0.352 OA
BRANCH  17  18
HETATM   18  C   UNL     1      44.727 -22.007   5.169  1.00  0.00     0.171 C 
HETATM   19  C   UNL     1      44.087 -21.565   6.473  1.00  0.00     0.034 C 
ENDBRANCH  17  18
ENDBRANCH  14  17
ENDBRANCH   9  11
ENDBRANCH   2   5
BRANCH   1  20
HETATM   20  N   UNL     1      41.921 -13.220  -2.251  1.00  0.00    -0.184 NA
HETATM   21  C   UNL     1      42.621 -12.144  -2.087  1.00  0.00     0.150 C 
BRANCH  21  22
HETATM   22  C   UNL     1      42.533 -11.019  -3.039  1.00  0.00    -0.017 A 
HETATM   23  C   UNL     1      42.560  -9.699  -2.584  1.00  0.00     0.016 A 
HETATM   24  C   UNL     1      42.473  -8.640  -3.494  1.00  0.00     0.037 A 
HETATM   25  C   UNL     1      42.359  -8.898  -4.860  1.00  0.00     0.068 A 
HETATM   26  C   UNL     1      42.333 -10.224  -5.308  1.00  0.00     0.037 A 
HETATM   27  C   UNL     1      42.418 -11.287  -4.404  1.00  0.00     0.016 A 
BRANCH  25  28
HETATM   28  O   UNL     1      42.269  -7.958  -5.850  1.00  0.00    -0.351 OA
BRANCH  28  29
HETATM   29  C   UNL     1      42.843  -8.292  -7.114  1.00  0.00     0.175 C 
BRANCH  29  30
HETATM   30  C   UNL     1      44.154  -7.525  -7.253  1.00  0.00     0.022 C 
HETATM   31  C   UNL     1      44.970  -8.015  -8.437  1.00  0.00     0.007 C 
ENDBRANCH  29  30
ENDBRANCH  28  29
ENDBRANCH  25  28
ENDBRANCH  21  22
ENDBRANCH   1  20
TORSDOF 9
ENDMDL
MODEL 3
REMARK VINA RESULT:      -7.6      2.449     12.438
REMARK  9 active torsions:
REMARK  status: ('A' for Active; 'I' for Inactive)
REMARK    1  A    between atoms: C_2  and  C_3 
REMARK    2  A    between atoms: C_3  and  O_4 
REMARK    3  A    between atoms: O_4  and  C_5 
REMARK    4  A    between atoms: C_8  and  C_9 
REMARK    5  A    between atoms: N_10  and  N_11 
REMARK       I    between atoms: N_11  and  C_12 
REMARK    6  A    between atoms: C_12  and  C_13 
REMARK    7  A    between atoms: C_17  and  C_18 
REMARK    8  A    between atoms: C_21  and  O_22 
REMARK    9  A    between atoms: O_22  and  C_23 
ROOT
HETATM    1  N   UNL     1      42.646 -11.747   7.534  1.00  0.00    -0.242 N 
HETATM    2  C   UNL     1      41.728 -11.883   6.504  1.00  0.00     0.289 C 
HETATM    3  O   UNL     1      40.660 -11.280   6.444  1.00  0.00    -0.264 OA
HETATM    4  H   UNL     1      43.491 -12.301   7.549  1.00  0.00     0.192 HD
ENDROOT
BRANCH   2   5
HETATM    5  C   UNL     1      42.106 -12.820   5.476  1.00  0.00     0.121 A 
HETATM    6  N   UNL     1      42.340 -12.402   4.195  1.00  0.00    -0.272 N 
HETATM    7  H   UNL     1      42.284 -11.448   3.850  1.00  0.00     0.189 HD
HETATM    8  N   UNL     1      42.655 -13.387   3.343  1.00  0.00    -0.174 NA
HETATM    9  C   UNL     1      42.669 -14.497   4.097  1.00  0.00     0.089 A 
HETATM   10  C   UNL     1      42.324 -14.184   5.443  1.00  0.00     0.071 A 
BRANCH   9  11
HETATM   11  C   UNL     1      42.990 -15.809   3.527  1.00  0.00    -0.005 A 
HETATM   12  C   UNL     1      43.632 -15.926   2.289  1.00  0.00     0.016 A 
HETATM   13  C   UNL     1      43.945 -17.187   1.768  1.00  0.00     0.037 A 
HETATM   14  C   UNL     1      43.630 -18.350   2.474  1.00  0.00     0.068 A 
HETATM   15  C   UNL     1      42.976 -18.244   3.700  1.00  0.00     0.037 A 
HETATM   16  C   UNL     1      42.658 -16.983   4.220  1.00  0.00     0.016 A 
BRANCH  14  17
HETATM   17  O   UNL     1      44.001 -19.512   1.857  1.00  0.00    -0.352 OA
BRANCH  17  18
HETATM   18  C   UNL     1      44.292 -20.625   2.700  1.00  0.00     0.171 C 
HETATM   19  C   UNL     1      44.148 -21.889   1.872  1.00  0.00     0.034 C 
ENDBRANCH  17  18
ENDBRANCH  14  17
ENDBRANCH   9  11
ENDBRANCH   2   5
BRANCH   1  20
HETATM   20  N   UNL     1      42.392 -10.884   8.560  1.00  0.00    -0.184 NA
HETATM   21  C   UNL     1      43.150 -10.999   9.602  1.00  0.00     0.150 C 
BRANCH  21  22
HETATM   22  C   UNL     1      42.977 -10.119  10.776  1.00  0.00    -0.017 A 
HETATM   23  C   UNL     1      43.759 -10.300  11.919  1.00  0.00     0.016 A 
HETATM   24  C   UNL     1      43.585  -9.463  13.027  1.00  0.00     0.037 A 
HETATM   25  C   UNL     1      42.631  -8.445  12.994  1.00  0.00     0.068 A 
HETATM   26  C   UNL     1      41.853  -8.272  11.844  1.00  0.00     0.037 A 
HETATM   27  C   UNL     1      42.020  -9.105  10.734  1.00  0.00     0.016 A 
BRANCH  25  28
HETATM   28  O   UNL     1      42.365  -7.562  14.004  1.00  0.00    -0.351 OA
BRANCH  28  29
HETATM   29  C   UNL     1      41.100  -7.684  14.653  1.00  0.00     0.175 C 
BRANCH  29  30
HETATM   30  C   UNL     1      41.353  -7.994  16.126  1.00  0.00     0.022 C 
HETATM   31  C   UNL     1      41.544  -9.482  16.363  1.00  0.00     0.007 C 
ENDBRANCH  29  30
ENDBRANCH  28  29
ENDBRANCH  25  28
ENDBRANCH  21  22
ENDBRANCH   1  20
TORSDOF 9
ENDMDL
MODEL 4
REMARK VINA RESULT:      -7.4      8.983     13.243
REMARK  9 active torsions:
REMARK  status: ('A' for Active; 'I' for Inactive)
REMARK    1  A    between atoms: C_2  and  C_3 
REMARK    2  A    between atoms: C_3  and  O_4 
REMARK    3  A    between atoms: O_4  and  C_5 
REMARK    4  A    between atoms: C_8  and  C_9 
REMARK    5  A    between atoms: N_10  and  N_11 
REMARK       I    between atoms: N_11  and  C_12 
REMARK    6  A    between atoms: C_12  and  C_13 
REMARK    7  A    between atoms: C_17  and  C_18 
REMARK    8  A    between atoms: C_21  and  O_22 
REMARK    9  A    between atoms: O_22  and  C_23 
ROOT
HETATM    1  N   UNL     1      41.231 -16.006  -0.746  1.00  0.00    -0.242 N 
HETATM    2  C   UNL     1      41.131 -14.624  -0.804  1.00  0.00     0.289 C 
HETATM    3  O   UNL     1      41.776 -13.854  -0.098  1.00  0.00    -0.264 OA
HETATM    4  H   UNL     1      40.643 -16.591  -1.325  1.00  0.00     0.192 HD
ENDROOT
BRANCH   2   5
HETATM    5  C   UNL     1      40.180 -14.125  -1.765  1.00  0.00     0.121 A 
HETATM    6  N   UNL     1      40.583 -13.350  -2.816  1.00  0.00    -0.272 N 
HETATM    7  H   UNL     1      41.535 -13.064  -3.028  1.00  0.00     0.189 HD
HETATM    8  N   UNL     1      39.586 -12.936  -3.610  1.00  0.00    -0.174 NA
HETATM    9  C   UNL     1      38.482 -13.491  -3.087  1.00  0.00     0.089 A 
HETATM   10  C   UNL     1      38.813 -14.242  -1.922  1.00  0.00     0.071 A 
BRANCH   9  11
HETATM   11  C   UNL     1      37.161 -13.286  -3.687  1.00  0.00    -0.005 A 
HETATM   12  C   UNL     1      36.518 -12.044  -3.621  1.00  0.00     0.016 A 
HETATM   13  C   UNL     1      35.264 -11.862  -4.213  1.00  0.00     0.037 A 
HETATM   14  C   UNL     1      34.632 -12.910  -4.885  1.00  0.00     0.068 A 
HETATM   15  C   UNL     1      35.257 -14.155  -4.943  1.00  0.00     0.037 A 
HETATM   16  C   UNL     1      36.510 -14.339  -4.346  1.00  0.00     0.016 A 
BRANCH  14  17
HETATM   17  O   UNL     1      33.417 -12.593  -5.426  1.00  0.00    -0.352 OA
BRANCH  17  18
HETATM   18  C   UNL     1      32.590 -11.705  -4.677  1.00  0.00     0.171 C 
HETATM   19  C   UNL     1      31.813 -12.530  -3.667  1.00  0.00     0.034 C 
ENDBRANCH  17  18
ENDBRANCH  14  17
ENDBRANCH   9  11
ENDBRANCH   2   5
BRANCH   1  20
HETATM   20  N   UNL     1      42.103 -16.588   0.126  1.00  0.00    -0.184 NA
HETATM   21  C   UNL     1      41.575 -17.196   1.139  1.00  0.00     0.150 C 
BRANCH  21  22
HETATM   22  C   UNL     1      42.414 -17.869   2.151  1.00  0.00    -0.017 A 
HETATM   23  C   UNL     1      43.127 -19.026   1.827  1.00  0.00     0.016 A 
HETATM   24  C   UNL     1      43.917 -19.658   2.794  1.00  0.00     0.037 A 
HETATM   25  C   UNL     1      43.996 -19.135   4.085  1.00  0.00     0.068 A 
HETATM   26  C   UNL     1      43.280 -17.975   4.400  1.00  0.00     0.037 A 
HETATM   27  C   UNL     1      42.487 -17.339   3.440  1.00  0.00     0.016 A 
BRANCH  25  28
HETATM   28  O   UNL     1      44.730 -19.652   5.116  1.00  0.00    -0.351 OA
BRANCH  28  29
HETATM   29  C   UNL     1      44.014 -20.038   6.290  1.00  0.00     0.175 C 
BRANCH  29  30
HETATM   30  C   UNL     1      44.084 -21.558   6.406  1.00  0.00     0.022 C 
HETATM   31  C   UNL     1      44.915 -22.170   5.291  1.00  0.00     0.007 C 
ENDBRANCH  29  30
ENDBRANCH  28  29
ENDBRANCH  25  28
ENDBRANCH  21  22
ENDBRANCH   1  20
TORSDOF 9
ENDMDL
MODEL 5
REMARK VINA RESULT:      -7.3      8.625     13.495
REMARK  9 active torsions:
REMARK  status: ('A' for Active; 'I' for Inactive)
REMARK    1  A    between atoms: C_2  and  C_3 
REMARK    2  A    between atoms: C_3  and  O_4 
REMARK    3  A    between atoms: O_4  and  C_5 
REMARK    4  A    between atoms: C_8  and  C_9 
REMARK    5  A    between atoms: N_10  and  N_11 
REMARK       I    between atoms: N_11  and  C_12 
REMARK    6  A    between atoms: C_12  and  C_13 
REMARK    7  A    between atoms: C_17  and  C_18 
REMARK    8  A    between atoms: C_21  and  O_22 
REMARK    9  A    between atoms: O_22  and  C_23 
ROOT
HETATM    1  N   UNL     1      41.087 -16.251  -0.349  1.00  0.00    -0.242 N 
HETATM    2  C   UNL     1      40.956 -14.934  -0.762  1.00  0.00     0.289 C 
HETATM    3  O   UNL     1      41.585 -13.993  -0.285  1.00  0.00    -0.264 OA
HETATM    4  H   UNL     1      40.512 -16.978  -0.752  1.00  0.00     0.192 HD
ENDROOT
BRANCH   2   5
HETATM    5  C   UNL     1      39.991 -14.721  -1.812  1.00  0.00     0.121 A 
HETATM    6  N   UNL     1      40.204 -15.207  -3.071  1.00  0.00    -0.272 N 
HETATM    7  H   UNL     1      41.009 -15.742  -3.386  1.00  0.00     0.189 HD
HETATM    8  N   UNL     1      39.236 -14.908  -3.949  1.00  0.00    -0.174 NA
HETATM    9  C   UNL     1      38.326 -14.231  -3.233  1.00  0.00     0.089 A 
HETATM   10  C   UNL     1      38.766 -14.087  -1.885  1.00  0.00     0.071 A 
BRANCH   9  11
HETATM   11  C   UNL     1      37.088 -13.731  -3.838  1.00  0.00    -0.005 A 
HETATM   12  C   UNL     1      36.242 -14.578  -4.563  1.00  0.00     0.016 A 
HETATM   13  C   UNL     1      35.055 -14.087  -5.121  1.00  0.00     0.037 A 
HETATM   14  C   UNL     1      34.691 -12.749  -4.960  1.00  0.00     0.068 A 
HETATM   15  C   UNL     1      35.535 -11.895  -4.253  1.00  0.00     0.037 A 
HETATM   16  C   UNL     1      36.724 -12.384  -3.699  1.00  0.00     0.016 A 
BRANCH  14  17
HETATM   17  O   UNL     1      33.504 -12.405  -5.545  1.00  0.00    -0.352 OA
BRANCH  17  18
HETATM   18  C   UNL     1      32.599 -11.630  -4.761  1.00  0.00     0.171 C 
HETATM   19  C   UNL     1      32.023 -12.531  -3.684  1.00  0.00     0.034 C 
ENDBRANCH  17  18
ENDBRANCH  14  17
ENDBRANCH   9  11
ENDBRANCH   2   5
BRANCH   1  20
HETATM   20  N   UNL     1      41.974 -16.568   0.637  1.00  0.00    -0.184 NA
HETATM   21  C   UNL     1      41.672 -17.592   1.367  1.00  0.00     0.150 C 
BRANCH  21  22
HETATM   22  C   UNL     1      42.555 -18.038   2.464  1.00  0.00    -0.017 A 
HETATM   23  C   UNL     1      43.367 -19.164   2.309  1.00  0.00     0.016 A 
HETATM   24  C   UNL     1      44.198 -19.580   3.355  1.00  0.00     0.037 A 
HETATM   25  C   UNL     1      44.219 -18.872   4.557  1.00  0.00     0.068 A 
HETATM   26  C   UNL     1      43.402 -17.745   4.704  1.00  0.00     0.037 A 
HETATM   27  C   UNL     1      42.568 -17.325   3.663  1.00  0.00     0.016 A 
BRANCH  25  28
HETATM   28  O   UNL     1      44.983 -19.171   5.651  1.00  0.00    -0.351 OA
BRANCH  28  29
HETATM   29  C   UNL     1      45.188 -18.126   6.602  1.00  0.00     0.175 C 
BRANCH  29  30
HETATM   30  C   UNL     1      44.467 -18.513   7.890  1.00  0.00     0.022 C 
HETATM   31  C   UNL     1      43.472 -17.449   8.320  1.00  0.00     0.007 C 
ENDBRANCH  29  30
ENDBRANCH  28  29
ENDBRANCH  25  28
ENDBRANCH  21  22
ENDBRANCH   1  20
TORSDOF 9
ENDMDL
MODEL 6
REMARK VINA RESULT:      -7.2      8.554     13.033
REMARK  9 active torsions:
REMARK  status: ('A' for Active; 'I' for Inactive)
REMARK    1  A    between atoms: C_2  and  C_3 
REMARK    2  A    between atoms: C_3  and  O_4 
REMARK    3  A    between atoms: O_4  and  C_5 
REMARK    4  A    between atoms: C_8  and  C_9 
REMARK    5  A    between atoms: N_10  and  N_11 
REMARK       I    between atoms: N_11  and  C_12 
REMARK    6  A    between atoms: C_12  and  C_13 
REMARK    7  A    between atoms: C_17  and  C_18 
REMARK    8  A    between atoms: C_21  and  O_22 
REMARK    9  A    between atoms: O_22  and  C_23 
ROOT
HETATM    1  N   UNL     1      39.520 -14.452  -0.283  1.00  0.00    -0.242 N 
HETATM    2  C   UNL     1      39.006 -14.765   0.966  1.00  0.00     0.289 C 
HETATM    3  O   UNL     1      37.886 -14.445   1.353  1.00  0.00    -0.264 OA
HETATM    4  H   UNL     1      40.467 -14.708  -0.530  1.00  0.00     0.192 HD
ENDROOT
BRANCH   2   5
HETATM    5  C   UNL     1      39.901 -15.503   1.822  1.00  0.00     0.121 A 
HETATM    6  N   UNL     1      39.945 -15.263   3.167  1.00  0.00    -0.272 N 
HETATM    7  H   UNL     1      39.385 -14.587   3.681  1.00  0.00     0.189 HD
HETATM    8  N   UNL     1      40.844 -16.003   3.831  1.00  0.00    -0.174 NA
HETATM    9  C   UNL     1      41.390 -16.794   2.894  1.00  0.00     0.089 A 
HETATM   10  C   UNL     1      40.828 -16.506   1.617  1.00  0.00     0.071 A 
BRANCH   9  11
HETATM   11  C   UNL     1      42.425 -17.777   3.226  1.00  0.00    -0.005 A 
HETATM   12  C   UNL     1      43.012 -17.811   4.496  1.00  0.00     0.016 A 
HETATM   13  C   UNL     1      43.989 -18.767   4.801  1.00  0.00     0.037 A 
HETATM   14  C   UNL     1      44.391 -19.706   3.849  1.00  0.00     0.068 A 
HETATM   15  C   UNL     1      43.823 -19.669   2.576  1.00  0.00     0.037 A 
HETATM   16  C   UNL     1      42.850 -18.710   2.270  1.00  0.00     0.016 A 
BRANCH  14  17
HETATM   17  O   UNL     1      45.342 -20.588   4.281  1.00  0.00    -0.352 OA
BRANCH  17  18
HETATM   18  C   UNL     1      44.889 -21.694   5.060  1.00  0.00     0.171 C 
HETATM   19  C   UNL     1      44.637 -22.857   4.118  1.00  0.00     0.034 C 
ENDBRANCH  17  18
ENDBRANCH  14  17
ENDBRANCH   9  11
ENDBRANCH   2   5
BRANCH   1  20
HETATM   20  N   UNL     1      38.759 -13.758  -1.176  1.00  0.00    -0.184 NA
HETATM   21  C   UNL     1      38.265 -14.442  -2.157  1.00  0.00     0.150 C 
BRANCH  21  22
HETATM   22  C   UNL     1      37.420 -13.804  -3.187  1.00  0.00    -0.017 A 
HETATM   23  C   UNL     1      36.822 -14.572  -4.189  1.00  0.00     0.016 A 
HETATM   24  C   UNL     1      36.025 -13.958  -5.162  1.00  0.00     0.037 A 
HETATM   25  C   UNL     1      35.825 -12.577  -5.134  1.00  0.00     0.068 A 
HETATM   26  C   UNL     1      36.427 -11.816  -4.126  1.00  0.00     0.037 A 
HETATM   27  C   UNL     1      37.226 -12.423  -3.152  1.00  0.00     0.016 A 
BRANCH  25  28
HETATM   28  O   UNL     1      35.071 -11.858  -6.020  1.00  0.00    -0.351 OA
BRANCH  28  29
HETATM   29  C   UNL     1      34.050 -11.024  -5.473  1.00  0.00     0.175 C 
BRANCH  29  30
HETATM   30  C   UNL     1      32.823 -11.892  -5.209  1.00  0.00     0.022 C 
HETATM   31  C   UNL     1      32.481 -11.949  -3.730  1.00  0.00     0.007 C 
ENDBRANCH  29  30
ENDBRANCH  28  29
ENDBRANCH  25  28
ENDBRANCH  21  22
ENDBRANCH   1  20
TORSDOF 9
ENDMDL
MODEL 7
REMARK VINA RESULT:      -7.1      8.995     13.680
REMARK  9 active torsions:
REMARK  status: ('A' for Active; 'I' for Inactive)
REMARK    1  A    between atoms: C_2  and  C_3 
REMARK    2  A    between atoms: C_3  and  O_4 
REMARK    3  A    between atoms: O_4  and  C_5 
REMARK    4  A    between atoms: C_8  and  C_9 
REMARK    5  A    between atoms: N_10  and  N_11 
REMARK       I    between atoms: N_11  and  C_12 
REMARK    6  A    between atoms: C_12  and  C_13 
REMARK    7  A    between atoms: C_17  and  C_18 
REMARK    8  A    between atoms: C_21  and  O_22 
REMARK    9  A    between atoms: O_22  and  C_23 
ROOT
HETATM    1  N   UNL     1      40.319 -15.389   0.216  1.00  0.00    -0.242 N 
HETATM    2  C   UNL     1      40.900 -14.416  -0.582  1.00  0.00     0.289 C 
HETATM    3  O   UNL     1      42.050 -14.007  -0.448  1.00  0.00    -0.264 OA
HETATM    4  H   UNL     1      39.353 -15.657   0.084  1.00  0.00     0.192 HD
ENDROOT
BRANCH   2   5
HETATM    5  C   UNL     1      40.040 -13.880  -1.607  1.00  0.00     0.121 A 
HETATM    6  N   UNL     1      40.453 -12.850  -2.405  1.00  0.00    -0.272 N 
HETATM    7  H   UNL     1      41.355 -12.382  -2.371  1.00  0.00     0.189 HD
HETATM    8  N   UNL     1      39.538 -12.438  -3.292  1.00  0.00    -0.174 NA
HETATM    9  C   UNL     1      38.490 -13.253  -3.103  1.00  0.00     0.089 A 
HETATM   10  C   UNL     1      38.763 -14.171  -2.048  1.00  0.00     0.071 A 
BRANCH   9  11
HETATM   11  C   UNL     1      37.268 -13.134  -3.904  1.00  0.00    -0.005 A 
HETATM   12  C   UNL     1      36.519 -14.262  -4.257  1.00  0.00     0.016 A 
HETATM   13  C   UNL     1      35.346 -14.128  -5.009  1.00  0.00     0.037 A 
HETATM   14  C   UNL     1      34.897 -12.869  -5.414  1.00  0.00     0.068 A 
HETATM   15  C   UNL     1      35.645 -11.742  -5.080  1.00  0.00     0.037 A 
HETATM   16  C   UNL     1      36.821 -11.876  -4.332  1.00  0.00     0.016 A 
BRANCH  14  17
HETATM   17  O   UNL     1      33.733 -12.880  -6.131  1.00  0.00    -0.352 OA
BRANCH  17  18
HETATM   18  C   UNL     1      33.722 -12.146  -7.354  1.00  0.00     0.171 C 
HETATM   19  C   UNL     1      34.226 -13.062  -8.454  1.00  0.00     0.034 C 
ENDBRANCH  17  18
ENDBRANCH  14  17
ENDBRANCH   9  11
ENDBRANCH   2   5
BRANCH   1  20
HETATM   20  N   UNL     1      41.043 -15.968   1.216  1.00  0.00    -0.184 NA
HETATM   21  C   UNL     1      41.665 -17.060   0.912  1.00  0.00     0.150 C 
BRANCH  21  22
HETATM   22  C   UNL     1      42.486 -17.779   1.908  1.00  0.00    -0.017 A 
HETATM   23  C   UNL     1      43.293 -18.851   1.521  1.00  0.00     0.016 A 
HETATM   24  C   UNL     1      44.064 -19.527   2.473  1.00  0.00     0.037 A 
HETATM   25  C   UNL     1      44.031 -19.132   3.811  1.00  0.00     0.068 A 
HETATM   26  C   UNL     1      43.220 -18.056   4.189  1.00  0.00     0.037 A 
HETATM   27  C   UNL     1      42.445 -17.377   3.243  1.00  0.00     0.016 A 
BRANCH  25  28
HETATM   28  O   UNL     1      44.735 -19.704   4.834  1.00  0.00    -0.351 OA
BRANCH  28  29
HETATM   29  C   UNL     1      44.013 -20.002   6.029  1.00  0.00     0.175 C 
BRANCH  29  30
HETATM   30  C   UNL     1      44.153 -21.496   6.305  1.00  0.00     0.022 C 
HETATM   31  C   UNL     1      44.955 -22.196   5.221  1.00  0.00     0.007 C 
ENDBRANCH  29  30
ENDBRANCH  28  29
ENDBRANCH  25  28
ENDBRANCH  21  22
ENDBRANCH   1  20
TORSDOF 9
ENDMDL
MODEL 8
REMARK VINA RESULT:      -6.6      8.973     13.254
REMARK  9 active torsions:
REMARK  status: ('A' for Active; 'I' for Inactive)
REMARK    1  A    between atoms: C_2  and  C_3 
REMARK    2  A    between atoms: C_3  and  O_4 
REMARK    3  A    between atoms: O_4  and  C_5 
REMARK    4  A    between atoms: C_8  and  C_9 
REMARK    5  A    between atoms: N_10  and  N_11 
REMARK       I    between atoms: N_11  and  C_12 
REMARK    6  A    between atoms: C_12  and  C_13 
REMARK    7  A    between atoms: C_17  and  C_18 
REMARK    8  A    between atoms: C_21  and  O_22 
REMARK    9  A    between atoms: O_22  and  C_23 
ROOT
HETATM    1  N   UNL     1      39.987 -14.787  -1.391  1.00  0.00    -0.242 N 
HETATM    2  C   UNL     1      40.024 -14.816  -0.005  1.00  0.00     0.289 C 
HETATM    3  O   UNL     1      39.300 -14.139   0.720  1.00  0.00    -0.264 OA
HETATM    4  H   UNL     1      40.637 -15.338  -1.936  1.00  0.00     0.192 HD
ENDROOT
BRANCH   2   5
HETATM    5  C   UNL     1      41.008 -15.707   0.557  1.00  0.00     0.121 A 
HETATM    6  N   UNL     1      42.095 -16.103  -0.172  1.00  0.00    -0.272 N 
HETATM    7  H   UNL     1      42.320 -15.826  -1.124  1.00  0.00     0.189 HD
HETATM    8  N   UNL     1      42.908 -16.953   0.469  1.00  0.00    -0.174 NA
HETATM    9  C   UNL     1      42.359 -17.097   1.685  1.00  0.00     0.089 A 
HETATM   10  C   UNL     1      41.160 -16.334   1.778  1.00  0.00     0.071 A 
BRANCH   9  11
HETATM   11  C   UNL     1      42.968 -17.953   2.708  1.00  0.00    -0.005 A 
HETATM   12  C   UNL     1      43.871 -18.965   2.363  1.00  0.00     0.016 A 
HETATM   13  C   UNL     1      44.455 -19.763   3.353  1.00  0.00     0.037 A 
HETATM   14  C   UNL     1      44.155 -19.560   4.702  1.00  0.00     0.068 A 
HETATM   15  C   UNL     1      43.246 -18.564   5.054  1.00  0.00     0.037 A 
HETATM   16  C   UNL     1      42.657 -17.770   4.063  1.00  0.00     0.016 A 
BRANCH  14  17
HETATM   17  O   UNL     1      44.803 -20.400   5.565  1.00  0.00    -0.352 OA
BRANCH  17  18
HETATM   18  C   UNL     1      44.049 -21.488   6.094  1.00  0.00     0.171 C 
HETATM   19  C   UNL     1      43.568 -21.094   7.479  1.00  0.00     0.034 C 
ENDBRANCH  17  18
ENDBRANCH  14  17
ENDBRANCH   9  11
ENDBRANCH   2   5
BRANCH   1  20
HETATM   20  N   UNL     1      39.092 -13.981  -2.030  1.00  0.00    -0.184 NA
HETATM   21  C   UNL     1      38.289 -14.565  -2.859  1.00  0.00     0.150 C 
BRANCH  21  22
HETATM   22  C   UNL     1      37.271 -13.801  -3.608  1.00  0.00    -0.017 A 
HETATM   23  C   UNL     1      36.384 -14.453  -4.468  1.00  0.00     0.016 A 
HETATM   24  C   UNL     1      35.426 -13.719  -5.176  1.00  0.00     0.037 A 
HETATM   25  C   UNL     1      35.352 -12.334  -5.026  1.00  0.00     0.068 A 
HETATM   26  C   UNL     1      36.245 -11.689  -4.161  1.00  0.00     0.037 A 
HETATM   27  C   UNL     1      37.206 -12.416  -3.452  1.00  0.00     0.016 A 
BRANCH  25  28
HETATM   28  O   UNL     1      34.466 -11.504  -5.655  1.00  0.00    -0.351 OA
BRANCH  28  29
HETATM   29  C   UNL     1      33.762 -12.040  -6.775  1.00  0.00     0.175 C 
BRANCH  29  30
HETATM   30  C   UNL     1      32.871 -10.938  -7.343  1.00  0.00     0.022 C 
HETATM   31  C   UNL     1      31.484 -10.962  -6.725  1.00  0.00     0.007 C 
ENDBRANCH  29  30
ENDBRANCH  28  29
ENDBRANCH  25  28
ENDBRANCH  21  22
ENDBRANCH   1  20
TORSDOF 9
ENDMDL
MODEL 9
REMARK VINA RESULT:      -6.4      8.721     13.089
REMARK  9 active torsions:
REMARK  status: ('A' for Active; 'I' for Inactive)
REMARK    1  A    between atoms: C_2  and  C_3 
REMARK    2  A    between atoms: C_3  and  O_4 
REMARK    3  A    between atoms: O_4  and  C_5 
REMARK    4  A    between atoms: C_8  and  C_9 
REMARK    5  A    between atoms: N_10  and  N_11 
REMARK       I    between atoms: N_11  and  C_12 
REMARK    6  A    between atoms: C_12  and  C_13 
REMARK    7  A    between atoms: C_17  and  C_18 
REMARK    8  A    between atoms: C_21  and  O_22 
REMARK    9  A    between atoms: O_22  and  C_23 
ROOT
HETATM    1  N   UNL     1      39.649 -14.043  -0.880  1.00  0.00    -0.242 N 
HETATM    2  C   UNL     1      41.012 -13.812  -0.777  1.00  0.00     0.289 C 
HETATM    3  O   UNL     1      41.653 -13.100  -1.545  1.00  0.00    -0.264 OA
HETATM    4  H   UNL     1      39.183 -14.673  -0.241  1.00  0.00     0.192 HD
ENDROOT
BRANCH   2   5
HETATM    5  C   UNL     1      41.661 -14.492   0.316  1.00  0.00     0.121 A 
HETATM    6  N   UNL     1      42.121 -13.799   1.401  1.00  0.00    -0.272 N 
HETATM    7  H   UNL     1      42.055 -12.796   1.552  1.00  0.00     0.189 HD
HETATM    8  N   UNL     1      42.726 -14.559   2.324  1.00  0.00    -0.174 NA
HETATM    9  C   UNL     1      42.630 -15.811   1.850  1.00  0.00     0.089 A 
HETATM   10  C   UNL     1      41.971 -15.810   0.587  1.00  0.00     0.071 A 
BRANCH   9  11
HETATM   11  C   UNL     1      43.169 -16.956   2.588  1.00  0.00    -0.005 A 
HETATM   12  C   UNL     1      43.324 -16.916   3.979  1.00  0.00     0.016 A 
HETATM   13  C   UNL     1      43.826 -18.025   4.669  1.00  0.00     0.037 A 
HETATM   14  C   UNL     1      44.175 -19.193   3.988  1.00  0.00     0.068 A 
HETATM   15  C   UNL     1      44.039 -19.237   2.601  1.00  0.00     0.037 A 
HETATM   16  C   UNL     1      43.542 -18.126   1.910  1.00  0.00     0.016 A 
BRANCH  14  17
HETATM   17  O   UNL     1      44.640 -20.203   4.783  1.00  0.00    -0.352 OA
BRANCH  17  18
HETATM   18  C   UNL     1      44.839 -21.472   4.164  1.00  0.00     0.171 C 
HETATM   19  C   UNL     1      45.093 -22.492   5.260  1.00  0.00     0.034 C 
ENDBRANCH  17  18
ENDBRANCH  14  17
ENDBRANCH   9  11
ENDBRANCH   2   5
BRANCH   1  20
HETATM   20  N   UNL     1      38.933 -13.448  -1.876  1.00  0.00    -0.184 NA
HETATM   21  C   UNL     1      38.067 -14.195  -2.481  1.00  0.00     0.150 C 
BRANCH  21  22
HETATM   22  C   UNL     1      37.227 -13.665  -3.574  1.00  0.00    -0.017 A 
HETATM   23  C   UNL     1      37.183 -12.293  -3.833  1.00  0.00     0.016 A 
HETATM   24  C   UNL     1      36.381 -11.800  -4.869  1.00  0.00     0.037 A 
HETATM   25  C   UNL     1      35.625 -12.677  -5.647  1.00  0.00     0.068 A 
HETATM   26  C   UNL     1      35.676 -14.050  -5.381  1.00  0.00     0.037 A 
HETATM   27  C   UNL     1      36.473 -14.549  -4.346  1.00  0.00     0.016 A 
BRANCH  25  28
HETATM   28  O   UNL     1      34.807 -12.326  -6.686  1.00  0.00    -0.351 OA
BRANCH  28  29
HETATM   29  C   UNL     1      35.350 -11.445  -7.668  1.00  0.00     0.175 C 
BRANCH  29  30
HETATM   30  C   UNL     1      36.140 -12.283  -8.669  1.00  0.00     0.022 C 
HETATM   31  C   UNL     1      35.265 -13.327  -9.343  1.00  0.00     0.007 C 
ENDBRANCH  29  30
ENDBRANCH  28  29
ENDBRANCH  25  28
ENDBRANCH  21  22
ENDBRANCH   1  20
TORSDOF 9
ENDMDL
MODEL 10
REMARK VINA RESULT:      -6.4      9.207     13.021
REMARK  9 active torsions:
REMARK  status: ('A' for Active; 'I' for Inactive)
REMARK    1  A    between atoms: C_2  and  C_3 
REMARK    2  A    between atoms: C_3  and  O_4 
REMARK    3  A    between atoms: O_4  and  C_5 
REMARK    4  A    between atoms: C_8  and  C_9 
REMARK    5  A    between atoms: N_10  and  N_11 
REMARK       I    between atoms: N_11  and  C_12 
REMARK    6  A    between atoms: C_12  and  C_13 
REMARK    7  A    between atoms: C_17  and  C_18 
REMARK    8  A    between atoms: C_21  and  O_22 
REMARK    9  A    between atoms: O_22  and  C_23 
ROOT
HETATM    1  N   UNL     1      39.333 -14.767  -1.462  1.00  0.00    -0.242 N 
HETATM    2  C   UNL     1      40.161 -14.254  -0.474  1.00  0.00     0.289 C 
HETATM    3  O   UNL     1      40.291 -13.057  -0.233  1.00  0.00    -0.264 OA
HETATM    4  H   UNL     1      39.298 -15.761  -1.641  1.00  0.00     0.192 HD
ENDROOT
BRANCH   2   5
HETATM    5  C   UNL     1      40.898 -15.243   0.271  1.00  0.00     0.121 A 
HETATM    6  N   UNL     1      41.824 -16.040  -0.342  1.00  0.00    -0.272 N 
HETATM    7  H   UNL     1      42.083 -16.022  -1.325  1.00  0.00     0.189 HD
HETATM    8  N   UNL     1      42.409 -16.931   0.470  1.00  0.00    -0.174 NA
HETATM    9  C   UNL     1      41.879 -16.688   1.679  1.00  0.00     0.089 A 
HETATM   10  C   UNL     1      40.921 -15.638   1.595  1.00  0.00     0.071 A 
BRANCH   9  11
HETATM   11  C   UNL     1      42.278 -17.457   2.861  1.00  0.00    -0.005 A 
HETATM   12  C   UNL     1      43.349 -18.357   2.815  1.00  0.00     0.016 A 
HETATM   13  C   UNL     1      43.726 -19.071   3.958  1.00  0.00     0.037 A 
HETATM   14  C   UNL     1      43.047 -18.895   5.166  1.00  0.00     0.068 A 
HETATM   15  C   UNL     1      41.969 -18.014   5.217  1.00  0.00     0.037 A 
HETATM   16  C   UNL     1      41.589 -17.303   4.072  1.00  0.00     0.016 A 
BRANCH  14  17
HETATM   17  O   UNL     1      43.525 -19.645   6.205  1.00  0.00    -0.352 OA
BRANCH  17  18
HETATM   18  C   UNL     1      43.944 -18.937   7.370  1.00  0.00     0.171 C 
HETATM   19  C   UNL     1      45.139 -18.081   6.994  1.00  0.00     0.034 C 
ENDBRANCH  17  18
ENDBRANCH  14  17
ENDBRANCH   9  11
ENDBRANCH   2   5
BRANCH   1  20
HETATM   20  N   UNL     1      38.586 -13.922  -2.228  1.00  0.00    -0.184 NA
HETATM   21  C   UNL     1      37.767 -14.479  -3.059  1.00  0.00     0.150 C 
BRANCH  21  22
HETATM   22  C   UNL     1      36.900 -13.671  -3.940  1.00  0.00    -0.017 A 
HETATM   23  C   UNL     1      37.004 -12.278  -3.955  1.00  0.00     0.016 A 
HETATM   24  C   UNL     1      36.176 -11.521  -4.791  1.00  0.00     0.037 A 
HETATM   25  C   UNL     1      35.244 -12.154  -5.614  1.00  0.00     0.068 A 
HETATM   26  C   UNL     1      35.146 -13.550  -5.592  1.00  0.00     0.037 A 
HETATM   27  C   UNL     1      35.969 -14.313  -4.758  1.00  0.00     0.016 A 
BRANCH  25  28
HETATM   28  O   UNL     1      34.381 -11.533  -6.474  1.00  0.00    -0.351 OA
BRANCH  28  29
HETATM   29  C   UNL     1      34.931 -10.535  -7.333  1.00  0.00     0.175 C 
BRANCH  29  30
HETATM   30  C   UNL     1      34.943 -11.090  -8.755  1.00  0.00     0.022 C 
HETATM   31  C   UNL     1      33.791 -12.051  -8.993  1.00  0.00     0.007 C 
ENDBRANCH  29  30
ENDBRANCH  28  29
ENDBRANCH  25  28
ENDBRANCH  21  22
ENDBRANCH   1  20
TORSDOF 9
ENDMDL
