MODEL 1
REMARK VINA RESULT:      -8.6      0.000      0.000
REMARK  6 active torsions:
REMARK  status: ('A' for Active; 'I' for Inactive)
REMARK    1  A    between atoms: C_6  and  C_7 
REMARK    2  A    between atoms: C_7  and  N_8 
REMARK       I    between atoms: N_8  and  C_9 
REMARK    3  A    between atoms: N_8  and  C_19 
REMARK    4  A    between atoms: C_9  and  C_10 
REMARK    5  A    between atoms: C_12  and  O_13 
REMARK    6  A    between atoms: C_19  and  C_20 
ROOT
HETATM    1  N   UNL     1      42.689 -16.869   2.516  1.00  0.00    -0.341 N 
HETATM    2  C   UNL     1      43.781 -17.577   2.005  1.00  0.00     0.254 C 
HETATM    3  O   UNL     1      44.643 -17.055   1.299  1.00  0.00    -0.267 OA
ENDROOT
BRANCH   1   4
HETATM    4  C   UNL     1      42.639 -15.429   2.233  1.00  0.00     0.170 C 
BRANCH   4   5
HETATM    5  C   UNL     1      41.753 -15.073   1.071  1.00  0.00     0.029 A 
HETATM    6  C   UNL     1      41.797 -15.567  -0.179  1.00  0.00     0.028 A 
HETATM    7  C   UNL     1      40.831 -15.149  -1.197  1.00  0.00    -0.008 A 
HETATM    8  C   UNL     1      39.838 -14.216  -0.863  1.00  0.00     0.051 A 
HETATM    9  C   UNL     1      40.876 -15.678  -2.488  1.00  0.00     0.014 A 
HETATM   10  C   UNL     1      38.885 -13.805  -1.811  1.00  0.00    -0.034 A 
HETATM   11  N   UNL     1      39.820 -13.703   0.442  1.00  0.00    -0.322 N 
HETATM   12  C   UNL     1      37.803 -12.818  -1.479  1.00  0.00     0.050 C 
HETATM   13  C   UNL     1      38.948 -14.350  -3.102  1.00  0.00     0.009 A 
HETATM   14  C   UNL     1      39.936 -15.277  -3.438  1.00  0.00     0.002 A 
HETATM   15  C   UNL     1      40.709 -14.058   1.417  1.00  0.00     0.253 A 
HETATM   16  H   UNL     1      39.125 -13.026   0.718  1.00  0.00     0.169 HD
HETATM   17  O   UNL     1      40.650 -13.551   2.535  1.00  0.00    -0.268 OA
ENDBRANCH   4   5
ENDBRANCH   1   4
BRANCH   1  18
HETATM   18  C   UNL     1      41.515 -17.471   3.172  1.00  0.00     0.158 C 
BRANCH  18  19
HETATM   19  C   UNL     1      41.389 -17.192   4.678  1.00  0.00     0.139 C 
HETATM   20  O   UNL     1      40.738 -15.918   4.877  1.00  0.00    -0.384 OA
HETATM   21  C   UNL     1      41.451 -15.199   5.895  1.00  0.00     0.168 C 
HETATM   22  C   UNL     1      42.362 -16.199   6.570  1.00  0.00     0.029 C 
HETATM   23  C   UNL     1      42.713 -17.111   5.423  1.00  0.00     0.035 C 
ENDBRANCH  18  19
ENDBRANCH   1  18
BRANCH   2  24
HETATM   24  C   UNL     1      43.955 -19.020   2.295  1.00  0.00     0.034 A 
HETATM   25  C   UNL     1      44.594 -19.372   3.493  1.00  0.00     0.053 A 
HETATM   26  C   UNL     1      44.736 -20.717   3.837  1.00  0.00     0.069 A 
HETATM   27  C   UNL     1      44.254 -21.701   2.970  1.00  0.00     0.037 A 
HETATM   28  C   UNL     1      43.587 -21.352   1.794  1.00  0.00     0.004 A 
HETATM   29  C   UNL     1      43.415 -20.009   1.466  1.00  0.00     0.017 A 
BRANCH  26  30
HETATM   30  O   UNL     1      45.331 -21.189   4.975  1.00  0.00    -0.356 OA
HETATM   31  C   UNL     1      45.184 -22.583   5.229  1.00  0.00     0.210 C 
ENDBRANCH  26  30
ENDBRANCH   2  24
TORSDOF 6
ENDMDL
MODEL 2
REMARK VINA RESULT:      -8.5      2.100      2.806
REMARK  6 active torsions:
REMARK  status: ('A' for Active; 'I' for Inactive)
REMARK    1  A    between atoms: C_6  and  C_7 
REMARK    2  A    between atoms: C_7  and  N_8 
REMARK       I    between atoms: N_8  and  C_9 
REMARK    3  A    between atoms: N_8  and  C_19 
REMARK    4  A    between atoms: C_9  and  C_10 
REMARK    5  A    between atoms: C_12  and  O_13 
REMARK    6  A    between atoms: C_19  and  C_20 
ROOT
HETATM    1  N   UNL     1      42.281 -15.902   3.561  1.00  0.00    -0.341 N 
HETATM    2  C   UNL     1      41.821 -17.217   3.680  1.00  0.00     0.254 C 
HETATM    3  O   UNL     1      40.654 -17.538   3.457  1.00  0.00    -0.267 OA
ENDROOT
BRANCH   1   4
HETATM    4  C   UNL     1      41.318 -14.901   3.082  1.00  0.00     0.170 C 
BRANCH   4   5
HETATM    5  C   UNL     1      41.454 -14.588   1.617  1.00  0.00     0.029 A 
HETATM    6  C   UNL     1      41.087 -15.354   0.574  1.00  0.00     0.028 A 
HETATM    7  C   UNL     1      41.246 -14.888  -0.805  1.00  0.00    -0.008 A 
HETATM    8  C   UNL     1      41.790 -13.617  -1.044  1.00  0.00     0.051 A 
HETATM    9  C   UNL     1      40.850 -15.683  -1.881  1.00  0.00     0.014 A 
HETATM   10  C   UNL     1      41.942 -13.131  -2.355  1.00  0.00    -0.034 A 
HETATM   11  N   UNL     1      42.179 -12.842   0.057  1.00  0.00    -0.322 N 
HETATM   12  C   UNL     1      42.508 -11.770  -2.642  1.00  0.00     0.050 C 
HETATM   13  C   UNL     1      41.537 -13.947  -3.422  1.00  0.00     0.009 A 
HETATM   14  C   UNL     1      40.996 -15.213  -3.186  1.00  0.00     0.002 A 
HETATM   15  C   UNL     1      42.058 -13.244   1.358  1.00  0.00     0.253 A 
HETATM   16  H   UNL     1      42.579 -11.925  -0.075  1.00  0.00     0.169 HD
HETATM   17  O   UNL     1      42.441 -12.522   2.276  1.00  0.00    -0.268 OA
ENDBRANCH   4   5
ENDBRANCH   1   4
BRANCH   1  18
HETATM   18  C   UNL     1      43.591 -15.413   4.023  1.00  0.00     0.158 C 
BRANCH  18  19
HETATM   19  C   UNL     1      43.565 -14.593   5.322  1.00  0.00     0.139 C 
HETATM   20  O   UNL     1      44.679 -13.673   5.333  1.00  0.00    -0.384 OA
HETATM   21  C   UNL     1      45.285 -13.710   6.634  1.00  0.00     0.168 C 
HETATM   22  C   UNL     1      44.309 -14.423   7.544  1.00  0.00     0.029 C 
HETATM   23  C   UNL     1      43.683 -15.415   6.597  1.00  0.00     0.035 C 
ENDBRANCH  18  19
ENDBRANCH   1  18
BRANCH   2  24
HETATM   24  C   UNL     1      42.736 -18.308   4.089  1.00  0.00     0.034 A 
HETATM   25  C   UNL     1      43.409 -19.010   3.078  1.00  0.00     0.053 A 
HETATM   26  C   UNL     1      44.319 -20.012   3.414  1.00  0.00     0.069 A 
HETATM   27  C   UNL     1      44.538 -20.318   4.760  1.00  0.00     0.037 A 
HETATM   28  C   UNL     1      43.896 -19.597   5.769  1.00  0.00     0.004 A 
HETATM   29  C   UNL     1      43.011 -18.573   5.435  1.00  0.00     0.017 A 
BRANCH  26  30
HETATM   30  O   UNL     1      45.041 -20.762   2.526  1.00  0.00    -0.356 OA
HETATM   31  C   UNL     1      44.357 -21.857   1.924  1.00  0.00     0.210 C 
ENDBRANCH  26  30
ENDBRANCH   2  24
TORSDOF 6
ENDMDL
MODEL 3
REMARK VINA RESULT:      -8.4      1.963      2.459
REMARK  6 active torsions:
REMARK  status: ('A' for Active; 'I' for Inactive)
REMARK    1  A    between atoms: C_6  and  C_7 
REMARK    2  A    between atoms: C_7  and  N_8 
REMARK       I    between atoms: N_8  and  C_9 
REMARK    3  A    between atoms: N_8  and  C_19 
REMARK    4  A    between atoms: C_9  and  C_10 
REMARK    5  A    between atoms: C_12  and  O_13 
REMARK    6  A    between atoms: C_19  and  C_20 
ROOT
HETATM    1  N   UNL     1      42.084 -15.614   3.171  1.00  0.00    -0.341 N 
HETATM    2  C   UNL     1      41.731 -16.963   3.071  1.00  0.00     0.254 C 
HETATM    3  O   UNL     1      40.581 -17.336   2.841  1.00  0.00    -0.267 OA
ENDROOT
BRANCH   1   4
HETATM    4  C   UNL     1      41.024 -14.628   2.918  1.00  0.00     0.170 C 
BRANCH   4   5
HETATM    5  C   UNL     1      40.812 -14.333   1.459  1.00  0.00     0.029 A 
HETATM    6  C   UNL     1      41.709 -13.859   0.575  1.00  0.00     0.028 A 
HETATM    7  C   UNL     1      41.359 -13.663  -0.833  1.00  0.00    -0.008 A 
HETATM    8  C   UNL     1      40.064 -13.977  -1.272  1.00  0.00     0.051 A 
HETATM    9  C   UNL     1      42.300 -13.184  -1.746  1.00  0.00     0.014 A 
HETATM   10  C   UNL     1      39.698 -13.816  -2.619  1.00  0.00    -0.034 A 
HETATM   11  N   UNL     1      39.141 -14.456  -0.331  1.00  0.00    -0.322 N 
HETATM   12  C   UNL     1      38.325 -14.157  -3.121  1.00  0.00     0.050 C 
HETATM   13  C   UNL     1      40.660 -13.334  -3.520  1.00  0.00     0.009 A 
HETATM   14  C   UNL     1      41.950 -13.019  -3.086  1.00  0.00     0.002 A 
HETATM   15  C   UNL     1      39.424 -14.643   0.993  1.00  0.00     0.253 A 
HETATM   16  H   UNL     1      38.198 -14.687  -0.607  1.00  0.00     0.169 HD
HETATM   17  O   UNL     1      38.559 -15.044   1.769  1.00  0.00    -0.268 OA
ENDBRANCH   4   5
ENDBRANCH   1   4
BRANCH   1  18
HETATM   18  C   UNL     1      43.378 -15.106   3.660  1.00  0.00     0.158 C 
BRANCH  18  19
HETATM   19  C   UNL     1      43.373 -14.578   5.103  1.00  0.00     0.139 C 
HETATM   20  O   UNL     1      44.441 -13.620   5.268  1.00  0.00    -0.384 OA
HETATM   21  C   UNL     1      45.108 -13.894   6.509  1.00  0.00     0.168 C 
HETATM   22  C   UNL     1      44.210 -14.834   7.282  1.00  0.00     0.029 C 
HETATM   23  C   UNL     1      43.589 -15.641   6.170  1.00  0.00     0.035 C 
ENDBRANCH  18  19
ENDBRANCH   1  18
BRANCH   2  24
HETATM   24  C   UNL     1      42.746 -18.029   3.240  1.00  0.00     0.034 A 
HETATM   25  C   UNL     1      42.981 -18.506   4.538  1.00  0.00     0.053 A 
HETATM   26  C   UNL     1      43.889 -19.544   4.745  1.00  0.00     0.069 A 
HETATM   27  C   UNL     1      44.572 -20.086   3.653  1.00  0.00     0.037 A 
HETATM   28  C   UNL     1      44.315 -19.636   2.356  1.00  0.00     0.004 A 
HETATM   29  C   UNL     1      43.383 -18.622   2.145  1.00  0.00     0.017 A 
BRANCH  26  30
HETATM   30  O   UNL     1      44.200 -20.101   5.955  1.00  0.00    -0.356 OA
HETATM   31  C   UNL     1      43.807 -19.363   7.108  1.00  0.00     0.210 C 
ENDBRANCH  26  30
ENDBRANCH   2  24
TORSDOF 6
ENDMDL
MODEL 4
REMARK VINA RESULT:      -8.4      2.091      7.453
REMARK  6 active torsions:
REMARK  status: ('A' for Active; 'I' for Inactive)
REMARK    1  A    between atoms: C_6  and  C_7 
REMARK    2  A    between atoms: C_7  and  N_8 
REMARK       I    between atoms: N_8  and  C_9 
REMARK    3  A    between atoms: N_8  and  C_19 
REMARK    4  A    between atoms: C_9  and  C_10 
REMARK    5  A    between atoms: C_12  and  O_13 
REMARK    6  A    between atoms: C_19  and  C_20 
ROOT
HETATM    1  N   UNL     1      42.378 -15.387   3.795  1.00  0.00    -0.341 N 
HETATM    2  C   UNL     1      42.946 -14.413   2.968  1.00  0.00     0.254 C 
HETATM    3  O   UNL     1      44.122 -14.062   3.063  1.00  0.00    -0.267 OA
ENDROOT
BRANCH   1   4
HETATM    4  C   UNL     1      43.270 -16.044   4.760  1.00  0.00     0.170 C 
BRANCH   4   5
HETATM    5  C   UNL     1      43.551 -17.485   4.436  1.00  0.00     0.029 A 
HETATM    6  C   UNL     1      43.363 -18.117   3.264  1.00  0.00     0.028 A 
HETATM    7  C   UNL     1      43.729 -19.525   3.091  1.00  0.00    -0.008 A 
HETATM    8  C   UNL     1      44.288 -20.228   4.168  1.00  0.00     0.051 A 
HETATM    9  C   UNL     1      43.543 -20.169   1.867  1.00  0.00     0.014 A 
HETATM   10  C   UNL     1      44.666 -21.576   4.033  1.00  0.00    -0.034 A 
HETATM   11  N   UNL     1      44.462 -19.554   5.384  1.00  0.00    -0.322 N 
HETATM   12  C   UNL     1      45.279 -22.351   5.163  1.00  0.00     0.050 C 
HETATM   13  C   UNL     1      44.471 -22.204   2.793  1.00  0.00     0.009 A 
HETATM   14  C   UNL     1      43.913 -21.506   1.720  1.00  0.00     0.002 A 
HETATM   15  C   UNL     1      44.124 -18.246   5.590  1.00  0.00     0.253 A 
HETATM   16  H   UNL     1      44.856 -20.028   6.184  1.00  0.00     0.169 HD
HETATM   17  O   UNL     1      44.282 -17.722   6.691  1.00  0.00    -0.268 OA
ENDBRANCH   4   5
ENDBRANCH   1   4
BRANCH   1  18
HETATM   18  C   UNL     1      40.940 -15.692   3.886  1.00  0.00     0.158 C 
BRANCH  18  19
HETATM   19  C   UNL     1      40.133 -14.781   4.825  1.00  0.00     0.139 C 
HETATM   20  O   UNL     1      39.338 -13.865   4.041  1.00  0.00    -0.384 OA
HETATM   21  C   UNL     1      39.453 -12.556   4.619  1.00  0.00     0.168 C 
HETATM   22  C   UNL     1      40.065 -12.742   5.989  1.00  0.00     0.029 C 
HETATM   23  C   UNL     1      40.976 -13.921   5.755  1.00  0.00     0.035 C 
ENDBRANCH  18  19
ENDBRANCH   1  18
BRANCH   2  24
HETATM   24  C   UNL     1      42.143 -13.745   1.918  1.00  0.00     0.034 A 
HETATM   25  C   UNL     1      41.658 -14.535   0.865  1.00  0.00     0.053 A 
HETATM   26  C   UNL     1      40.855 -13.963  -0.122  1.00  0.00     0.069 A 
HETATM   27  C   UNL     1      40.556 -12.600  -0.059  1.00  0.00     0.037 A 
HETATM   28  C   UNL     1      41.009 -11.818   1.007  1.00  0.00     0.004 A 
HETATM   29  C   UNL     1      41.784 -12.396   2.011  1.00  0.00     0.017 A 
BRANCH  26  30
HETATM   30  O   UNL     1      40.316 -14.624  -1.192  1.00  0.00    -0.356 OA
HETATM   31  C   UNL     1      41.135 -14.716  -2.353  1.00  0.00     0.210 C 
ENDBRANCH  26  30
ENDBRANCH   2  24
TORSDOF 6
ENDMDL
MODEL 5
REMARK VINA RESULT:      -8.3      2.166      2.625
REMARK  6 active torsions:
REMARK  status: ('A' for Active; 'I' for Inactive)
REMARK    1  A    between atoms: C_6  and  C_7 
REMARK    2  A    between atoms: C_7  and  N_8 
REMARK       I    between atoms: N_8  and  C_9 
REMARK    3  A    between atoms: N_8  and  C_19 
REMARK    4  A    between atoms: C_9  and  C_10 
REMARK    5  A    between atoms: C_12  and  O_13 
REMARK    6  A    between atoms: C_19  and  C_20 
ROOT
HETATM    1  N   UNL     1      42.274 -15.813   3.226  1.00  0.00    -0.341 N 
HETATM    2  C   UNL     1      41.888 -17.156   3.233  1.00  0.00     0.254 C 
HETATM    3  O   UNL     1      40.747 -17.524   2.954  1.00  0.00    -0.267 OA
ENDROOT
BRANCH   1   4
HETATM    4  C   UNL     1      41.268 -14.833   2.796  1.00  0.00     0.170 C 
BRANCH   4   5
HETATM    5  C   UNL     1      41.395 -14.433   1.352  1.00  0.00     0.029 A 
HETATM    6  C   UNL     1      41.014 -15.131   0.267  1.00  0.00     0.028 A 
HETATM    7  C   UNL     1      41.167 -14.584  -1.082  1.00  0.00    -0.008 A 
HETATM    8  C   UNL     1      41.721 -13.305  -1.249  1.00  0.00     0.051 A 
HETATM    9  C   UNL     1      40.755 -15.309  -2.202  1.00  0.00     0.014 A 
HETATM   10  C   UNL     1      41.868 -12.743  -2.528  1.00  0.00    -0.034 A 
HETATM   11  N   UNL     1      42.125 -12.602  -0.105  1.00  0.00    -0.322 N 
HETATM   12  C   UNL     1      42.444 -11.372  -2.737  1.00  0.00     0.050 C 
HETATM   13  C   UNL     1      41.446 -13.489  -3.639  1.00  0.00     0.009 A 
HETATM   14  C   UNL     1      40.896 -14.762  -3.477  1.00  0.00     0.002 A 
HETATM   15  C   UNL     1      42.010 -13.081   1.169  1.00  0.00     0.253 A 
HETATM   16  H   UNL     1      42.533 -11.683  -0.185  1.00  0.00     0.169 HD
HETATM   17  O   UNL     1      42.407 -12.420   2.127  1.00  0.00    -0.268 OA
ENDBRANCH   4   5
ENDBRANCH   1   4
BRANCH   1  18
HETATM   18  C   UNL     1      43.543 -15.288   3.761  1.00  0.00     0.158 C 
BRANCH  18  19
HETATM   19  C   UNL     1      43.460 -14.679   5.169  1.00  0.00     0.139 C 
HETATM   20  O   UNL     1      44.452 -13.637   5.301  1.00  0.00    -0.384 OA
HETATM   21  C   UNL     1      45.102 -13.789   6.572  1.00  0.00     0.168 C 
HETATM   22  C   UNL     1      44.254 -14.746   7.379  1.00  0.00     0.029 C 
HETATM   23  C   UNL     1      43.723 -15.659   6.303  1.00  0.00     0.035 C 
ENDBRANCH  18  19
ENDBRANCH   1  18
BRANCH   2  24
HETATM   24  C   UNL     1      42.854 -18.223   3.586  1.00  0.00     0.034 A 
HETATM   25  C   UNL     1      42.921 -18.626   4.928  1.00  0.00     0.053 A 
HETATM   26  C   UNL     1      43.777 -19.662   5.302  1.00  0.00     0.069 A 
HETATM   27  C   UNL     1      44.576 -20.275   4.334  1.00  0.00     0.037 A 
HETATM   28  C   UNL     1      44.487 -19.899   2.992  1.00  0.00     0.004 A 
HETATM   29  C   UNL     1      43.607 -18.887   2.612  1.00  0.00     0.017 A 
BRANCH  26  30
HETATM   30  O   UNL     1      43.928 -20.151   6.571  1.00  0.00    -0.356 OA
HETATM   31  C   UNL     1      43.882 -19.194   7.624  1.00  0.00     0.210 C 
ENDBRANCH  26  30
ENDBRANCH   2  24
TORSDOF 6
ENDMDL
MODEL 6
REMARK VINA RESULT:      -8.2      2.475      5.002
REMARK  6 active torsions:
REMARK  status: ('A' for Active; 'I' for Inactive)
REMARK    1  A    between atoms: C_6  and  C_7 
REMARK    2  A    between atoms: C_7  and  N_8 
REMARK       I    between atoms: N_8  and  C_9 
REMARK    3  A    between atoms: N_8  and  C_19 
REMARK    4  A    between atoms: C_9  and  C_10 
REMARK    5  A    between atoms: C_12  and  O_13 
REMARK    6  A    between atoms: C_19  and  C_20 
ROOT
HETATM    1  N   UNL     1      41.567 -16.293   3.233  1.00  0.00    -0.341 N 
HETATM    2  C   UNL     1      41.259 -15.766   4.491  1.00  0.00     0.254 C 
HETATM    3  O   UNL     1      40.269 -15.062   4.694  1.00  0.00    -0.267 OA
ENDROOT
BRANCH   1   4
HETATM    4  C   UNL     1      40.612 -16.031   2.149  1.00  0.00     0.170 C 
BRANCH   4   5
HETATM    5  C   UNL     1      41.022 -14.901   1.245  1.00  0.00     0.029 A 
HETATM    6  C   UNL     1      41.115 -13.595   1.550  1.00  0.00     0.028 A 
HETATM    7  C   UNL     1      41.574 -12.614   0.564  1.00  0.00    -0.008 A 
HETATM    8  C   UNL     1      41.925 -13.044  -0.724  1.00  0.00     0.051 A 
HETATM    9  C   UNL     1      41.681 -11.262   0.894  1.00  0.00     0.014 A 
HETATM   10  C   UNL     1      42.384 -12.133  -1.690  1.00  0.00    -0.034 A 
HETATM   11  N   UNL     1      41.806 -14.408  -1.025  1.00  0.00    -0.322 N 
HETATM   12  C   UNL     1      42.780 -12.565  -3.073  1.00  0.00     0.050 C 
HETATM   13  C   UNL     1      42.486 -10.778  -1.337  1.00  0.00     0.009 A 
HETATM   14  C   UNL     1      42.136 -10.347  -0.056  1.00  0.00     0.002 A 
HETATM   15  C   UNL     1      41.372 -15.353  -0.138  1.00  0.00     0.253 A 
HETATM   16  H   UNL     1      42.043 -14.755  -1.942  1.00  0.00     0.169 HD
HETATM   17  O   UNL     1      41.269 -16.531  -0.476  1.00  0.00    -0.268 OA
ENDBRANCH   4   5
ENDBRANCH   1   4
BRANCH   1  18
HETATM   18  C   UNL     1      42.837 -16.948   2.873  1.00  0.00     0.158 C 
BRANCH  18  19
HETATM   19  C   UNL     1      42.814 -18.484   2.898  1.00  0.00     0.139 C 
HETATM   20  O   UNL     1      43.527 -18.958   4.061  1.00  0.00    -0.384 OA
HETATM   21  C   UNL     1      44.373 -20.047   3.661  1.00  0.00     0.168 C 
HETATM   22  C   UNL     1      43.912 -20.467   2.283  1.00  0.00     0.029 C 
HETATM   23  C   UNL     1      43.471 -19.150   1.697  1.00  0.00     0.035 C 
ENDBRANCH  18  19
ENDBRANCH   1  18
BRANCH   2  24
HETATM   24  C   UNL     1      42.125 -16.035   5.661  1.00  0.00     0.034 A 
HETATM   25  C   UNL     1      43.163 -15.130   5.928  1.00  0.00     0.053 A 
HETATM   26  C   UNL     1      43.975 -15.311   7.047  1.00  0.00     0.069 A 
HETATM   27  C   UNL     1      43.755 -16.408   7.884  1.00  0.00     0.037 A 
HETATM   28  C   UNL     1      42.701 -17.291   7.641  1.00  0.00     0.004 A 
HETATM   29  C   UNL     1      41.868 -17.092   6.541  1.00  0.00     0.017 A 
BRANCH  26  30
HETATM   30  O   UNL     1      45.012 -14.499   7.419  1.00  0.00    -0.356 OA
HETATM   31  C   UNL     1      44.654 -13.259   8.022  1.00  0.00     0.210 C 
ENDBRANCH  26  30
ENDBRANCH   2  24
TORSDOF 6
ENDMDL
MODEL 7
REMARK VINA RESULT:      -8.1      2.423      8.042
REMARK  6 active torsions:
REMARK  status: ('A' for Active; 'I' for Inactive)
REMARK    1  A    between atoms: C_6  and  C_7 
REMARK    2  A    between atoms: C_7  and  N_8 
REMARK       I    between atoms: N_8  and  C_9 
REMARK    3  A    between atoms: N_8  and  C_19 
REMARK    4  A    between atoms: C_9  and  C_10 
REMARK    5  A    between atoms: C_12  and  O_13 
REMARK    6  A    between atoms: C_19  and  C_20 
ROOT
HETATM    1  N   UNL     1      42.135 -14.976   2.971  1.00  0.00    -0.341 N 
HETATM    2  C   UNL     1      42.273 -13.780   3.682  1.00  0.00     0.254 C 
HETATM    3  O   UNL     1      43.366 -13.263   3.912  1.00  0.00    -0.267 OA
ENDROOT
BRANCH   1   4
HETATM    4  C   UNL     1      43.363 -15.575   2.432  1.00  0.00     0.170 C 
BRANCH   4   5
HETATM    5  C   UNL     1      43.646 -16.952   2.966  1.00  0.00     0.029 A 
HETATM    6  C   UNL     1      43.719 -17.337   4.253  1.00  0.00     0.028 A 
HETATM    7  C   UNL     1      43.962 -18.735   4.616  1.00  0.00    -0.008 A 
HETATM    8  C   UNL     1      44.121 -19.692   3.603  1.00  0.00     0.051 A 
HETATM    9  C   UNL     1      44.022 -19.128   5.954  1.00  0.00     0.014 A 
HETATM   10  C   UNL     1      44.340 -21.045   3.916  1.00  0.00    -0.034 A 
HETATM   11  N   UNL     1      44.057 -19.266   2.270  1.00  0.00    -0.322 N 
HETATM   12  C   UNL     1      44.501 -22.095   2.854  1.00  0.00     0.050 C 
HETATM   13  C   UNL     1      44.396 -21.419   5.267  1.00  0.00     0.009 A 
HETATM   14  C   UNL     1      44.239 -20.468   6.278  1.00  0.00     0.002 A 
HETATM   15  C   UNL     1      43.843 -17.971   1.888  1.00  0.00     0.253 A 
HETATM   16  H   UNL     1      44.172 -19.924   1.513  1.00  0.00     0.169 HD
HETATM   17  O   UNL     1      43.821 -17.662   0.699  1.00  0.00    -0.268 OA
ENDBRANCH   4   5
ENDBRANCH   1   4
BRANCH   1  18
HETATM   18  C   UNL     1      40.893 -15.759   2.854  1.00  0.00     0.158 C 
BRANCH  18  19
HETATM   19  C   UNL     1      40.088 -15.525   1.566  1.00  0.00     0.139 C 
HETATM   20  O   UNL     1      40.824 -14.642   0.692  1.00  0.00    -0.384 OA
HETATM   21  C   UNL     1      39.914 -13.667   0.162  1.00  0.00     0.168 C 
HETATM   22  C   UNL     1      38.520 -14.173   0.458  1.00  0.00     0.029 C 
HETATM   23  C   UNL     1      38.727 -14.877   1.775  1.00  0.00     0.035 C 
ENDBRANCH  18  19
ENDBRANCH   1  18
BRANCH   2  24
HETATM   24  C   UNL     1      41.085 -13.065   4.204  1.00  0.00     0.034 A 
HETATM   25  C   UNL     1      40.750 -13.253   5.553  1.00  0.00     0.053 A 
HETATM   26  C   UNL     1      39.671 -12.563   6.105  1.00  0.00     0.069 A 
HETATM   27  C   UNL     1      38.922 -11.702   5.299  1.00  0.00     0.037 A 
HETATM   28  C   UNL     1      39.274 -11.486   3.965  1.00  0.00     0.004 A 
HETATM   29  C   UNL     1      40.372 -12.151   3.421  1.00  0.00     0.017 A 
BRANCH  26  30
HETATM   30  O   UNL     1      39.248 -12.653   7.403  1.00  0.00    -0.356 OA
HETATM   31  C   UNL     1      39.413 -11.484   8.201  1.00  0.00     0.210 C 
ENDBRANCH  26  30
ENDBRANCH   2  24
TORSDOF 6
ENDMDL
MODEL 8
REMARK VINA RESULT:      -8.1      2.248      7.842
REMARK  6 active torsions:
REMARK  status: ('A' for Active; 'I' for Inactive)
REMARK    1  A    between atoms: C_6  and  C_7 
REMARK    2  A    between atoms: C_7  and  N_8 
REMARK       I    between atoms: N_8  and  C_9 
REMARK    3  A    between atoms: N_8  and  C_19 
REMARK    4  A    between atoms: C_9  and  C_10 
REMARK    5  A    between atoms: C_12  and  O_13 
REMARK    6  A    between atoms: C_19  and  C_20 
ROOT
HETATM    1  N   UNL     1      41.113 -14.779   0.755  1.00  0.00    -0.341 N 
HETATM    2  C   UNL     1      41.387 -14.338  -0.543  1.00  0.00     0.254 C 
HETATM    3  O   UNL     1      42.388 -13.678  -0.826  1.00  0.00    -0.267 OA
ENDROOT
BRANCH   1   4
HETATM    4  C   UNL     1      42.117 -14.483   1.785  1.00  0.00     0.170 C 
BRANCH   4   5
HETATM    5  C   UNL     1      42.675 -15.708   2.453  1.00  0.00     0.029 A 
HETATM    6  C   UNL     1      43.008 -16.879   1.881  1.00  0.00     0.028 A 
HETATM    7  C   UNL     1      43.584 -17.973   2.665  1.00  0.00    -0.008 A 
HETATM    8  C   UNL     1      43.794 -17.798   4.041  1.00  0.00     0.051 A 
HETATM    9  C   UNL     1      43.941 -19.180   2.060  1.00  0.00     0.014 A 
HETATM   10  C   UNL     1      44.359 -18.822   4.822  1.00  0.00    -0.034 A 
HETATM   11  N   UNL     1      43.425 -16.576   4.620  1.00  0.00    -0.322 N 
HETATM   12  C   UNL     1      44.609 -18.659   6.294  1.00  0.00     0.050 C 
HETATM   13  C   UNL     1      44.711 -20.026   4.193  1.00  0.00     0.009 A 
HETATM   14  C   UNL     1      44.502 -20.203   2.823  1.00  0.00     0.002 A 
HETATM   15  C   UNL     1      42.876 -15.535   3.926  1.00  0.00     0.253 A 
HETATM   16  H   UNL     1      43.555 -16.414   5.607  1.00  0.00     0.169 HD
HETATM   17  O   UNL     1      42.553 -14.497   4.501  1.00  0.00    -0.268 OA
ENDBRANCH   4   5
ENDBRANCH   1   4
BRANCH   1  18
HETATM   18  C   UNL     1      39.840 -15.371   1.201  1.00  0.00     0.158 C 
BRANCH  18  19
HETATM   19  C   UNL     1      38.811 -14.374   1.755  1.00  0.00     0.139 C 
HETATM   20  O   UNL     1      37.606 -14.434   0.960  1.00  0.00    -0.384 OA
HETATM   21  C   UNL     1      37.168 -13.093   0.698  1.00  0.00     0.168 C 
HETATM   22  C   UNL     1      37.939 -12.196   1.640  1.00  0.00     0.029 C 
HETATM   23  C   UNL     1      39.258 -12.920   1.735  1.00  0.00     0.035 C 
ENDBRANCH  18  19
ENDBRANCH   1  18
BRANCH   2  24
HETATM   24  C   UNL     1      40.468 -14.649  -1.662  1.00  0.00     0.034 A 
HETATM   25  C   UNL     1      39.443 -13.732  -1.940  1.00  0.00     0.053 A 
HETATM   26  C   UNL     1      38.583 -13.954  -3.015  1.00  0.00     0.069 A 
HETATM   27  C   UNL     1      38.741 -15.102  -3.796  1.00  0.00     0.037 A 
HETATM   28  C   UNL     1      39.782 -15.998  -3.543  1.00  0.00     0.004 A 
HETATM   29  C   UNL     1      40.663 -15.760  -2.489  1.00  0.00     0.017 A 
BRANCH  26  30
HETATM   30  O   UNL     1      37.552 -13.136  -3.392  1.00  0.00    -0.356 OA
HETATM   31  C   UNL     1      36.585 -13.707  -4.268  1.00  0.00     0.210 C 
ENDBRANCH  26  30
ENDBRANCH   2  24
TORSDOF 6
ENDMDL
MODEL 9
REMARK VINA RESULT:      -7.8      2.578      7.801
REMARK  6 active torsions:
REMARK  status: ('A' for Active; 'I' for Inactive)
REMARK    1  A    between atoms: C_6  and  C_7 
REMARK    2  A    between atoms: C_7  and  N_8 
REMARK       I    between atoms: N_8  and  C_9 
REMARK    3  A    between atoms: N_8  and  C_19 
REMARK    4  A    between atoms: C_9  and  C_10 
REMARK    5  A    between atoms: C_12  and  O_13 
REMARK    6  A    between atoms: C_19  and  C_20 
ROOT
HETATM    1  N   UNL     1      41.317 -14.683   2.025  1.00  0.00    -0.341 N 
HETATM    2  C   UNL     1      40.531 -14.243   0.956  1.00  0.00     0.254 C 
HETATM    3  O   UNL     1      39.465 -14.776   0.649  1.00  0.00    -0.267 OA
ENDROOT
BRANCH   1   4
HETATM    4  C   UNL     1      40.783 -15.786   2.835  1.00  0.00     0.170 C 
BRANCH   4   5
HETATM    5  C   UNL     1      41.727 -16.948   2.969  1.00  0.00     0.029 A 
HETATM    6  C   UNL     1      42.550 -17.225   3.996  1.00  0.00     0.028 A 
HETATM    7  C   UNL     1      43.385 -18.428   3.998  1.00  0.00    -0.008 A 
HETATM    8  C   UNL     1      43.325 -19.311   2.909  1.00  0.00     0.051 A 
HETATM    9  C   UNL     1      44.226 -18.716   5.074  1.00  0.00     0.014 A 
HETATM   10  C   UNL     1      44.100 -20.483   2.885  1.00  0.00    -0.034 A 
HETATM   11  N   UNL     1      42.471 -18.994   1.843  1.00  0.00    -0.322 N 
HETATM   12  C   UNL     1      44.047 -21.453   1.739  1.00  0.00     0.050 C 
HETATM   13  C   UNL     1      44.938 -20.753   3.977  1.00  0.00     0.009 A 
HETATM   14  C   UNL     1      45.001 -19.876   5.062  1.00  0.00     0.002 A 
HETATM   15  C   UNL     1      41.685 -17.877   1.797  1.00  0.00     0.253 A 
HETATM   16  H   UNL     1      42.405 -19.600   1.039  1.00  0.00     0.169 HD
HETATM   17  O   UNL     1      40.976 -17.648   0.819  1.00  0.00    -0.268 OA
ENDBRANCH   4   5
ENDBRANCH   1   4
BRANCH   1  18
HETATM   18  C   UNL     1      42.695 -14.242   2.306  1.00  0.00     0.158 C 
BRANCH  18  19
HETATM   19  C   UNL     1      42.846 -13.276   3.492  1.00  0.00     0.139 C 
HETATM   20  O   UNL     1      43.465 -13.967   4.599  1.00  0.00    -0.384 OA
HETATM   21  C   UNL     1      42.755 -13.627   5.799  1.00  0.00     0.168 C 
HETATM   22  C   UNL     1      41.887 -12.435   5.464  1.00  0.00     0.029 C 
HETATM   23  C   UNL     1      41.536 -12.712   4.024  1.00  0.00     0.035 C 
ENDBRANCH  18  19
ENDBRANCH   1  18
BRANCH   2  24
HETATM   24  C   UNL     1      40.954 -13.092   0.124  1.00  0.00     0.034 A 
HETATM   25  C   UNL     1      41.621 -13.366  -1.079  1.00  0.00     0.053 A 
HETATM   26  C   UNL     1      41.994 -12.319  -1.922  1.00  0.00     0.069 A 
HETATM   27  C   UNL     1      41.714 -11.002  -1.547  1.00  0.00     0.037 A 
HETATM   28  C   UNL     1      41.019 -10.729  -0.366  1.00  0.00     0.004 A 
HETATM   29  C   UNL     1      40.616 -11.777   0.460  1.00  0.00     0.017 A 
BRANCH  26  30
HETATM   30  O   UNL     1      42.641 -12.453  -3.120  1.00  0.00    -0.356 OA
HETATM   31  C   UNL     1      42.471 -11.387  -4.050  1.00  0.00     0.210 C 
ENDBRANCH  26  30
ENDBRANCH   2  24
TORSDOF 6
ENDMDL
MODEL 10
REMARK VINA RESULT:      -7.8      2.062      4.544
REMARK  6 active torsions:
REMARK  status: ('A' for Active; 'I' for Inactive)
REMARK    1  A    between atoms: C_6  and  C_7 
REMARK    2  A    between atoms: C_7  and  N_8 
REMARK       I    between atoms: N_8  and  C_9 
REMARK    3  A    between atoms: N_8  and  C_19 
REMARK    4  A    between atoms: C_9  and  C_10 
REMARK    5  A    between atoms: C_12  and  O_13 
REMARK    6  A    between atoms: C_19  and  C_20 
ROOT
HETATM    1  N   UNL     1      41.077 -15.706   3.465  1.00  0.00    -0.341 N 
HETATM    2  C   UNL     1      40.918 -15.372   4.813  1.00  0.00     0.254 C 
HETATM    3  O   UNL     1      39.927 -14.780   5.241  1.00  0.00    -0.267 OA
ENDROOT
BRANCH   1   4
HETATM    4  C   UNL     1      39.963 -15.381   2.563  1.00  0.00     0.170 C 
BRANCH   4   5
HETATM    5  C   UNL     1      40.402 -14.792   1.252  1.00  0.00     0.029 A 
HETATM    6  C   UNL     1      40.508 -15.413   0.063  1.00  0.00     0.028 A 
HETATM    7  C   UNL     1      40.911 -14.686  -1.142  1.00  0.00    -0.008 A 
HETATM    8  C   UNL     1      41.193 -13.315  -1.058  1.00  0.00     0.051 A 
HETATM    9  C   UNL     1      41.004 -15.336  -2.374  1.00  0.00     0.014 A 
HETATM   10  C   UNL     1      41.569 -12.583  -2.198  1.00  0.00    -0.034 A 
HETATM   11  N   UNL     1      41.092 -12.691   0.193  1.00  0.00    -0.322 N 
HETATM   12  C   UNL     1      41.863 -11.111  -2.142  1.00  0.00     0.050 C 
HETATM   13  C   UNL     1      41.654 -13.256  -3.426  1.00  0.00     0.009 A 
HETATM   14  C   UNL     1      41.376 -14.621  -3.513  1.00  0.00     0.002 A 
HETATM   15  C   UNL     1      40.729 -13.334   1.343  1.00  0.00     0.253 A 
HETATM   16  H   UNL     1      41.292 -11.707   0.295  1.00  0.00     0.169 HD
HETATM   17  O   UNL     1      40.683 -12.730   2.413  1.00  0.00    -0.268 OA
ENDBRANCH   4   5
ENDBRANCH   1   4
BRANCH   1  18
HETATM   18  C   UNL     1      42.320 -16.207   2.852  1.00  0.00     0.158 C 
BRANCH  18  19
HETATM   19  C   UNL     1      42.341 -17.713   2.548  1.00  0.00     0.139 C 
HETATM   20  O   UNL     1      42.754 -18.436   3.728  1.00  0.00    -0.384 OA
HETATM   21  C   UNL     1      43.708 -19.435   3.337  1.00  0.00     0.168 C 
HETATM   22  C   UNL     1      43.624 -19.545   1.831  1.00  0.00     0.029 C 
HETATM   23  C   UNL     1      43.302 -18.124   1.442  1.00  0.00     0.035 C 
ENDBRANCH  18  19
ENDBRANCH   1  18
BRANCH   2  24
HETATM   24  C   UNL     1      41.956 -15.722   5.810  1.00  0.00     0.034 A 
HETATM   25  C   UNL     1      43.021 -14.826   5.986  1.00  0.00     0.053 A 
HETATM   26  C   UNL     1      43.997 -15.084   6.948  1.00  0.00     0.069 A 
HETATM   27  C   UNL     1      43.912 -16.248   7.717  1.00  0.00     0.037 A 
HETATM   28  C   UNL     1      42.835 -17.124   7.568  1.00  0.00     0.004 A 
HETATM   29  C   UNL     1      41.841 -16.850   6.630  1.00  0.00     0.017 A 
BRANCH  26  30
HETATM   30  O   UNL     1      45.077 -14.289   7.221  1.00  0.00    -0.356 OA
HETATM   31  C   UNL     1      44.844 -13.189   8.095  1.00  0.00     0.210 C 
ENDBRANCH  26  30
ENDBRANCH   2  24
TORSDOF 6
ENDMDL
