MODEL 1
REMARK VINA RESULT:      -8.2      0.000      0.000
REMARK  9 active torsions:
REMARK  status: ('A' for Active; 'I' for Inactive)
REMARK    1  A    between atoms: O_2  and  C_3 
REMARK    2  A    between atoms: C_5  and  C_15 
REMARK    3  A    between atoms: C_8  and  C_9 
REMARK       I    between atoms: C_15  and  N_17 
REMARK    4  A    between atoms: N_17  and  C_18 
REMARK    5  A    between atoms: C_18  and  C_19 
REMARK    6  A    between atoms: C_18  and  C_27 
REMARK    7  A    between atoms: C_19  and  N_20 
REMARK    8  A    between atoms: N_20  and  S_21 
REMARK    9  A    between atoms: S_21  and  C_24 
ROOT
HETATM    1  C   UNL     1      44.757 -12.896   8.371  1.00  0.00     0.252 C 
HETATM    2  O   UNL     1      45.936 -12.793   8.050  1.00  0.00    -0.268 OA
HETATM    3  N   UNL     1      43.859 -13.641   7.639  1.00  0.00    -0.347 N 
HETATM    4  H   UNL     1      42.913 -13.794   7.956  1.00  0.00     0.163 HD
ENDROOT
BRANCH   3   5
HETATM    5  C   UNL     1      44.308 -14.411   6.470  1.00  0.00     0.132 C 
BRANCH   5   6
HETATM    6  C   UNL     1      43.523 -13.968   5.201  1.00  0.00     0.134 C 
BRANCH   6   7
HETATM    7  N   UNL     1      42.081 -13.760   5.521  1.00  0.00    -0.217 NA
HETATM    8  H   UNL     1      41.738 -12.877   5.138  1.00  0.00     0.139 HD
BRANCH   7   9
HETATM    9  S   UNL     1      41.022 -14.990   5.061  1.00  0.00     0.213 S 
HETATM   10  O   UNL     1      40.561 -15.589   6.293  1.00  0.00    -0.211 OA
HETATM   11  O   UNL     1      40.097 -14.421   4.109  1.00  0.00    -0.211 OA
BRANCH   9  12
HETATM   12  C   UNL     1      42.002 -16.213   4.144  1.00  0.00     0.124 A 
HETATM   13  C   UNL     1      41.713 -17.645   4.511  1.00  0.00     0.023 A 
HETATM   14  C   UNL     1      41.222 -17.089   3.202  1.00  0.00     0.023 A 
ENDBRANCH   9  12
ENDBRANCH   7   9
ENDBRANCH   6   7
ENDBRANCH   5   6
BRANCH   5  15
HETATM   15  C   UNL     1      44.311 -15.902   6.804  1.00  0.00    -0.034 A 
HETATM   16  C   UNL     1      45.108 -16.842   6.133  1.00  0.00     0.009 A 
HETATM   17  C   UNL     1      45.090 -18.194   6.495  1.00  0.00     0.001 A 
HETATM   18  C   UNL     1      44.277 -18.629   7.536  1.00  0.00     0.000 A 
HETATM   19  C   UNL     1      43.489 -17.715   8.226  1.00  0.00     0.001 A 
HETATM   20  C   UNL     1      43.513 -16.364   7.870  1.00  0.00     0.009 A 
ENDBRANCH   5  15
ENDBRANCH   3   5
BRANCH   1  21
HETATM   21  C   UNL     1      44.264 -12.241   9.618  1.00  0.00     0.034 A 
HETATM   22  C   UNL     1      43.485 -11.080   9.476  1.00  0.00     0.054 A 
HETATM   23  C   UNL     1      42.988 -10.398  10.593  1.00  0.00     0.080 A 
HETATM   24  C   UNL     1      43.269 -10.891  11.885  1.00  0.00     0.010 A 
HETATM   25  C   UNL     1      44.038 -12.062  12.017  1.00  0.00     0.016 A 
HETATM   26  C   UNL     1      44.531 -12.735  10.895  1.00  0.00     0.018 A 
BRANCH  23  27
HETATM   27  O   UNL     1      42.240  -9.250  10.514  1.00  0.00    -0.355 OA
HETATM   28  C   UNL     1      40.926  -9.342   9.980  1.00  0.00     0.210 C 
ENDBRANCH  23  27
BRANCH  24  29
HETATM   29  C   UNL     1      42.768 -10.234  13.086  1.00  0.00     0.013 A 
HETATM   30  C   UNL     1      41.547 -10.383  13.785  1.00  0.00     0.152 A 
HETATM   31  N   UNL     1      41.464  -9.591  14.859  1.00  0.00    -0.187 NA
HETATM   32  N   UNL     1      42.625  -8.917  14.839  1.00  0.00    -0.289 N 
HETATM   33  H   UNL     1      42.791  -8.229  15.565  1.00  0.00     0.188 HD
HETATM   34  C   UNL     1      43.443  -9.270  13.804  1.00  0.00     0.123 A 
ENDBRANCH  24  29
ENDBRANCH   1  21
TORSDOF 9
ENDMDL
MODEL 2
REMARK VINA RESULT:      -7.8      4.923     10.493
REMARK  9 active torsions:
REMARK  status: ('A' for Active; 'I' for Inactive)
REMARK    1  A    between atoms: O_2  and  C_3 
REMARK    2  A    between atoms: C_5  and  C_15 
REMARK    3  A    between atoms: C_8  and  C_9 
REMARK       I    between atoms: C_15  and  N_17 
REMARK    4  A    between atoms: N_17  and  C_18 
REMARK    5  A    between atoms: C_18  and  C_19 
REMARK    6  A    between atoms: C_18  and  C_27 
REMARK    7  A    between atoms: C_19  and  N_20 
REMARK    8  A    between atoms: N_20  and  S_21 
REMARK    9  A    between atoms: S_21  and  C_24 
ROOT
HETATM    1  C   UNL     1      41.176 -16.289   1.984  1.00  0.00     0.252 C 
HETATM    2  O   UNL     1      40.131 -16.893   2.202  1.00  0.00    -0.268 OA
HETATM    3  N   UNL     1      42.296 -16.455   2.769  1.00  0.00    -0.347 N 
HETATM    4  H   UNL     1      43.177 -16.023   2.533  1.00  0.00     0.163 HD
ENDROOT
BRANCH   3   5
HETATM    5  C   UNL     1      42.299 -17.433   3.866  1.00  0.00     0.132 C 
BRANCH   5   6
HETATM    6  C   UNL     1      42.714 -16.744   5.199  1.00  0.00     0.134 C 
BRANCH   6   7
HETATM    7  N   UNL     1      42.108 -15.385   5.298  1.00  0.00    -0.217 NA
HETATM    8  H   UNL     1      41.439 -15.330   6.070  1.00  0.00     0.139 HD
BRANCH   7   9
HETATM    9  S   UNL     1      43.180 -14.088   5.427  1.00  0.00     0.213 S 
HETATM   10  O   UNL     1      43.812 -13.974   4.132  1.00  0.00    -0.211 OA
HETATM   11  O   UNL     1      42.446 -12.986   6.005  1.00  0.00    -0.211 OA
BRANCH   9  12
HETATM   12  C   UNL     1      44.432 -14.561   6.654  1.00  0.00     0.124 A 
HETATM   13  C   UNL     1      45.633 -13.653   6.699  1.00  0.00     0.023 A 
HETATM   14  C   UNL     1      44.607 -13.601   7.799  1.00  0.00     0.023 A 
ENDBRANCH   9  12
ENDBRANCH   7   9
ENDBRANCH   6   7
ENDBRANCH   5   6
BRANCH   5  15
HETATM   15  C   UNL     1      43.084 -18.675   3.448  1.00  0.00    -0.034 A 
HETATM   16  C   UNL     1      42.919 -19.313   2.209  1.00  0.00     0.009 A 
HETATM   17  C   UNL     1      43.682 -20.435   1.867  1.00  0.00     0.001 A 
HETATM   18  C   UNL     1      44.625 -20.938   2.756  1.00  0.00     0.000 A 
HETATM   19  C   UNL     1      44.818 -20.315   3.984  1.00  0.00     0.001 A 
HETATM   20  C   UNL     1      44.062 -19.190   4.322  1.00  0.00     0.009 A 
ENDBRANCH   5  15
ENDBRANCH   3   5
BRANCH   1  21
HETATM   21  C   UNL     1      41.278 -15.374   0.810  1.00  0.00     0.034 A 
HETATM   22  C   UNL     1      41.168 -15.946  -0.469  1.00  0.00     0.054 A 
HETATM   23  C   UNL     1      41.260 -15.161  -1.625  1.00  0.00     0.080 A 
HETATM   24  C   UNL     1      41.458 -13.770  -1.502  1.00  0.00     0.010 A 
HETATM   25  C   UNL     1      41.553 -13.204  -0.217  1.00  0.00     0.016 A 
HETATM   26  C   UNL     1      41.462 -13.996   0.931  1.00  0.00     0.018 A 
BRANCH  23  27
HETATM   27  O   UNL     1      41.181 -15.669  -2.898  1.00  0.00    -0.355 OA
HETATM   28  C   UNL     1      39.903 -16.057  -3.385  1.00  0.00     0.210 C 
ENDBRANCH  23  27
BRANCH  24  29
HETATM   29  C   UNL     1      41.547 -12.898  -2.667  1.00  0.00     0.013 A 
HETATM   30  C   UNL     1      40.539 -12.281  -3.445  1.00  0.00     0.152 A 
HETATM   31  N   UNL     1      41.033 -11.544  -4.445  1.00  0.00    -0.187 NA
HETATM   32  N   UNL     1      42.360 -11.704  -4.322  1.00  0.00    -0.289 N 
HETATM   33  H   UNL     1      42.961 -11.240  -4.994  1.00  0.00     0.188 HD
HETATM   34  C   UNL     1      42.720 -12.497  -3.271  1.00  0.00     0.123 A 
ENDBRANCH  24  29
ENDBRANCH   1  21
TORSDOF 9
ENDMDL
MODEL 3
REMARK VINA RESULT:      -7.8      5.236      9.392
REMARK  9 active torsions:
REMARK  status: ('A' for Active; 'I' for Inactive)
REMARK    1  A    between atoms: O_2  and  C_3 
REMARK    2  A    between atoms: C_5  and  C_15 
REMARK    3  A    between atoms: C_8  and  C_9 
REMARK       I    between atoms: C_15  and  N_17 
REMARK    4  A    between atoms: N_17  and  C_18 
REMARK    5  A    between atoms: C_18  and  C_19 
REMARK    6  A    between atoms: C_18  and  C_27 
REMARK    7  A    between atoms: C_19  and  N_20 
REMARK    8  A    between atoms: N_20  and  S_21 
REMARK    9  A    between atoms: S_21  and  C_24 
ROOT
HETATM    1  C   UNL     1      42.309 -17.392   3.430  1.00  0.00     0.252 C 
HETATM    2  O   UNL     1      41.361 -17.750   4.121  1.00  0.00    -0.268 OA
HETATM    3  N   UNL     1      43.591 -17.843   3.651  1.00  0.00    -0.347 N 
HETATM    4  H   UNL     1      44.349 -17.614   3.025  1.00  0.00     0.163 HD
ENDROOT
BRANCH   3   5
HETATM    5  C   UNL     1      43.859 -18.844   4.693  1.00  0.00     0.132 C 
BRANCH   5   6
HETATM    6  C   UNL     1      44.877 -18.282   5.729  1.00  0.00     0.134 C 
BRANCH   6   7
HETATM    7  N   UNL     1      44.260 -18.208   7.085  1.00  0.00    -0.217 NA
HETATM    8  H   UNL     1      44.953 -18.366   7.819  1.00  0.00     0.139 HD
BRANCH   7   9
HETATM    9  S   UNL     1      43.407 -16.799   7.449  1.00  0.00     0.213 S 
HETATM   10  O   UNL     1      42.034 -17.070   7.090  1.00  0.00    -0.211 OA
HETATM   11  O   UNL     1      43.771 -16.417   8.794  1.00  0.00    -0.211 OA
BRANCH   9  12
HETATM   12  C   UNL     1      44.054 -15.496   6.362  1.00  0.00     0.124 A 
HETATM   13  C   UNL     1      43.196 -14.260   6.293  1.00  0.00     0.023 A 
HETATM   14  C   UNL     1      44.493 -14.237   7.056  1.00  0.00     0.023 A 
ENDBRANCH   9  12
ENDBRANCH   7   9
ENDBRANCH   6   7
ENDBRANCH   5   6
BRANCH   5  15
HETATM   15  C   UNL     1      44.191 -20.188   4.046  1.00  0.00    -0.034 A 
HETATM   16  C   UNL     1      44.605 -21.314   4.773  1.00  0.00     0.009 A 
HETATM   17  C   UNL     1      44.874 -22.529   4.133  1.00  0.00     0.001 A 
HETATM   18  C   UNL     1      44.733 -22.639   2.753  1.00  0.00     0.000 A 
HETATM   19  C   UNL     1      44.311 -21.541   2.012  1.00  0.00     0.001 A 
HETATM   20  C   UNL     1      44.034 -20.331   2.653  1.00  0.00     0.009 A 
ENDBRANCH   5  15
ENDBRANCH   3   5
BRANCH   1  21
HETATM   21  C   UNL     1      42.084 -16.473   2.276  1.00  0.00     0.034 A 
HETATM   22  C   UNL     1      42.360 -15.109   2.470  1.00  0.00     0.054 A 
HETATM   23  C   UNL     1      42.169 -14.177   1.442  1.00  0.00     0.080 A 
HETATM   24  C   UNL     1      41.699 -14.618   0.187  1.00  0.00     0.010 A 
HETATM   25  C   UNL     1      41.439 -15.988  -0.002  1.00  0.00     0.016 A 
HETATM   26  C   UNL     1      41.631 -16.911   1.030  1.00  0.00     0.018 A 
BRANCH  23  27
HETATM   27  O   UNL     1      42.403 -12.832   1.582  1.00  0.00    -0.355 OA
HETATM   28  C   UNL     1      41.438 -12.052   2.276  1.00  0.00     0.210 C 
ENDBRANCH  23  27
BRANCH  24  29
HETATM   29  C   UNL     1      41.495 -13.699  -0.926  1.00  0.00     0.013 A 
HETATM   30  C   UNL     1      42.416 -13.103  -1.818  1.00  0.00     0.152 A 
HETATM   31  N   UNL     1      41.828 -12.308  -2.718  1.00  0.00    -0.187 NA
HETATM   32  N   UNL     1      40.528 -12.378  -2.391  1.00  0.00    -0.289 N 
HETATM   33  H   UNL     1      39.868 -11.834  -2.935  1.00  0.00     0.188 HD
HETATM   34  C   UNL     1      40.275 -13.202  -1.332  1.00  0.00     0.123 A 
ENDBRANCH  24  29
ENDBRANCH   1  21
TORSDOF 9
ENDMDL
MODEL 4
REMARK VINA RESULT:      -7.7      5.342     10.090
REMARK  9 active torsions:
REMARK  status: ('A' for Active; 'I' for Inactive)
REMARK    1  A    between atoms: O_2  and  C_3 
REMARK    2  A    between atoms: C_5  and  C_15 
REMARK    3  A    between atoms: C_8  and  C_9 
REMARK       I    between atoms: C_15  and  N_17 
REMARK    4  A    between atoms: N_17  and  C_18 
REMARK    5  A    between atoms: C_18  and  C_19 
REMARK    6  A    between atoms: C_18  and  C_27 
REMARK    7  A    between atoms: C_19  and  N_20 
REMARK    8  A    between atoms: N_20  and  S_21 
REMARK    9  A    between atoms: S_21  and  C_24 
ROOT
HETATM    1  C   UNL     1      41.450 -16.810   2.680  1.00  0.00     0.252 C 
HETATM    2  O   UNL     1      40.637 -16.904   3.593  1.00  0.00    -0.268 OA
HETATM    3  N   UNL     1      42.695 -17.397   2.743  1.00  0.00    -0.347 N 
HETATM    4  H   UNL     1      43.324 -17.391   1.953  1.00  0.00     0.163 HD
ENDROOT
BRANCH   3   5
HETATM    5  C   UNL     1      43.067 -18.232   3.893  1.00  0.00     0.132 C 
BRANCH   5   6
HETATM    6  C   UNL     1      43.961 -17.422   4.877  1.00  0.00     0.134 C 
BRANCH   6   7
HETATM    7  N   UNL     1      43.126 -16.525   5.728  1.00  0.00    -0.217 NA
HETATM    8  H   UNL     1      43.271 -16.713   6.722  1.00  0.00     0.139 HD
BRANCH   7   9
HETATM    9  S   UNL     1      43.295 -14.867   5.467  1.00  0.00     0.213 S 
HETATM   10  O   UNL     1      44.172 -14.395   6.515  1.00  0.00    -0.211 OA
HETATM   11  O   UNL     1      43.626 -14.687   4.072  1.00  0.00    -0.211 OA
BRANCH   9  12
HETATM   12  C   UNL     1      41.653 -14.128   5.697  1.00  0.00     0.124 A 
HETATM   13  C   UNL     1      41.649 -12.622   5.746  1.00  0.00     0.023 A 
HETATM   14  C   UNL     1      41.132 -13.338   4.527  1.00  0.00     0.023 A 
ENDBRANCH   9  12
ENDBRANCH   7   9
ENDBRANCH   6   7
ENDBRANCH   5   6
BRANCH   5  15
HETATM   15  C   UNL     1      43.607 -19.575   3.404  1.00  0.00    -0.034 A 
HETATM   16  C   UNL     1      44.404 -20.421   4.191  1.00  0.00     0.009 A 
HETATM   17  C   UNL     1      44.853 -21.652   3.701  1.00  0.00     0.001 A 
HETATM   18  C   UNL     1      44.512 -22.061   2.417  1.00  0.00     0.000 A 
HETATM   19  C   UNL     1      43.712 -21.247   1.622  1.00  0.00     0.001 A 
HETATM   20  C   UNL     1      43.257 -20.022   2.114  1.00  0.00     0.009 A 
ENDBRANCH   5  15
ENDBRANCH   3   5
BRANCH   1  21
HETATM   21  C   UNL     1      41.087 -16.081   1.430  1.00  0.00     0.034 A 
HETATM   22  C   UNL     1      40.079 -15.105   1.518  1.00  0.00     0.054 A 
HETATM   23  C   UNL     1      39.671 -14.380   0.391  1.00  0.00     0.080 A 
HETATM   24  C   UNL     1      40.290 -14.628  -0.852  1.00  0.00     0.010 A 
HETATM   25  C   UNL     1      41.308 -15.596  -0.928  1.00  0.00     0.016 A 
HETATM   26  C   UNL     1      41.707 -16.317   0.202  1.00  0.00     0.018 A 
BRANCH  23  27
HETATM   27  O   UNL     1      38.680 -13.431   0.416  1.00  0.00    -0.355 OA
HETATM   28  C   UNL     1      37.363 -13.847   0.754  1.00  0.00     0.210 C 
ENDBRANCH  23  27
BRANCH  24  29
HETATM   29  C   UNL     1      39.920 -13.895  -2.056  1.00  0.00     0.013 A 
HETATM   30  C   UNL     1      40.450 -12.713  -2.624  1.00  0.00     0.152 A 
HETATM   31  N   UNL     1      39.830 -12.355  -3.752  1.00  0.00    -0.187 NA
HETATM   32  N   UNL     1      38.886 -13.297  -3.900  1.00  0.00    -0.289 N 
HETATM   33  H   UNL     1      38.264 -13.230  -4.698  1.00  0.00     0.188 HD
HETATM   34  C   UNL     1      38.902 -14.245  -2.918  1.00  0.00     0.123 A 
ENDBRANCH  24  29
ENDBRANCH   1  21
TORSDOF 9
ENDMDL
MODEL 5
REMARK VINA RESULT:      -7.7      5.629     10.436
REMARK  9 active torsions:
REMARK  status: ('A' for Active; 'I' for Inactive)
REMARK    1  A    between atoms: O_2  and  C_3 
REMARK    2  A    between atoms: C_5  and  C_15 
REMARK    3  A    between atoms: C_8  and  C_9 
REMARK       I    between atoms: C_15  and  N_17 
REMARK    4  A    between atoms: N_17  and  C_18 
REMARK    5  A    between atoms: C_18  and  C_19 
REMARK    6  A    between atoms: C_18  and  C_27 
REMARK    7  A    between atoms: C_19  and  N_20 
REMARK    8  A    between atoms: N_20  and  S_21 
REMARK    9  A    between atoms: S_21  and  C_24 
ROOT
HETATM    1  C   UNL     1      41.067 -16.375   1.962  1.00  0.00     0.252 C 
HETATM    2  O   UNL     1      39.990 -16.908   2.208  1.00  0.00    -0.268 OA
HETATM    3  N   UNL     1      42.200 -16.634   2.702  1.00  0.00    -0.347 N 
HETATM    4  H   UNL     1      43.101 -16.261   2.441  1.00  0.00     0.163 HD
ENDROOT
BRANCH   3   5
HETATM    5  C   UNL     1      42.173 -17.630   3.782  1.00  0.00     0.132 C 
BRANCH   5   6
HETATM    6  C   UNL     1      42.413 -16.939   5.156  1.00  0.00     0.134 C 
BRANCH   6   7
HETATM    7  N   UNL     1      43.351 -15.789   5.009  1.00  0.00    -0.217 NA
HETATM    8  H   UNL     1      43.828 -15.811   4.104  1.00  0.00     0.139 HD
BRANCH   7   9
HETATM    9  S   UNL     1      42.699 -14.250   5.234  1.00  0.00     0.213 S 
HETATM   10  O   UNL     1      43.389 -13.697   6.377  1.00  0.00    -0.211 OA
HETATM   11  O   UNL     1      42.720 -13.587   3.950  1.00  0.00    -0.211 OA
BRANCH   9  12
HETATM   12  C   UNL     1      40.948 -14.477   5.656  1.00  0.00     0.124 A 
HETATM   13  C   UNL     1      40.184 -13.195   5.854  1.00  0.00     0.023 A 
HETATM   14  C   UNL     1      39.968 -14.017   4.612  1.00  0.00     0.023 A 
ENDBRANCH   9  12
ENDBRANCH   7   9
ENDBRANCH   6   7
ENDBRANCH   5   6
BRANCH   5  15
HETATM   15  C   UNL     1      43.080 -18.806   3.423  1.00  0.00    -0.034 A 
HETATM   16  C   UNL     1      44.053 -19.324   4.292  1.00  0.00     0.009 A 
HETATM   17  C   UNL     1      44.842 -20.419   3.922  1.00  0.00     0.001 A 
HETATM   18  C   UNL     1      44.671 -21.016   2.677  1.00  0.00     0.000 A 
HETATM   19  C   UNL     1      43.705 -20.529   1.804  1.00  0.00     0.001 A 
HETATM   20  C   UNL     1      42.912 -19.442   2.176  1.00  0.00     0.009 A 
ENDBRANCH   5  15
ENDBRANCH   3   5
BRANCH   1  21
HETATM   21  C   UNL     1      41.192 -15.448   0.800  1.00  0.00     0.034 A 
HETATM   22  C   UNL     1      41.109 -16.006  -0.487  1.00  0.00     0.054 A 
HETATM   23  C   UNL     1      41.224 -15.209  -1.633  1.00  0.00     0.080 A 
HETATM   24  C   UNL     1      41.418 -13.818  -1.491  1.00  0.00     0.010 A 
HETATM   25  C   UNL     1      41.486 -13.266  -0.198  1.00  0.00     0.016 A 
HETATM   26  C   UNL     1      41.372 -14.070   0.940  1.00  0.00     0.018 A 
BRANCH  23  27
HETATM   27  O   UNL     1      41.170 -15.703  -2.912  1.00  0.00    -0.355 OA
HETATM   28  C   UNL     1      39.907 -16.112  -3.420  1.00  0.00     0.210 C 
ENDBRANCH  23  27
BRANCH  24  29
HETATM   29  C   UNL     1      41.529 -12.934  -2.645  1.00  0.00     0.013 A 
HETATM   30  C   UNL     1      40.537 -12.301  -3.428  1.00  0.00     0.152 A 
HETATM   31  N   UNL     1      41.049 -11.556  -4.413  1.00  0.00    -0.187 NA
HETATM   32  N   UNL     1      42.373 -11.728  -4.275  1.00  0.00    -0.289 N 
HETATM   33  H   UNL     1      42.987 -11.262  -4.934  1.00  0.00     0.188 HD
HETATM   34  C   UNL     1      42.713 -12.536  -3.228  1.00  0.00     0.123 A 
ENDBRANCH  24  29
ENDBRANCH   1  21
TORSDOF 9
ENDMDL
MODEL 6
REMARK VINA RESULT:      -7.7      4.690      9.949
REMARK  9 active torsions:
REMARK  status: ('A' for Active; 'I' for Inactive)
REMARK    1  A    between atoms: O_2  and  C_3 
REMARK    2  A    between atoms: C_5  and  C_15 
REMARK    3  A    between atoms: C_8  and  C_9 
REMARK       I    between atoms: C_15  and  N_17 
REMARK    4  A    between atoms: N_17  and  C_18 
REMARK    5  A    between atoms: C_18  and  C_19 
REMARK    6  A    between atoms: C_18  and  C_27 
REMARK    7  A    between atoms: C_19  and  N_20 
REMARK    8  A    between atoms: N_20  and  S_21 
REMARK    9  A    between atoms: S_21  and  C_24 
ROOT
HETATM    1  C   UNL     1      41.703 -16.503   2.468  1.00  0.00     0.252 C 
HETATM    2  O   UNL     1      40.701 -16.597   3.169  1.00  0.00    -0.268 OA
HETATM    3  N   UNL     1      42.869 -17.174   2.762  1.00  0.00    -0.347 N 
HETATM    4  H   UNL     1      43.660 -17.163   2.135  1.00  0.00     0.163 HD
ENDROOT
BRANCH   3   5
HETATM    5  C   UNL     1      42.929 -18.098   3.903  1.00  0.00     0.132 C 
BRANCH   5   6
HETATM    6  C   UNL     1      43.601 -17.402   5.123  1.00  0.00     0.134 C 
BRANCH   6   7
HETATM    7  N   UNL     1      42.695 -16.369   5.702  1.00  0.00    -0.217 NA
HETATM    8  H   UNL     1      42.416 -16.610   6.656  1.00  0.00     0.139 HD
BRANCH   7   9
HETATM    9  S   UNL     1      43.261 -14.779   5.696  1.00  0.00     0.213 S 
HETATM   10  O   UNL     1      43.885 -14.593   4.406  1.00  0.00    -0.211 OA
HETATM   11  O   UNL     1      42.171 -13.938   6.133  1.00  0.00    -0.211 OA
BRANCH   9  12
HETATM   12  C   UNL     1      44.532 -14.669   6.987  1.00  0.00     0.124 A 
HETATM   13  C   UNL     1      45.571 -13.605   6.749  1.00  0.00     0.023 A 
HETATM   14  C   UNL     1      44.515 -13.404   7.802  1.00  0.00     0.023 A 
ENDBRANCH   9  12
ENDBRANCH   7   9
ENDBRANCH   6   7
ENDBRANCH   5   6
BRANCH   5  15
HETATM   15  C   UNL     1      43.514 -19.437   3.454  1.00  0.00    -0.034 A 
HETATM   16  C   UNL     1      44.329 -20.236   4.270  1.00  0.00     0.009 A 
HETATM   17  C   UNL     1      44.819 -21.466   3.817  1.00  0.00     0.001 A 
HETATM   18  C   UNL     1      44.502 -21.919   2.541  1.00  0.00     0.000 A 
HETATM   19  C   UNL     1      43.685 -21.152   1.719  1.00  0.00     0.001 A 
HETATM   20  C   UNL     1      43.189 -19.928   2.174  1.00  0.00     0.009 A 
ENDBRANCH   5  15
ENDBRANCH   3   5
BRANCH   1  21
HETATM   21  C   UNL     1      41.669 -15.680   1.224  1.00  0.00     0.034 A 
HETATM   22  C   UNL     1      42.020 -14.323   1.335  1.00  0.00     0.054 A 
HETATM   23  C   UNL     1      42.007 -13.477   0.219  1.00  0.00     0.080 A 
HETATM   24  C   UNL     1      41.643 -13.999  -1.040  1.00  0.00     0.010 A 
HETATM   25  C   UNL     1      41.306 -15.361  -1.144  1.00  0.00     0.016 A 
HETATM   26  C   UNL     1      41.320 -16.198  -0.024  1.00  0.00     0.018 A 
BRANCH  23  27
HETATM   27  O   UNL     1      42.322 -12.142   0.274  1.00  0.00    -0.355 OA
HETATM   28  C   UNL     1      41.566 -11.311   1.145  1.00  0.00     0.210 C 
ENDBRANCH  23  27
BRANCH  24  29
HETATM   29  C   UNL     1      41.626 -13.172  -2.240  1.00  0.00     0.013 A 
HETATM   30  C   UNL     1      40.558 -12.530  -2.910  1.00  0.00     0.152 A 
HETATM   31  N   UNL     1      40.957 -11.852  -3.992  1.00  0.00    -0.187 NA
HETATM   32  N   UNL     1      42.279 -12.076  -4.029  1.00  0.00    -0.289 N 
HETATM   33  H   UNL     1      42.812 -11.666  -4.788  1.00  0.00     0.188 HD
HETATM   34  C   UNL     1      42.731 -12.852  -3.000  1.00  0.00     0.123 A 
ENDBRANCH  24  29
ENDBRANCH   1  21
TORSDOF 9
ENDMDL
MODEL 7
REMARK VINA RESULT:      -7.4      7.023     10.348
REMARK  9 active torsions:
REMARK  status: ('A' for Active; 'I' for Inactive)
REMARK    1  A    between atoms: O_2  and  C_3 
REMARK    2  A    between atoms: C_5  and  C_15 
REMARK    3  A    between atoms: C_8  and  C_9 
REMARK       I    between atoms: C_15  and  N_17 
REMARK    4  A    between atoms: N_17  and  C_18 
REMARK    5  A    between atoms: C_18  and  C_19 
REMARK    6  A    between atoms: C_18  and  C_27 
REMARK    7  A    between atoms: C_19  and  N_20 
REMARK    8  A    between atoms: N_20  and  S_21 
REMARK    9  A    between atoms: S_21  and  C_24 
ROOT
HETATM    1  C   UNL     1      42.984 -14.592   2.511  1.00  0.00     0.252 C 
HETATM    2  O   UNL     1      43.651 -13.808   3.179  1.00  0.00    -0.268 OA
HETATM    3  N   UNL     1      41.972 -14.169   1.678  1.00  0.00    -0.347 N 
HETATM    4  H   UNL     1      41.487 -14.808   1.066  1.00  0.00     0.163 HD
ENDROOT
BRANCH   3   5
HETATM    5  C   UNL     1      41.703 -12.735   1.502  1.00  0.00     0.132 C 
BRANCH   5   6
HETATM    6  C   UNL     1      40.278 -12.388   2.027  1.00  0.00     0.134 C 
BRANCH   6   7
HETATM    7  N   UNL     1      39.334 -13.512   1.764  1.00  0.00    -0.217 NA
HETATM    8  H   UNL     1      39.052 -13.973   2.632  1.00  0.00     0.139 HD
BRANCH   7   9
HETATM    9  S   UNL     1      37.945 -13.139   0.882  1.00  0.00     0.213 S 
HETATM   10  O   UNL     1      37.133 -14.334   0.908  1.00  0.00    -0.211 OA
HETATM   11  O   UNL     1      37.446 -11.880   1.386  1.00  0.00    -0.211 OA
BRANCH   9  12
HETATM   12  C   UNL     1      38.474 -12.824  -0.826  1.00  0.00     0.124 A 
HETATM   13  C   UNL     1      37.435 -12.157  -1.687  1.00  0.00     0.023 A 
HETATM   14  C   UNL     1      38.623 -11.374  -1.198  1.00  0.00     0.023 A 
ENDBRANCH   9  12
ENDBRANCH   7   9
ENDBRANCH   6   7
ENDBRANCH   5   6
BRANCH   5  15
HETATM   15  C   UNL     1      42.041 -12.317   0.072  1.00  0.00    -0.034 A 
HETATM   16  C   UNL     1      42.400 -11.009  -0.286  1.00  0.00     0.009 A 
HETATM   17  C   UNL     1      42.724 -10.686  -1.608  1.00  0.00     0.001 A 
HETATM   18  C   UNL     1      42.696 -11.665  -2.596  1.00  0.00     0.000 A 
HETATM   19  C   UNL     1      42.357 -12.972  -2.264  1.00  0.00     0.001 A 
HETATM   20  C   UNL     1      42.042 -13.296  -0.942  1.00  0.00     0.009 A 
ENDBRANCH   5  15
ENDBRANCH   3   5
BRANCH   1  21
HETATM   21  C   UNL     1      43.290 -16.051   2.549  1.00  0.00     0.034 A 
HETATM   22  C   UNL     1      43.166 -16.709   3.785  1.00  0.00     0.054 A 
HETATM   23  C   UNL     1      43.441 -18.076   3.911  1.00  0.00     0.080 A 
HETATM   24  C   UNL     1      43.843 -18.808   2.774  1.00  0.00     0.010 A 
HETATM   25  C   UNL     1      43.952 -18.145   1.538  1.00  0.00     0.016 A 
HETATM   26  C   UNL     1      43.676 -16.779   1.422  1.00  0.00     0.018 A 
BRANCH  23  27
HETATM   27  O   UNL     1      43.355 -18.763   5.096  1.00  0.00    -0.355 OA
HETATM   28  C   UNL     1      43.031 -18.033   6.272  1.00  0.00     0.210 C 
ENDBRANCH  23  27
BRANCH  24  29
HETATM   29  C   UNL     1      44.128 -20.236   2.838  1.00  0.00     0.013 A 
HETATM   30  C   UNL     1      43.851 -21.280   1.926  1.00  0.00     0.152 A 
HETATM   31  N   UNL     1      44.282 -22.471   2.354  1.00  0.00    -0.187 NA
HETATM   32  N   UNL     1      44.819 -22.195   3.553  1.00  0.00    -0.289 N 
HETATM   33  H   UNL     1      45.208 -22.962   4.090  1.00  0.00     0.188 HD
HETATM   34  C   UNL     1      44.760 -20.873   3.886  1.00  0.00     0.123 A 
ENDBRANCH  24  29
ENDBRANCH   1  21
TORSDOF 9
ENDMDL
MODEL 8
REMARK VINA RESULT:      -7.3      5.586     10.031
REMARK  9 active torsions:
REMARK  status: ('A' for Active; 'I' for Inactive)
REMARK    1  A    between atoms: O_2  and  C_3 
REMARK    2  A    between atoms: C_5  and  C_15 
REMARK    3  A    between atoms: C_8  and  C_9 
REMARK       I    between atoms: C_15  and  N_17 
REMARK    4  A    between atoms: N_17  and  C_18 
REMARK    5  A    between atoms: C_18  and  C_19 
REMARK    6  A    between atoms: C_18  and  C_27 
REMARK    7  A    between atoms: C_19  and  N_20 
REMARK    8  A    between atoms: N_20  and  S_21 
REMARK    9  A    between atoms: S_21  and  C_24 
ROOT
HETATM    1  C   UNL     1      43.091 -15.553   2.309  1.00  0.00     0.252 C 
HETATM    2  O   UNL     1      43.705 -14.605   2.787  1.00  0.00    -0.268 OA
HETATM    3  N   UNL     1      42.076 -15.384   1.393  1.00  0.00    -0.347 N 
HETATM    4  H   UNL     1      41.636 -16.170   0.938  1.00  0.00     0.163 HD
ENDROOT
BRANCH   3   5
HETATM    5  C   UNL     1      41.740 -14.043   0.894  1.00  0.00     0.132 C 
BRANCH   5   6
HETATM    6  C   UNL     1      40.540 -13.457   1.696  1.00  0.00     0.134 C 
BRANCH   6   7
HETATM    7  N   UNL     1      41.026 -12.624   2.833  1.00  0.00    -0.217 NA
HETATM    8  H   UNL     1      40.614 -11.688   2.812  1.00  0.00     0.139 HD
BRANCH   7   9
HETATM    9  S   UNL     1      40.818 -13.265   4.380  1.00  0.00     0.213 S 
HETATM   10  O   UNL     1      40.400 -14.634   4.182  1.00  0.00    -0.211 OA
HETATM   11  O   UNL     1      42.006 -12.943   5.137  1.00  0.00    -0.211 OA
BRANCH   9  12
HETATM   12  C   UNL     1      39.461 -12.342   5.154  1.00  0.00     0.124 A 
HETATM   13  C   UNL     1      39.276 -12.620   6.623  1.00  0.00     0.023 A 
HETATM   14  C   UNL     1      39.877 -11.316   6.172  1.00  0.00     0.023 A 
ENDBRANCH   9  12
ENDBRANCH   7   9
ENDBRANCH   6   7
ENDBRANCH   5   6
BRANCH   5  15
HETATM   15  C   UNL     1      41.614 -14.075  -0.628  1.00  0.00    -0.034 A 
HETATM   16  C   UNL     1      41.027 -15.137  -1.333  1.00  0.00     0.009 A 
HETATM   17  C   UNL     1      40.915 -15.105  -2.727  1.00  0.00     0.001 A 
HETATM   18  C   UNL     1      41.386 -14.009  -3.442  1.00  0.00     0.000 A 
HETATM   19  C   UNL     1      41.960 -12.938  -2.766  1.00  0.00     0.001 A 
HETATM   20  C   UNL     1      42.063 -12.966  -1.373  1.00  0.00     0.009 A 
ENDBRANCH   5  15
ENDBRANCH   3   5
BRANCH   1  21
HETATM   21  C   UNL     1      43.468 -16.949   2.680  1.00  0.00     0.034 A 
HETATM   22  C   UNL     1      43.396 -17.301   4.038  1.00  0.00     0.054 A 
HETATM   23  C   UNL     1      43.739 -18.587   4.474  1.00  0.00     0.080 A 
HETATM   24  C   UNL     1      44.157 -19.548   3.529  1.00  0.00     0.010 A 
HETATM   25  C   UNL     1      44.213 -19.191   2.169  1.00  0.00     0.016 A 
HETATM   26  C   UNL     1      43.870 -17.904   1.744  1.00  0.00     0.018 A 
BRANCH  23  27
HETATM   27  O   UNL     1      43.707 -18.979   5.788  1.00  0.00    -0.355 OA
HETATM   28  C   UNL     1      43.136 -18.089   6.739  1.00  0.00     0.210 C 
ENDBRANCH  23  27
BRANCH  24  29
HETATM   29  C   UNL     1      44.512 -20.907   3.918  1.00  0.00     0.013 A 
HETATM   30  C   UNL     1      45.042 -21.419   5.126  1.00  0.00     0.152 A 
HETATM   31  N   UNL     1      45.231 -22.741   5.091  1.00  0.00    -0.187 NA
HETATM   32  N   UNL     1      44.841 -23.078   3.852  1.00  0.00    -0.289 N 
HETATM   33  H   UNL     1      44.907 -24.052   3.578  1.00  0.00     0.188 HD
HETATM   34  C   UNL     1      44.395 -22.020   3.113  1.00  0.00     0.123 A 
ENDBRANCH  24  29
ENDBRANCH   1  21
TORSDOF 9
ENDMDL
MODEL 9
REMARK VINA RESULT:      -7.2      6.280     10.000
REMARK  9 active torsions:
REMARK  status: ('A' for Active; 'I' for Inactive)
REMARK    1  A    between atoms: O_2  and  C_3 
REMARK    2  A    between atoms: C_5  and  C_15 
REMARK    3  A    between atoms: C_8  and  C_9 
REMARK       I    between atoms: C_15  and  N_17 
REMARK    4  A    between atoms: N_17  and  C_18 
REMARK    5  A    between atoms: C_18  and  C_19 
REMARK    6  A    between atoms: C_18  and  C_27 
REMARK    7  A    between atoms: C_19  and  N_20 
REMARK    8  A    between atoms: N_20  and  S_21 
REMARK    9  A    between atoms: S_21  and  C_24 
ROOT
HETATM    1  C   UNL     1      41.986 -16.392   2.468  1.00  0.00     0.252 C 
HETATM    2  O   UNL     1      41.053 -16.468   3.260  1.00  0.00    -0.268 OA
HETATM    3  N   UNL     1      43.179 -17.051   2.673  1.00  0.00    -0.347 N 
HETATM    4  H   UNL     1      43.908 -17.056   1.975  1.00  0.00     0.163 HD
ENDROOT
BRANCH   3   5
HETATM    5  C   UNL     1      43.348 -17.942   3.829  1.00  0.00     0.132 C 
BRANCH   5   6
HETATM    6  C   UNL     1      44.273 -17.275   4.890  1.00  0.00     0.134 C 
BRANCH   6   7
HETATM    7  N   UNL     1      43.479 -16.410   5.809  1.00  0.00    -0.217 NA
HETATM    8  H   UNL     1      42.535 -16.251   5.448  1.00  0.00     0.139 HD
BRANCH   7   9
HETATM    9  S   UNL     1      43.360 -16.921   7.412  1.00  0.00     0.213 S 
HETATM   10  O   UNL     1      43.883 -15.834   8.208  1.00  0.00    -0.211 OA
HETATM   11  O   UNL     1      42.015 -17.414   7.603  1.00  0.00    -0.211 OA
BRANCH   9  12
HETATM   12  C   UNL     1      44.454 -18.359   7.588  1.00  0.00     0.124 A 
HETATM   13  C   UNL     1      44.372 -19.044   8.926  1.00  0.00     0.023 A 
HETATM   14  C   UNL     1      43.758 -19.687   7.712  1.00  0.00     0.023 A 
ENDBRANCH   9  12
ENDBRANCH   7   9
ENDBRANCH   6   7
ENDBRANCH   5   6
BRANCH   5  15
HETATM   15  C   UNL     1      43.730 -19.342   3.351  1.00  0.00    -0.034 A 
HETATM   16  C   UNL     1      44.503 -20.233   4.110  1.00  0.00     0.009 A 
HETATM   17  C   UNL     1      44.805 -21.514   3.635  1.00  0.00     0.001 A 
HETATM   18  C   UNL     1      44.337 -21.927   2.392  1.00  0.00     0.000 A 
HETATM   19  C   UNL     1      43.558 -21.067   1.626  1.00  0.00     0.001 A 
HETATM   20  C   UNL     1      43.250 -19.792   2.105  1.00  0.00     0.009 A 
ENDBRANCH   5  15
ENDBRANCH   3   5
BRANCH   1  21
HETATM   21  C   UNL     1      41.834 -15.604   1.210  1.00  0.00     0.034 A 
HETATM   22  C   UNL     1      42.181 -14.243   1.252  1.00  0.00     0.054 A 
HETATM   23  C   UNL     1      42.061 -13.428   0.119  1.00  0.00     0.080 A 
HETATM   24  C   UNL     1      41.591 -13.988  -1.088  1.00  0.00     0.010 A 
HETATM   25  C   UNL     1      41.258 -15.355  -1.124  1.00  0.00     0.016 A 
HETATM   26  C   UNL     1      41.380 -16.160   0.013  1.00  0.00     0.018 A 
BRANCH  23  27
HETATM   27  O   UNL     1      42.366 -12.091   0.108  1.00  0.00    -0.355 OA
HETATM   28  C   UNL     1      41.523 -11.205   0.832  1.00  0.00     0.210 C 
ENDBRANCH  23  27
BRANCH  24  29
HETATM   29  C   UNL     1      41.458 -13.196  -2.304  1.00  0.00     0.013 A 
HETATM   30  C   UNL     1      40.321 -12.627  -2.924  1.00  0.00     0.152 A 
HETATM   31  N   UNL     1      40.618 -11.960  -4.043  1.00  0.00    -0.187 NA
HETATM   32  N   UNL     1      41.946 -12.116  -4.155  1.00  0.00    -0.289 N 
HETATM   33  H   UNL     1      42.411 -11.701  -4.954  1.00  0.00     0.188 HD
HETATM   34  C   UNL     1      42.499 -12.840  -3.137  1.00  0.00     0.123 A 
ENDBRANCH  24  29
ENDBRANCH   1  21
TORSDOF 9
ENDMDL
MODEL 10
REMARK VINA RESULT:      -7.2      7.461     10.667
REMARK  9 active torsions:
REMARK  status: ('A' for Active; 'I' for Inactive)
REMARK    1  A    between atoms: O_2  and  C_3 
REMARK    2  A    between atoms: C_5  and  C_15 
REMARK    3  A    between atoms: C_8  and  C_9 
REMARK       I    between atoms: C_15  and  N_17 
REMARK    4  A    between atoms: N_17  and  C_18 
REMARK    5  A    between atoms: C_18  and  C_19 
REMARK    6  A    between atoms: C_18  and  C_27 
REMARK    7  A    between atoms: C_19  and  N_20 
REMARK    8  A    between atoms: N_20  and  S_21 
REMARK    9  A    between atoms: S_21  and  C_24 
ROOT
HETATM    1  C   UNL     1      41.280 -14.572   1.916  1.00  0.00     0.252 C 
HETATM    2  O   UNL     1      41.257 -13.792   2.862  1.00  0.00    -0.268 OA
HETATM    3  N   UNL     1      40.769 -14.242   0.680  1.00  0.00    -0.347 N 
HETATM    4  H   UNL     1      40.871 -14.854  -0.117  1.00  0.00     0.163 HD
ENDROOT
BRANCH   3   5
HETATM    5  C   UNL     1      40.237 -12.896   0.429  1.00  0.00     0.132 C 
BRANCH   5   6
HETATM    6  C   UNL     1      38.911 -12.985  -0.383  1.00  0.00     0.134 C 
BRANCH   6   7
HETATM    7  N   UNL     1      38.814 -14.295  -1.088  1.00  0.00    -0.217 NA
HETATM    8  H   UNL     1      38.048 -14.862  -0.718  1.00  0.00     0.139 HD
BRANCH   7   9
HETATM    9  S   UNL     1      38.675 -14.238  -2.768  1.00  0.00     0.213 S 
HETATM   10  O   UNL     1      37.370 -14.781  -3.070  1.00  0.00    -0.211 OA
HETATM   11  O   UNL     1      39.048 -12.905  -3.181  1.00  0.00    -0.211 OA
BRANCH   9  12
HETATM   12  C   UNL     1      39.944 -15.349  -3.440  1.00  0.00     0.124 A 
HETATM   13  C   UNL     1      41.342 -14.789  -3.407  1.00  0.00     0.023 A 
HETATM   14  C   UNL     1      40.940 -15.869  -2.439  1.00  0.00     0.023 A 
ENDBRANCH   9  12
ENDBRANCH   7   9
ENDBRANCH   6   7
ENDBRANCH   5   6
BRANCH   5  15
HETATM   15  C   UNL     1      41.341 -12.000  -0.132  1.00  0.00    -0.034 A 
HETATM   16  C   UNL     1      42.189 -12.386  -1.181  1.00  0.00     0.009 A 
HETATM   17  C   UNL     1      43.169 -11.517  -1.674  1.00  0.00     0.001 A 
HETATM   18  C   UNL     1      43.317 -10.246  -1.128  1.00  0.00     0.000 A 
HETATM   19  C   UNL     1      42.479  -9.836  -0.097  1.00  0.00     0.001 A 
HETATM   20  C   UNL     1      41.496 -10.700   0.389  1.00  0.00     0.009 A 
ENDBRANCH   5  15
ENDBRANCH   3   5
BRANCH   1  21
HETATM   21  C   UNL     1      41.920 -15.911   2.070  1.00  0.00     0.034 A 
HETATM   22  C   UNL     1      41.733 -16.583   3.289  1.00  0.00     0.054 A 
HETATM   23  C   UNL     1      42.305 -17.841   3.521  1.00  0.00     0.080 A 
HETATM   24  C   UNL     1      43.076 -18.446   2.506  1.00  0.00     0.010 A 
HETATM   25  C   UNL     1      43.246 -17.772   1.282  1.00  0.00     0.016 A 
HETATM   26  C   UNL     1      42.673 -16.516   1.062  1.00  0.00     0.018 A 
BRANCH  23  27
HETATM   27  O   UNL     1      42.172 -18.532   4.698  1.00  0.00    -0.355 OA
HETATM   28  C   UNL     1      42.628 -17.913   5.894  1.00  0.00     0.210 C 
ENDBRANCH  23  27
BRANCH  24  29
HETATM   29  C   UNL     1      43.684 -19.760   2.681  1.00  0.00     0.013 A 
HETATM   30  C   UNL     1      44.607 -20.235   3.640  1.00  0.00     0.152 A 
HETATM   31  N   UNL     1      44.925 -21.521   3.462  1.00  0.00    -0.187 NA
HETATM   32  N   UNL     1      44.220 -21.868   2.374  1.00  0.00    -0.289 N 
HETATM   33  H   UNL     1      44.310 -22.817   2.028  1.00  0.00     0.188 HD
HETATM   34  C   UNL     1      43.455 -20.854   1.873  1.00  0.00     0.123 A 
ENDBRANCH  24  29
ENDBRANCH   1  21
TORSDOF 9
ENDMDL
