MODEL 1
REMARK VINA RESULT:      -9.1      0.000      0.000
REMARK  5 active torsions:
REMARK  status: ('A' for Active; 'I' for Inactive)
REMARK    1  A    between atoms: O_2  and  C_3 
REMARK    2  A    between atoms: C_6  and  N_7 
REMARK    3  A    between atoms: C_11  and  C_12 
REMARK    4  A    between atoms: C_12  and  N_13 
REMARK       I    between atoms: N_13  and  C_14 
REMARK    5  A    between atoms: C_14  and  C_15 
ROOT
HETATM    1  N   UNL     1      42.251 -15.754   0.238  1.00  0.00    -0.360 N 
HETATM    2  C   UNL     1      42.158 -16.445   1.432  1.00  0.00     0.230 C 
HETATM    3  O   UNL     1      41.116 -16.985   1.802  1.00  0.00    -0.272 OA
HETATM    4  H   UNL     1      43.095 -15.220   0.060  1.00  0.00     0.162 HD
ENDROOT
BRANCH   1   5
HETATM    5  C   UNL     1      41.109 -15.562  -0.633  1.00  0.00     0.129 C 
BRANCH   5   6
HETATM    6  C   UNL     1      40.603 -14.111  -0.638  1.00  0.00     0.031 C 
HETATM    7  C   UNL     1      39.089 -14.057  -0.791  1.00  0.00     0.111 C 
HETATM    8  C   UNL     1      38.581 -14.080   0.630  1.00  0.00     0.224 C 
HETATM    9  N   UNL     1      39.638 -13.694   1.469  1.00  0.00    -0.318 N 
HETATM   10  O   UNL     1      37.423 -14.350   0.910  1.00  0.00    -0.273 OA
HETATM   11  C   UNL     1      40.830 -13.415   0.697  1.00  0.00     0.139 C 
BRANCH   9  12
HETATM   12  C   UNL     1      39.563 -13.467   2.872  1.00  0.00     0.037 A 
HETATM   13  C   UNL     1      39.771 -14.495   3.801  1.00  0.00     0.032 A 
HETATM   14  C   UNL     1      39.704 -14.262   5.184  1.00  0.00     0.039 A 
HETATM   15  C   UNL     1      39.426 -12.989   5.670  1.00  0.00     0.068 A 
HETATM   16  C   UNL     1      39.206 -11.958   4.759  1.00  0.00     0.039 A 
HETATM   17  C   UNL     1      39.275 -12.192   3.380  1.00  0.00     0.032 A 
BRANCH  15  18
HETATM   18  O   UNL     1      39.338 -12.627   6.984  1.00  0.00    -0.356 OA
HETATM   19  C   UNL     1      39.873 -11.356   7.334  1.00  0.00     0.210 C 
ENDBRANCH  15  18
ENDBRANCH   9  12
ENDBRANCH   5   6
ENDBRANCH   1   5
BRANCH   2  20
HETATM   20  C   UNL     1      43.437 -16.490   2.282  1.00  0.00     0.149 C 
HETATM   21  C   UNL     1      43.747 -17.904   2.715  1.00  0.00    -0.007 A 
HETATM   22  C   UNL     1      43.742 -18.240   4.071  1.00  0.00     0.083 A 
HETATM   23  C   UNL     1      44.036 -18.898   1.766  1.00  0.00     0.011 A 
HETATM   24  C   UNL     1      44.010 -19.550   4.474  1.00  0.00     0.038 A 
HETATM   25  O   UNL     1      43.477 -17.342   5.075  1.00  0.00    -0.310 OA
HETATM   26  C   UNL     1      44.294 -20.532   3.526  1.00  0.00     0.003 A 
HETATM   27  C   UNL     1      44.307 -20.205   2.171  1.00  0.00     0.001 A 
HETATM   28  C   UNL     1      43.383 -16.008   4.756  1.00  0.00     0.083 A 
HETATM   29  C   UNL     1      43.370 -15.527   3.446  1.00  0.00    -0.007 A 
HETATM   30  C   UNL     1      43.292 -15.126   5.834  1.00  0.00     0.038 A 
HETATM   31  C   UNL     1      43.277 -14.143   3.227  1.00  0.00     0.011 A 
HETATM   32  C   UNL     1      43.189 -13.262   4.306  1.00  0.00     0.001 A 
HETATM   33  C   UNL     1      43.195 -13.753   5.610  1.00  0.00     0.003 A 
ENDBRANCH   2  20
TORSDOF 5
ENDMDL
MODEL 2
REMARK VINA RESULT:      -8.7      1.538      2.151
REMARK  5 active torsions:
REMARK  status: ('A' for Active; 'I' for Inactive)
REMARK    1  A    between atoms: O_2  and  C_3 
REMARK    2  A    between atoms: C_6  and  N_7 
REMARK    3  A    between atoms: C_11  and  C_12 
REMARK    4  A    between atoms: C_12  and  N_13 
REMARK       I    between atoms: N_13  and  C_14 
REMARK    5  A    between atoms: C_14  and  C_15 
ROOT
HETATM    1  N   UNL     1      42.778 -17.420   1.872  1.00  0.00    -0.360 N 
HETATM    2  C   UNL     1      42.586 -17.837   3.175  1.00  0.00     0.230 C 
HETATM    3  O   UNL     1      41.466 -17.950   3.673  1.00  0.00    -0.272 OA
HETATM    4  H   UNL     1      43.726 -17.218   1.569  1.00  0.00     0.162 HD
ENDROOT
BRANCH   1   5
HETATM    5  C   UNL     1      41.677 -17.025   1.017  1.00  0.00     0.129 C 
BRANCH   5   6
HETATM    6  C   UNL     1      41.695 -15.526   0.679  1.00  0.00     0.031 C 
HETATM    7  C   UNL     1      40.368 -15.082   0.078  1.00  0.00     0.111 C 
HETATM    8  C   UNL     1      39.553 -14.658   1.275  1.00  0.00     0.224 C 
HETATM    9  N   UNL     1      40.442 -14.415   2.334  1.00  0.00    -0.318 N 
HETATM   10  O   UNL     1      38.340 -14.524   1.230  1.00  0.00    -0.273 OA
HETATM   11  C   UNL     1      41.808 -14.655   1.921  1.00  0.00     0.139 C 
BRANCH   9  12
HETATM   12  C   UNL     1      40.108 -13.883   3.611  1.00  0.00     0.037 A 
HETATM   13  C   UNL     1      40.368 -14.583   4.796  1.00  0.00     0.032 A 
HETATM   14  C   UNL     1      40.044 -14.048   6.053  1.00  0.00     0.039 A 
HETATM   15  C   UNL     1      39.450 -12.794   6.152  1.00  0.00     0.068 A 
HETATM   16  C   UNL     1      39.176 -12.090   4.982  1.00  0.00     0.039 A 
HETATM   17  C   UNL     1      39.501 -12.625   3.729  1.00  0.00     0.032 A 
BRANCH  15  18
HETATM   18  O   UNL     1      39.091 -12.159   7.306  1.00  0.00    -0.356 OA
HETATM   19  C   UNL     1      39.878 -11.038   7.690  1.00  0.00     0.210 C 
ENDBRANCH  15  18
ENDBRANCH   9  12
ENDBRANCH   5   6
ENDBRANCH   1   5
BRANCH   2  20
HETATM   20  C   UNL     1      43.860 -18.141   3.977  1.00  0.00     0.149 C 
HETATM   21  C   UNL     1      44.184 -19.617   3.937  1.00  0.00    -0.007 A 
HETATM   22  C   UNL     1      44.175 -20.371   5.113  1.00  0.00     0.083 A 
HETATM   23  C   UNL     1      44.490 -20.251   2.721  1.00  0.00     0.011 A 
HETATM   24  C   UNL     1      44.455 -21.738   5.076  1.00  0.00     0.038 A 
HETATM   25  O   UNL     1      43.894 -19.845   6.349  1.00  0.00    -0.310 OA
HETATM   26  C   UNL     1      44.755 -22.361   3.865  1.00  0.00     0.003 A 
HETATM   27  C   UNL     1      44.773 -21.616   2.687  1.00  0.00     0.001 A 
HETATM   28  C   UNL     1      43.787 -18.481   6.475  1.00  0.00     0.083 A 
HETATM   29  C   UNL     1      43.776 -17.604   5.388  1.00  0.00    -0.007 A 
HETATM   30  C   UNL     1      43.680 -17.992   7.778  1.00  0.00     0.038 A 
HETATM   31  C   UNL     1      43.669 -16.224   5.625  1.00  0.00     0.011 A 
HETATM   32  C   UNL     1      43.566 -15.736   6.928  1.00  0.00     0.001 A 
HETATM   33  C   UNL     1      43.569 -16.620   8.006  1.00  0.00     0.003 A 
ENDBRANCH   2  20
TORSDOF 5
ENDMDL
MODEL 3
REMARK VINA RESULT:      -8.2      2.275      5.127
REMARK  5 active torsions:
REMARK  status: ('A' for Active; 'I' for Inactive)
REMARK    1  A    between atoms: O_2  and  C_3 
REMARK    2  A    between atoms: C_6  and  N_7 
REMARK    3  A    between atoms: C_11  and  C_12 
REMARK    4  A    between atoms: C_12  and  N_13 
REMARK       I    between atoms: N_13  and  C_14 
REMARK    5  A    between atoms: C_14  and  C_15 
ROOT
HETATM    1  N   UNL     1      41.270 -14.774   4.484  1.00  0.00    -0.360 N 
HETATM    2  C   UNL     1      41.523 -16.119   4.674  1.00  0.00     0.230 C 
HETATM    3  O   UNL     1      40.622 -16.948   4.801  1.00  0.00    -0.272 OA
HETATM    4  H   UNL     1      42.054 -14.130   4.523  1.00  0.00     0.162 HD
ENDROOT
BRANCH   1   5
HETATM    5  C   UNL     1      39.925 -14.233   4.486  1.00  0.00     0.129 C 
BRANCH   5   6
HETATM    6  C   UNL     1      39.812 -12.919   3.698  1.00  0.00     0.031 C 
HETATM    7  C   UNL     1      41.184 -12.303   3.455  1.00  0.00     0.111 C 
HETATM    8  C   UNL     1      41.616 -12.894   2.135  1.00  0.00     0.224 C 
HETATM    9  N   UNL     1      40.468 -13.368   1.481  1.00  0.00    -0.318 N 
HETATM   10  O   UNL     1      42.777 -12.875   1.755  1.00  0.00    -0.273 OA
HETATM   11  C   UNL     1      39.288 -13.135   2.286  1.00  0.00     0.139 C 
BRANCH   9  12
HETATM   12  C   UNL     1      40.404 -13.892   0.160  1.00  0.00     0.037 A 
HETATM   13  C   UNL     1      39.712 -13.235  -0.866  1.00  0.00     0.032 A 
HETATM   14  C   UNL     1      39.661 -13.755  -2.169  1.00  0.00     0.039 A 
HETATM   15  C   UNL     1      40.304 -14.949  -2.476  1.00  0.00     0.068 A 
HETATM   16  C   UNL     1      40.988 -15.619  -1.465  1.00  0.00     0.039 A 
HETATM   17  C   UNL     1      41.039 -15.099  -0.166  1.00  0.00     0.032 A 
BRANCH  15  18
HETATM   18  O   UNL     1      40.337 -15.558  -3.698  1.00  0.00    -0.356 OA
HETATM   19  C   UNL     1      39.118 -16.125  -4.162  1.00  0.00     0.210 C 
ENDBRANCH  15  18
ENDBRANCH   9  12
ENDBRANCH   5   6
ENDBRANCH   1   5
BRANCH   2  20
HETATM   20  C   UNL     1      43.004 -16.522   4.728  1.00  0.00     0.149 C 
HETATM   21  C   UNL     1      43.385 -17.342   3.518  1.00  0.00    -0.007 A 
HETATM   22  C   UNL     1      43.804 -18.666   3.670  1.00  0.00     0.083 A 
HETATM   23  C   UNL     1      43.318 -16.790   2.228  1.00  0.00     0.011 A 
HETATM   24  C   UNL     1      44.139 -19.433   2.552  1.00  0.00     0.038 A 
HETATM   25  O   UNL     1      43.907 -19.294   4.886  1.00  0.00    -0.310 OA
HETATM   26  C   UNL     1      44.067 -18.879   1.274  1.00  0.00     0.003 A 
HETATM   27  C   UNL     1      43.657 -17.557   1.113  1.00  0.00     0.001 A 
HETATM   28  C   UNL     1      43.764 -18.544   6.028  1.00  0.00     0.083 A 
HETATM   29  C   UNL     1      43.349 -17.211   6.030  1.00  0.00    -0.007 A 
HETATM   30  C   UNL     1      44.057 -19.194   7.229  1.00  0.00     0.038 A 
HETATM   31  C   UNL     1      43.242 -16.530   7.253  1.00  0.00     0.011 A 
HETATM   32  C   UNL     1      43.537 -17.181   8.452  1.00  0.00     0.001 A 
HETATM   33  C   UNL     1      43.943 -18.514   8.440  1.00  0.00     0.003 A 
ENDBRANCH   2  20
TORSDOF 5
ENDMDL
MODEL 4
REMARK VINA RESULT:      -8.1      1.789      3.855
REMARK  5 active torsions:
REMARK  status: ('A' for Active; 'I' for Inactive)
REMARK    1  A    between atoms: O_2  and  C_3 
REMARK    2  A    between atoms: C_6  and  N_7 
REMARK    3  A    between atoms: C_11  and  C_12 
REMARK    4  A    between atoms: C_12  and  N_13 
REMARK       I    between atoms: N_13  and  C_14 
REMARK    5  A    between atoms: C_14  and  C_15 
ROOT
HETATM    1  N   UNL     1      41.729 -16.137   1.873  1.00  0.00    -0.360 N 
HETATM    2  C   UNL     1      42.830 -16.906   2.201  1.00  0.00     0.230 C 
HETATM    3  O   UNL     1      43.905 -16.805   1.610  1.00  0.00    -0.272 OA
HETATM    4  H   UNL     1      40.840 -16.366   2.307  1.00  0.00     0.162 HD
ENDROOT
BRANCH   1   5
HETATM    5  C   UNL     1      41.742 -15.203   0.765  1.00  0.00     0.129 C 
BRANCH   5   6
HETATM    6  C   UNL     1      42.477 -13.895   1.100  1.00  0.00     0.031 C 
HETATM    7  C   UNL     1      41.750 -12.691   0.515  1.00  0.00     0.111 C 
HETATM    8  C   UNL     1      40.801 -12.275   1.612  1.00  0.00     0.224 C 
HETATM    9  N   UNL     1      41.266 -12.827   2.815  1.00  0.00    -0.318 N 
HETATM   10  O   UNL     1      39.846 -11.540   1.411  1.00  0.00    -0.273 OA
HETATM   11  C   UNL     1      42.473 -13.596   2.592  1.00  0.00     0.139 C 
BRANCH   9  12
HETATM   12  C   UNL     1      40.738 -12.588   4.115  1.00  0.00     0.037 A 
HETATM   13  C   UNL     1      41.075 -11.447   4.853  1.00  0.00     0.032 A 
HETATM   14  C   UNL     1      40.543 -11.215   6.132  1.00  0.00     0.039 A 
HETATM   15  C   UNL     1      39.658 -12.124   6.701  1.00  0.00     0.068 A 
HETATM   16  C   UNL     1      39.321 -13.269   5.983  1.00  0.00     0.039 A 
HETATM   17  C   UNL     1      39.852 -13.499   4.708  1.00  0.00     0.032 A 
BRANCH  15  18
HETATM   18  O   UNL     1      39.066 -12.016   7.928  1.00  0.00    -0.356 OA
HETATM   19  C   UNL     1      39.460 -10.910   8.731  1.00  0.00     0.210 C 
ENDBRANCH  15  18
ENDBRANCH   9  12
ENDBRANCH   5   6
ENDBRANCH   1   5
BRANCH   2  20
HETATM   20  C   UNL     1      42.631 -17.908   3.348  1.00  0.00     0.149 C 
HETATM   21  C   UNL     1      43.041 -17.303   4.671  1.00  0.00    -0.007 A 
HETATM   22  C   UNL     1      44.106 -17.848   5.392  1.00  0.00     0.083 A 
HETATM   23  C   UNL     1      42.366 -16.186   5.189  1.00  0.00     0.011 A 
HETATM   24  C   UNL     1      44.500 -17.280   6.606  1.00  0.00     0.038 A 
HETATM   25  O   UNL     1      44.825 -18.940   4.975  1.00  0.00    -0.310 OA
HETATM   26  C   UNL     1      43.827 -16.169   7.112  1.00  0.00     0.003 A 
HETATM   27  C   UNL     1      42.758 -15.622   6.403  1.00  0.00     0.001 A 
HETATM   28  C   UNL     1      44.376 -19.647   3.886  1.00  0.00     0.083 A 
HETATM   29  C   UNL     1      43.325 -19.222   3.070  1.00  0.00    -0.007 A 
HETATM   30  C   UNL     1      45.039 -20.845   3.616  1.00  0.00     0.038 A 
HETATM   31  C   UNL     1      42.938 -20.022   1.983  1.00  0.00     0.011 A 
HETATM   32  C   UNL     1      43.600 -21.222   1.717  1.00  0.00     0.001 A 
HETATM   33  C   UNL     1      44.653 -21.633   2.532  1.00  0.00     0.003 A 
ENDBRANCH   2  20
TORSDOF 5
ENDMDL
MODEL 5
REMARK VINA RESULT:      -8.0      3.198      6.186
REMARK  5 active torsions:
REMARK  status: ('A' for Active; 'I' for Inactive)
REMARK    1  A    between atoms: O_2  and  C_3 
REMARK    2  A    between atoms: C_6  and  N_7 
REMARK    3  A    between atoms: C_11  and  C_12 
REMARK    4  A    between atoms: C_12  and  N_13 
REMARK       I    between atoms: N_13  and  C_14 
REMARK    5  A    between atoms: C_14  and  C_15 
ROOT
HETATM    1  N   UNL     1      42.123 -16.248   1.838  1.00  0.00    -0.360 N 
HETATM    2  C   UNL     1      43.169 -17.071   2.209  1.00  0.00     0.230 C 
HETATM    3  O   UNL     1      44.275 -17.015   1.673  1.00  0.00    -0.272 OA
HETATM    4  H   UNL     1      41.203 -16.439   2.223  1.00  0.00     0.162 HD
ENDROOT
BRANCH   1   5
HETATM    5  C   UNL     1      42.236 -15.302   0.745  1.00  0.00     0.129 C 
BRANCH   5   6
HETATM    6  C   UNL     1      41.001 -15.302  -0.170  1.00  0.00     0.031 C 
HETATM    7  C   UNL     1      39.901 -14.410   0.391  1.00  0.00     0.111 C 
HETATM    8  C   UNL     1      40.182 -13.060  -0.222  1.00  0.00     0.224 C 
HETATM    9  N   UNL     1      40.997 -13.261  -1.346  1.00  0.00    -0.318 N 
HETATM   10  O   UNL     1      39.702 -12.027   0.217  1.00  0.00    -0.273 OA
HETATM   11  C   UNL     1      41.286 -14.669  -1.524  1.00  0.00     0.139 C 
BRANCH   9  12
HETATM   12  C   UNL     1      41.402 -12.271  -2.284  1.00  0.00     0.037 A 
HETATM   13  C   UNL     1      42.379 -11.315  -1.977  1.00  0.00     0.032 A 
HETATM   14  C   UNL     1      42.779 -10.345  -2.911  1.00  0.00     0.039 A 
HETATM   15  C   UNL     1      42.208 -10.312  -4.179  1.00  0.00     0.068 A 
HETATM   16  C   UNL     1      41.228 -11.250  -4.496  1.00  0.00     0.039 A 
HETATM   17  C   UNL     1      40.830 -12.216  -3.563  1.00  0.00     0.032 A 
BRANCH  15  18
HETATM   18  O   UNL     1      42.509  -9.431  -5.178  1.00  0.00    -0.356 OA
HETATM   19  C   UNL     1      41.799  -9.585  -6.401  1.00  0.00     0.210 C 
ENDBRANCH  15  18
ENDBRANCH   9  12
ENDBRANCH   5   6
ENDBRANCH   1   5
BRANCH   2  20
HETATM   20  C   UNL     1      42.865 -18.076   3.330  1.00  0.00     0.149 C 
HETATM   21  C   UNL     1      43.315 -17.543   4.670  1.00  0.00    -0.007 A 
HETATM   22  C   UNL     1      44.317 -18.200   5.388  1.00  0.00     0.083 A 
HETATM   23  C   UNL     1      42.740 -16.379   5.208  1.00  0.00     0.011 A 
HETATM   24  C   UNL     1      44.748 -17.699   6.618  1.00  0.00     0.038 A 
HETATM   25  O   UNL     1      44.936 -19.345   4.952  1.00  0.00    -0.310 OA
HETATM   26  C   UNL     1      44.175 -16.541   7.145  1.00  0.00     0.003 A 
HETATM   27  C   UNL     1      43.170 -15.883   6.439  1.00  0.00     0.001 A 
HETATM   28  C   UNL     1      44.435 -19.982   3.842  1.00  0.00     0.083 A 
HETATM   29  C   UNL     1      43.438 -19.443   3.027  1.00  0.00    -0.007 A 
HETATM   30  C   UNL     1      44.988 -21.230   3.550  1.00  0.00     0.038 A 
HETATM   31  C   UNL     1      42.989 -20.179   1.918  1.00  0.00     0.011 A 
HETATM   32  C   UNL     1      43.541 -21.428   1.631  1.00  0.00     0.001 A 
HETATM   33  C   UNL     1      44.542 -21.953   2.445  1.00  0.00     0.003 A 
ENDBRANCH   2  20
TORSDOF 5
ENDMDL
MODEL 6
REMARK VINA RESULT:      -8.0      2.603      4.778
REMARK  5 active torsions:
REMARK  status: ('A' for Active; 'I' for Inactive)
REMARK    1  A    between atoms: O_2  and  C_3 
REMARK    2  A    between atoms: C_6  and  N_7 
REMARK    3  A    between atoms: C_11  and  C_12 
REMARK    4  A    between atoms: C_12  and  N_13 
REMARK       I    between atoms: N_13  and  C_14 
REMARK    5  A    between atoms: C_14  and  C_15 
ROOT
HETATM    1  N   UNL     1      41.273 -16.302   2.128  1.00  0.00    -0.360 N 
HETATM    2  C   UNL     1      41.664 -16.992   3.260  1.00  0.00     0.230 C 
HETATM    3  O   UNL     1      40.854 -17.507   4.031  1.00  0.00    -0.272 OA
HETATM    4  H   UNL     1      41.982 -15.788   1.613  1.00  0.00     0.162 HD
ENDROOT
BRANCH   1   5
HETATM    5  C   UNL     1      39.879 -16.080   1.802  1.00  0.00     0.129 C 
BRANCH   5   6
HETATM    6  C   UNL     1      39.473 -14.601   1.902  1.00  0.00     0.031 C 
HETATM    7  C   UNL     1      40.530 -13.790   2.641  1.00  0.00     0.111 C 
HETATM    8  C   UNL     1      41.454 -13.317   1.545  1.00  0.00     0.224 C 
HETATM    9  N   UNL     1      40.759 -13.410   0.329  1.00  0.00    -0.318 N 
HETATM   10  O   UNL     1      42.577 -12.894   1.769  1.00  0.00    -0.273 OA
HETATM   11  C   UNL     1      39.421 -13.923   0.541  1.00  0.00     0.139 C 
BRANCH   9  12
HETATM   12  C   UNL     1      41.213 -12.956  -0.941  1.00  0.00     0.037 A 
HETATM   13  C   UNL     1      41.449 -13.839  -2.002  1.00  0.00     0.032 A 
HETATM   14  C   UNL     1      41.890 -13.383  -3.255  1.00  0.00     0.039 A 
HETATM   15  C   UNL     1      42.105 -12.026  -3.473  1.00  0.00     0.068 A 
HETATM   16  C   UNL     1      41.884 -11.137  -2.425  1.00  0.00     0.039 A 
HETATM   17  C   UNL     1      41.444 -11.593  -1.176  1.00  0.00     0.032 A 
BRANCH  15  18
HETATM   18  O   UNL     1      42.525 -11.452  -4.640  1.00  0.00    -0.356 OA
HETATM   19  C   UNL     1      42.460 -10.033  -4.712  1.00  0.00     0.210 C 
ENDBRANCH  15  18
ENDBRANCH   9  12
ENDBRANCH   5   6
ENDBRANCH   1   5
BRANCH   2  20
HETATM   20  C   UNL     1      43.178 -17.070   3.509  1.00  0.00     0.149 C 
HETATM   21  C   UNL     1      43.666 -18.497   3.423  1.00  0.00    -0.007 A 
HETATM   22  C   UNL     1      44.216 -19.120   4.546  1.00  0.00     0.083 A 
HETATM   23  C   UNL     1      43.568 -19.218   2.221  1.00  0.00     0.011 A 
HETATM   24  C   UNL     1      44.652 -20.446   4.475  1.00  0.00     0.038 A 
HETATM   25  O   UNL     1      44.361 -18.502   5.762  1.00  0.00    -0.310 OA
HETATM   26  C   UNL     1      44.548 -21.156   3.279  1.00  0.00     0.003 A 
HETATM   27  C   UNL     1      44.006 -20.540   2.152  1.00  0.00     0.001 A 
HETATM   28  C   UNL     1      44.118 -17.152   5.847  1.00  0.00     0.083 A 
HETATM   29  C   UNL     1      43.567 -16.400   4.808  1.00  0.00    -0.007 A 
HETATM   30  C   UNL     1      44.452 -16.544   7.058  1.00  0.00     0.038 A 
HETATM   31  C   UNL     1      43.365 -15.023   4.993  1.00  0.00     0.011 A 
HETATM   32  C   UNL     1      43.703 -14.416   6.204  1.00  0.00     0.001 A 
HETATM   33  C   UNL     1      44.244 -15.177   7.238  1.00  0.00     0.003 A 
ENDBRANCH   2  20
TORSDOF 5
ENDMDL
MODEL 7
REMARK VINA RESULT:      -8.0      2.333      5.320
REMARK  5 active torsions:
REMARK  status: ('A' for Active; 'I' for Inactive)
REMARK    1  A    between atoms: O_2  and  C_3 
REMARK    2  A    between atoms: C_6  and  N_7 
REMARK    3  A    between atoms: C_11  and  C_12 
REMARK    4  A    between atoms: C_12  and  N_13 
REMARK       I    between atoms: N_13  and  C_14 
REMARK    5  A    between atoms: C_14  and  C_15 
ROOT
HETATM    1  N   UNL     1      39.873 -14.939   4.781  1.00  0.00    -0.360 N 
HETATM    2  C   UNL     1      40.920 -15.156   3.906  1.00  0.00     0.230 C 
HETATM    3  O   UNL     1      42.010 -14.598   4.030  1.00  0.00    -0.272 OA
HETATM    4  H   UNL     1      38.963 -15.323   4.543  1.00  0.00     0.162 HD
ENDROOT
BRANCH   1   5
HETATM    5  C   UNL     1      39.963 -13.989   5.871  1.00  0.00     0.129 C 
BRANCH   5   6
HETATM    6  C   UNL     1      39.154 -12.708   5.612  1.00  0.00     0.031 C 
HETATM    7  C   UNL     1      39.899 -11.476   6.109  1.00  0.00     0.111 C 
HETATM    8  C   UNL     1      40.710 -11.038   4.913  1.00  0.00     0.224 C 
HETATM    9  N   UNL     1      40.135 -11.616   3.771  1.00  0.00    -0.318 N 
HETATM   10  O   UNL     1      41.656 -10.271   5.006  1.00  0.00    -0.273 OA
HETATM   11  C   UNL     1      38.986 -12.422   4.127  1.00  0.00     0.139 C 
BRANCH   9  12
HETATM   12  C   UNL     1      40.511 -11.371   2.420  1.00  0.00     0.037 A 
HETATM   13  C   UNL     1      39.772 -10.523   1.587  1.00  0.00     0.032 A 
HETATM   14  C   UNL     1      40.154 -10.281   0.257  1.00  0.00     0.039 A 
HETATM   15  C   UNL     1      41.291 -10.884  -0.268  1.00  0.00     0.068 A 
HETATM   16  C   UNL     1      42.032 -11.739   0.545  1.00  0.00     0.039 A 
HETATM   17  C   UNL     1      41.649 -11.979   1.870  1.00  0.00     0.032 A 
BRANCH  15  18
HETATM   18  O   UNL     1      41.775 -10.730  -1.537  1.00  0.00    -0.356 OA
HETATM   19  C   UNL     1      43.115 -10.267  -1.657  1.00  0.00     0.210 C 
ENDBRANCH  15  18
ENDBRANCH   9  12
ENDBRANCH   5   6
ENDBRANCH   1   5
BRANCH   2  20
HETATM   20  C   UNL     1      40.640 -16.132   2.753  1.00  0.00     0.149 C 
HETATM   21  C   UNL     1      41.824 -17.039   2.514  1.00  0.00    -0.007 A 
HETATM   22  C   UNL     1      42.511 -16.991   1.298  1.00  0.00     0.083 A 
HETATM   23  C   UNL     1      42.255 -17.934   3.507  1.00  0.00     0.011 A 
HETATM   24  C   UNL     1      43.618 -17.815   1.080  1.00  0.00     0.038 A 
HETATM   25  O   UNL     1      42.167 -16.157   0.264  1.00  0.00    -0.310 OA
HETATM   26  C   UNL     1      44.041 -18.699   2.073  1.00  0.00     0.003 A 
HETATM   27  C   UNL     1      43.358 -18.758   3.286  1.00  0.00     0.001 A 
HETATM   28  C   UNL     1      40.988 -15.456   0.349  1.00  0.00     0.083 A 
HETATM   29  C   UNL     1      40.199 -15.408   1.501  1.00  0.00    -0.007 A 
HETATM   30  C   UNL     1      40.601 -14.765  -0.801  1.00  0.00     0.038 A 
HETATM   31  C   UNL     1      39.007 -14.667   1.482  1.00  0.00     0.011 A 
HETATM   32  C   UNL     1      38.620 -13.980   0.330  1.00  0.00     0.001 A 
HETATM   33  C   UNL     1      39.418 -14.027  -0.811  1.00  0.00     0.003 A 
ENDBRANCH   2  20
TORSDOF 5
ENDMDL
MODEL 8
REMARK VINA RESULT:      -7.9      2.837      5.038
REMARK  5 active torsions:
REMARK  status: ('A' for Active; 'I' for Inactive)
REMARK    1  A    between atoms: O_2  and  C_3 
REMARK    2  A    between atoms: C_6  and  N_7 
REMARK    3  A    between atoms: C_11  and  C_12 
REMARK    4  A    between atoms: C_12  and  N_13 
REMARK       I    between atoms: N_13  and  C_14 
REMARK    5  A    between atoms: C_14  and  C_15 
ROOT
HETATM    1  N   UNL     1      42.353 -17.161   2.176  1.00  0.00    -0.360 N 
HETATM    2  C   UNL     1      42.317 -17.792   3.405  1.00  0.00     0.230 C 
HETATM    3  O   UNL     1      41.262 -18.052   3.983  1.00  0.00    -0.272 OA
HETATM    4  H   UNL     1      43.254 -16.856   1.821  1.00  0.00     0.162 HD
ENDROOT
BRANCH   1   5
HETATM    5  C   UNL     1      41.151 -16.703   1.509  1.00  0.00     0.129 C 
BRANCH   5   6
HETATM    6  C   UNL     1      40.806 -15.243   1.844  1.00  0.00     0.031 C 
HETATM    7  C   UNL     1      41.883 -14.293   1.335  1.00  0.00     0.111 C 
HETATM    8  C   UNL     1      41.421 -13.936  -0.056  1.00  0.00     0.224 C 
HETATM    9  N   UNL     1      40.050 -14.225  -0.140  1.00  0.00    -0.318 N 
HETATM   10  O   UNL     1      42.164 -13.438  -0.888  1.00  0.00    -0.273 OA
HETATM   11  C   UNL     1      39.562 -14.761   1.113  1.00  0.00     0.139 C 
BRANCH   9  12
HETATM   12  C   UNL     1      39.191 -13.930  -1.235  1.00  0.00     0.037 A 
HETATM   13  C   UNL     1      39.169 -14.719  -2.393  1.00  0.00     0.032 A 
HETATM   14  C   UNL     1      38.312 -14.426  -3.467  1.00  0.00     0.039 A 
HETATM   15  C   UNL     1      37.453 -13.334  -3.403  1.00  0.00     0.068 A 
HETATM   16  C   UNL     1      37.470 -12.535  -2.263  1.00  0.00     0.039 A 
HETATM   17  C   UNL     1      38.325 -12.828  -1.193  1.00  0.00     0.032 A 
BRANCH  15  18
HETATM   18  O   UNL     1      36.570 -12.944  -4.369  1.00  0.00    -0.356 OA
HETATM   19  C   UNL     1      35.806 -13.973  -4.988  1.00  0.00     0.210 C 
ENDBRANCH  15  18
ENDBRANCH   9  12
ENDBRANCH   5   6
ENDBRANCH   1   5
BRANCH   2  20
HETATM   20  C   UNL     1      43.682 -18.143   4.019  1.00  0.00     0.149 C 
HETATM   21  C   UNL     1      44.038 -19.587   3.752  1.00  0.00    -0.007 A 
HETATM   22  C   UNL     1      44.182 -20.482   4.814  1.00  0.00     0.083 A 
HETATM   23  C   UNL     1      44.223 -20.049   2.439  1.00  0.00     0.011 A 
HETATM   24  C   UNL     1      44.493 -21.822   4.570  1.00  0.00     0.038 A 
HETATM   25  O   UNL     1      44.027 -20.129   6.131  1.00  0.00    -0.310 OA
HETATM   26  C   UNL     1      44.671 -22.274   3.263  1.00  0.00     0.003 A 
HETATM   27  C   UNL     1      44.537 -21.386   2.197  1.00  0.00     0.001 A 
HETATM   28  C   UNL     1      43.898 -18.797   6.444  1.00  0.00     0.083 A 
HETATM   29  C   UNL     1      43.741 -17.791   5.488  1.00  0.00    -0.007 A 
HETATM   30  C   UNL     1      43.925 -18.481   7.804  1.00  0.00     0.038 A 
HETATM   31  C   UNL     1      43.624 -16.458   5.913  1.00  0.00     0.011 A 
HETATM   32  C   UNL     1      43.655 -16.144   7.272  1.00  0.00     0.001 A 
HETATM   33  C   UNL     1      43.803 -17.156   8.218  1.00  0.00     0.003 A 
ENDBRANCH   2  20
TORSDOF 5
ENDMDL
MODEL 9
REMARK VINA RESULT:      -7.8      2.335      5.290
REMARK  5 active torsions:
REMARK  status: ('A' for Active; 'I' for Inactive)
REMARK    1  A    between atoms: O_2  and  C_3 
REMARK    2  A    between atoms: C_6  and  N_7 
REMARK    3  A    between atoms: C_11  and  C_12 
REMARK    4  A    between atoms: C_12  and  N_13 
REMARK       I    between atoms: N_13  and  C_14 
REMARK    5  A    between atoms: C_14  and  C_15 
ROOT
HETATM    1  N   UNL     1      41.514 -14.575   4.357  1.00  0.00    -0.360 N 
HETATM    2  C   UNL     1      41.000 -15.573   5.164  1.00  0.00     0.230 C 
HETATM    3  O   UNL     1      40.240 -15.337   6.103  1.00  0.00    -0.272 OA
HETATM    4  H   UNL     1      42.238 -14.825   3.690  1.00  0.00     0.162 HD
ENDROOT
BRANCH   1   5
HETATM    5  C   UNL     1      41.247 -13.172   4.601  1.00  0.00     0.129 C 
BRANCH   5   6
HETATM    6  C   UNL     1      39.930 -12.699   3.964  1.00  0.00     0.031 C 
HETATM    7  C   UNL     1      40.064 -11.286   3.411  1.00  0.00     0.111 C 
HETATM    8  C   UNL     1      40.513 -11.498   1.986  1.00  0.00     0.224 C 
HETATM    9  N   UNL     1      40.196 -12.817   1.627  1.00  0.00    -0.318 N 
HETATM   10  O   UNL     1      41.012 -10.608   1.315  1.00  0.00    -0.273 OA
HETATM   11  C   UNL     1      39.562 -13.509   2.730  1.00  0.00     0.139 C 
BRANCH   9  12
HETATM   12  C   UNL     1      40.338 -13.400   0.337  1.00  0.00     0.037 A 
HETATM   13  C   UNL     1      41.588 -13.766  -0.178  1.00  0.00     0.032 A 
HETATM   14  C   UNL     1      41.719 -14.347  -1.449  1.00  0.00     0.039 A 
HETATM   15  C   UNL     1      40.596 -14.577  -2.237  1.00  0.00     0.068 A 
HETATM   16  C   UNL     1      39.347 -14.209  -1.743  1.00  0.00     0.039 A 
HETATM   17  C   UNL     1      39.218 -13.629  -0.475  1.00  0.00     0.032 A 
BRANCH  15  18
HETATM   18  O   UNL     1      40.584 -15.138  -3.482  1.00  0.00    -0.356 OA
HETATM   19  C   UNL     1      39.381 -15.785  -3.879  1.00  0.00     0.210 C 
ENDBRANCH  15  18
ENDBRANCH   9  12
ENDBRANCH   5   6
ENDBRANCH   1   5
BRANCH   2  20
HETATM   20  C   UNL     1      41.443 -17.005   4.824  1.00  0.00     0.149 C 
HETATM   21  C   UNL     1      42.601 -17.432   5.695  1.00  0.00    -0.007 A 
HETATM   22  C   UNL     1      43.841 -17.724   5.122  1.00  0.00     0.083 A 
HETATM   23  C   UNL     1      42.451 -17.536   7.088  1.00  0.00     0.011 A 
HETATM   24  C   UNL     1      44.918 -18.102   5.926  1.00  0.00     0.038 A 
HETATM   25  O   UNL     1      44.087 -17.658   3.773  1.00  0.00    -0.310 OA
HETATM   26  C   UNL     1      44.763 -18.199   7.308  1.00  0.00     0.003 A 
HETATM   27  C   UNL     1      43.527 -17.917   7.888  1.00  0.00     0.001 A 
HETATM   28  C   UNL     1      43.028 -17.467   2.919  1.00  0.00     0.083 A 
HETATM   29  C   UNL     1      41.735 -17.165   3.349  1.00  0.00    -0.007 A 
HETATM   30  C   UNL     1      43.310 -17.588   1.557  1.00  0.00     0.038 A 
HETATM   31  C   UNL     1      40.719 -16.996   2.394  1.00  0.00     0.011 A 
HETATM   32  C   UNL     1      41.002 -17.120   1.033  1.00  0.00     0.001 A 
HETATM   33  C   UNL     1      42.298 -17.414   0.614  1.00  0.00     0.003 A 
ENDBRANCH   2  20
TORSDOF 5
ENDMDL
MODEL 10
REMARK VINA RESULT:      -7.7      1.932      5.357
REMARK  5 active torsions:
REMARK  status: ('A' for Active; 'I' for Inactive)
REMARK    1  A    between atoms: O_2  and  C_3 
REMARK    2  A    between atoms: C_6  and  N_7 
REMARK    3  A    between atoms: C_11  and  C_12 
REMARK    4  A    between atoms: C_12  and  N_13 
REMARK       I    between atoms: N_13  and  C_14 
REMARK    5  A    between atoms: C_14  and  C_15 
ROOT
HETATM    1  N   UNL     1      40.595 -12.816   2.648  1.00  0.00    -0.360 N 
HETATM    2  C   UNL     1      41.917 -12.935   3.034  1.00  0.00     0.230 C 
HETATM    3  O   UNL     1      42.845 -12.911   2.225  1.00  0.00    -0.272 OA
HETATM    4  H   UNL     1      39.876 -12.980   3.347  1.00  0.00     0.162 HD
ENDROOT
BRANCH   1   5
HETATM    5  C   UNL     1      40.203 -12.721   1.256  1.00  0.00     0.129 C 
BRANCH   5   6
HETATM    6  C   UNL     1      39.411 -13.948   0.777  1.00  0.00     0.031 C 
HETATM    7  C   UNL     1      39.674 -14.231  -0.696  1.00  0.00     0.111 C 
HETATM    8  C   UNL     1      40.852 -15.174  -0.678  1.00  0.00     0.224 C 
HETATM    9  N   UNL     1      40.928 -15.741   0.603  1.00  0.00    -0.318 N 
HETATM   10  O   UNL     1      41.538 -15.388  -1.666  1.00  0.00    -0.273 OA
HETATM   11  C   UNL     1      39.871 -15.232   1.452  1.00  0.00     0.139 C 
BRANCH   9  12
HETATM   12  C   UNL     1      41.817 -16.771   1.020  1.00  0.00     0.037 A 
HETATM   13  C   UNL     1      43.207 -16.600   1.005  1.00  0.00     0.032 A 
HETATM   14  C   UNL     1      44.079 -17.618   1.425  1.00  0.00     0.039 A 
HETATM   15  C   UNL     1      43.574 -18.834   1.873  1.00  0.00     0.068 A 
HETATM   16  C   UNL     1      42.195 -19.024   1.884  1.00  0.00     0.039 A 
HETATM   17  C   UNL     1      41.327 -18.007   1.464  1.00  0.00     0.032 A 
BRANCH  15  18
HETATM   18  O   UNL     1      44.307 -19.900   2.313  1.00  0.00    -0.356 OA
HETATM   19  C   UNL     1      43.902 -21.186   1.858  1.00  0.00     0.210 C 
ENDBRANCH  15  18
ENDBRANCH   9  12
ENDBRANCH   5   6
ENDBRANCH   1   5
BRANCH   2  20
HETATM   20  C   UNL     1      42.163 -13.109   4.540  1.00  0.00     0.149 C 
HETATM   21  C   UNL     1      42.010 -14.555   4.948  1.00  0.00    -0.007 A 
HETATM   22  C   UNL     1      41.003 -14.932   5.840  1.00  0.00     0.083 A 
HETATM   23  C   UNL     1      42.870 -15.540   4.434  1.00  0.00     0.011 A 
HETATM   24  C   UNL     1      40.848 -16.271   6.205  1.00  0.00     0.038 A 
HETATM   25  O   UNL     1      40.116 -14.047   6.401  1.00  0.00    -0.310 OA
HETATM   26  C   UNL     1      41.703 -17.243   5.688  1.00  0.00     0.003 A 
HETATM   27  C   UNL     1      42.716 -16.876   4.803  1.00  0.00     0.001 A 
HETATM   28  C   UNL     1      40.328 -12.701   6.222  1.00  0.00     0.083 A 
HETATM   29  C   UNL     1      41.295 -12.180   5.360  1.00  0.00    -0.007 A 
HETATM   30  C   UNL     1      39.506 -11.847   6.959  1.00  0.00     0.038 A 
HETATM   31  C   UNL     1      41.437 -10.786   5.254  1.00  0.00     0.011 A 
HETATM   32  C   UNL     1      40.616  -9.935   5.994  1.00  0.00     0.001 A 
HETATM   33  C   UNL     1      39.648 -10.465   6.846  1.00  0.00     0.003 A 
ENDBRANCH   2  20
TORSDOF 5
ENDMDL
