MODEL 1
REMARK VINA RESULT:      -9.2      0.000      0.000
REMARK  7 active torsions:
REMARK  status: ('A' for Active; 'I' for Inactive)
REMARK    1  A    between atoms: O_2  and  C_3 
REMARK    2  A    between atoms: C_4  and  C_5 
REMARK       I    between atoms: C_5  and  N_6 
REMARK    3  A    between atoms: N_6  and  C_7 
REMARK    4  A    between atoms: C_7  and  N_8 
REMARK    5  A    between atoms: N_8  and  C_9 
REMARK    6  A    between atoms: C_10  and  N_11 
REMARK       I    between atoms: N_14  and  C_15 
REMARK    7  A    between atoms: C_15  and  C_16 
ROOT
HETATM    1  C   UNL     1      40.425 -14.074   0.187  1.00  0.00     0.060 A 
HETATM    2  C   UNL     1      40.188 -15.081   1.152  1.00  0.00     0.057 A 
HETATM    3  C   UNL     1      38.910 -15.155   1.719  1.00  0.00     0.031 A 
HETATM    4  C   UNL     1      37.905 -14.257   1.344  1.00  0.00     0.002 A 
HETATM    5  C   UNL     1      38.161 -13.266   0.399  1.00  0.00     0.002 A 
HETATM    6  C   UNL     1      39.424 -13.172  -0.183  1.00  0.00     0.032 A 
ENDROOT
BRANCH   1   7
HETATM    7  N   UNL     1      41.715 -13.992  -0.387  1.00  0.00    -0.336 N 
HETATM    8  H   UNL     1      42.458 -14.248   0.252  1.00  0.00     0.168 HD
BRANCH   7   9
HETATM    9  C   UNL     1      42.177 -13.047  -1.271  1.00  0.00     0.157 C 
HETATM   10  S   UNL     1      42.544 -11.543  -0.633  1.00  0.00    -0.047 SA
BRANCH   9  11
HETATM   11  N   UNL     1      42.194 -13.421  -2.601  1.00  0.00    -0.201 NA
HETATM   12  C   UNL     1      41.311 -14.316  -3.189  1.00  0.00     0.240 C 
HETATM   13  O   UNL     1      41.751 -15.400  -3.559  1.00  0.00    -0.274 OA
HETATM   14  H   UNL     1      43.123 -13.756  -2.824  1.00  0.00     0.139 HD
BRANCH  12  15
HETATM   15  C   UNL     1      39.898 -13.905  -3.422  1.00  0.00     0.060 A 
HETATM   16  C   UNL     1      39.575 -12.579  -3.752  1.00  0.00     0.083 A 
HETATM   17  C   UNL     1      38.239 -12.182  -3.869  1.00  0.00     0.038 A 
HETATM   18  C   UNL     1      37.216 -13.112  -3.697  1.00  0.00     0.003 A 
HETATM   19  C   UNL     1      37.524 -14.438  -3.395  1.00  0.00     0.001 A 
HETATM   20  C   UNL     1      38.856 -14.832  -3.249  1.00  0.00     0.019 A 
BRANCH  16  21
HETATM   21  O   UNL     1      40.530 -11.608  -3.897  1.00  0.00    -0.355 OA
HETATM   22  C   UNL     1      40.104 -10.389  -3.285  1.00  0.00     0.210 C 
ENDBRANCH  16  21
ENDBRANCH  12  15
ENDBRANCH   9  11
ENDBRANCH   7   9
ENDBRANCH   1   7
BRANCH   2  23
HETATM   23  N   UNL     1      41.265 -15.853   1.602  1.00  0.00    -0.376 N 
HETATM   24  C   UNL     1      41.052 -17.310   1.688  1.00  0.00     0.143 C 
HETATM   25  C   UNL     1      42.437 -18.003   1.661  1.00  0.00     0.146 C 
HETATM   26  N   UNL     1      43.322 -17.466   2.712  1.00  0.00    -0.345 N 
HETATM   27  C   UNL     1      43.892 -18.221   3.725  1.00  0.00     0.253 C 
HETATM   28  C   UNL     1      43.424 -16.001   2.759  1.00  0.00     0.146 C 
HETATM   29  O   UNL     1      44.270 -17.754   4.793  1.00  0.00    -0.267 OA
HETATM   30  C   UNL     1      42.041 -15.327   2.747  1.00  0.00     0.143 C 
BRANCH  27  31
HETATM   31  C   UNL     1      44.096 -19.664   3.478  1.00  0.00     0.032 A 
HETATM   32  C   UNL     1      43.909 -20.182   2.189  1.00  0.00     0.017 A 
HETATM   33  C   UNL     1      44.128 -21.538   1.954  1.00  0.00     0.001 A 
HETATM   34  C   UNL     1      44.536 -22.369   2.999  1.00  0.00     0.000 A 
HETATM   35  C   UNL     1      44.737 -21.844   4.279  1.00  0.00     0.001 A 
HETATM   36  C   UNL     1      44.526 -20.487   4.520  1.00  0.00     0.017 A 
ENDBRANCH  27  31
ENDBRANCH   2  23
TORSDOF 7
ENDMDL
MODEL 2
REMARK VINA RESULT:      -9.1      2.762      8.703
REMARK  7 active torsions:
REMARK  status: ('A' for Active; 'I' for Inactive)
REMARK    1  A    between atoms: O_2  and  C_3 
REMARK    2  A    between atoms: C_4  and  C_5 
REMARK       I    between atoms: C_5  and  N_6 
REMARK    3  A    between atoms: N_6  and  C_7 
REMARK    4  A    between atoms: C_7  and  N_8 
REMARK    5  A    between atoms: N_8  and  C_9 
REMARK    6  A    between atoms: C_10  and  N_11 
REMARK       I    between atoms: N_14  and  C_15 
REMARK    7  A    between atoms: C_15  and  C_16 
ROOT
HETATM    1  C   UNL     1      43.556 -15.497   5.429  1.00  0.00     0.060 A 
HETATM    2  C   UNL     1      42.914 -14.327   4.959  1.00  0.00     0.057 A 
HETATM    3  C   UNL     1      42.946 -13.191   5.777  1.00  0.00     0.031 A 
HETATM    4  C   UNL     1      43.590 -13.218   7.018  1.00  0.00     0.002 A 
HETATM    5  C   UNL     1      44.209 -14.383   7.467  1.00  0.00     0.002 A 
HETATM    6  C   UNL     1      44.194 -15.527   6.672  1.00  0.00     0.032 A 
ENDROOT
BRANCH   1   7
HETATM    7  N   UNL     1      43.524 -16.648   4.609  1.00  0.00    -0.336 N 
HETATM    8  H   UNL     1      44.240 -16.655   3.893  1.00  0.00     0.168 HD
BRANCH   7   9
HETATM    9  C   UNL     1      42.414 -17.317   4.151  1.00  0.00     0.157 C 
HETATM   10  S   UNL     1      41.210 -17.623   5.274  1.00  0.00    -0.047 SA
BRANCH   9  11
HETATM   11  N   UNL     1      42.463 -17.742   2.838  1.00  0.00    -0.201 NA
HETATM   12  C   UNL     1      43.543 -18.382   2.247  1.00  0.00     0.240 C 
HETATM   13  O   UNL     1      44.172 -17.776   1.385  1.00  0.00    -0.274 OA
HETATM   14  H   UNL     1      42.244 -16.954   2.241  1.00  0.00     0.139 HD
BRANCH  12  15
HETATM   15  C   UNL     1      43.849 -19.794   2.615  1.00  0.00     0.060 A 
HETATM   16  C   UNL     1      44.462 -20.105   3.840  1.00  0.00     0.083 A 
HETATM   17  C   UNL     1      44.836 -21.421   4.131  1.00  0.00     0.038 A 
HETATM   18  C   UNL     1      44.569 -22.442   3.222  1.00  0.00     0.003 A 
HETATM   19  C   UNL     1      43.938 -22.149   2.014  1.00  0.00     0.001 A 
HETATM   20  C   UNL     1      43.589 -20.832   1.706  1.00  0.00     0.019 A 
BRANCH  16  21
HETATM   21  O   UNL     1      44.786 -19.145   4.761  1.00  0.00    -0.355 OA
HETATM   22  C   UNL     1      44.545 -19.618   6.086  1.00  0.00     0.210 C 
ENDBRANCH  16  21
ENDBRANCH  12  15
ENDBRANCH   9  11
ENDBRANCH   7   9
ENDBRANCH   1   7
BRANCH   2  23
HETATM   23  N   UNL     1      42.157 -14.396   3.785  1.00  0.00    -0.376 N 
HETATM   24  C   UNL     1      42.769 -13.845   2.561  1.00  0.00     0.143 C 
HETATM   25  C   UNL     1      42.065 -14.484   1.339  1.00  0.00     0.146 C 
HETATM   26  N   UNL     1      40.604 -14.299   1.409  1.00  0.00    -0.345 N 
HETATM   27  C   UNL     1      39.843 -13.644   0.453  1.00  0.00     0.253 C 
HETATM   28  C   UNL     1      39.983 -14.685   2.684  1.00  0.00     0.146 C 
HETATM   29  O   UNL     1      38.750 -13.140   0.679  1.00  0.00    -0.267 OA
HETATM   30  C   UNL     1      40.716 -14.074   3.890  1.00  0.00     0.143 C 
BRANCH  27  31
HETATM   31  C   UNL     1      40.367 -13.594  -0.929  1.00  0.00     0.032 A 
HETATM   32  C   UNL     1      40.851 -12.385  -1.446  1.00  0.00     0.017 A 
HETATM   33  C   UNL     1      41.369 -12.347  -2.739  1.00  0.00     0.001 A 
HETATM   34  C   UNL     1      41.408 -13.512  -3.507  1.00  0.00     0.000 A 
HETATM   35  C   UNL     1      40.940 -14.720  -2.981  1.00  0.00     0.001 A 
HETATM   36  C   UNL     1      40.426 -14.766  -1.685  1.00  0.00     0.017 A 
ENDBRANCH  27  31
ENDBRANCH   2  23
TORSDOF 7
ENDMDL
MODEL 3
REMARK VINA RESULT:      -8.9      3.140      7.457
REMARK  7 active torsions:
REMARK  status: ('A' for Active; 'I' for Inactive)
REMARK    1  A    between atoms: O_2  and  C_3 
REMARK    2  A    between atoms: C_4  and  C_5 
REMARK       I    between atoms: C_5  and  N_6 
REMARK    3  A    between atoms: N_6  and  C_7 
REMARK    4  A    between atoms: C_7  and  N_8 
REMARK    5  A    between atoms: N_8  and  C_9 
REMARK    6  A    between atoms: C_10  and  N_11 
REMARK       I    between atoms: N_14  and  C_15 
REMARK    7  A    between atoms: C_15  and  C_16 
ROOT
HETATM    1  C   UNL     1      42.083 -17.683   4.643  1.00  0.00     0.060 A 
HETATM    2  C   UNL     1      42.601 -17.695   3.327  1.00  0.00     0.057 A 
HETATM    3  C   UNL     1      43.703 -18.519   3.065  1.00  0.00     0.031 A 
HETATM    4  C   UNL     1      44.270 -19.301   4.077  1.00  0.00     0.002 A 
HETATM    5  C   UNL     1      43.751 -19.269   5.369  1.00  0.00     0.002 A 
HETATM    6  C   UNL     1      42.654 -18.458   5.656  1.00  0.00     0.032 A 
ENDROOT
BRANCH   1   7
HETATM    7  N   UNL     1      40.974 -16.849   4.914  1.00  0.00    -0.336 N 
HETATM    8  H   UNL     1      40.190 -17.004   4.292  1.00  0.00     0.168 HD
BRANCH   7   9
HETATM    9  C   UNL     1      40.995 -15.531   5.303  1.00  0.00     0.157 C 
HETATM   10  S   UNL     1      42.479 -14.916   5.778  1.00  0.00    -0.047 SA
BRANCH   9  11
HETATM   11  N   UNL     1      39.770 -14.894   5.348  1.00  0.00    -0.201 NA
HETATM   12  C   UNL     1      39.580 -13.524   5.253  1.00  0.00     0.240 C 
HETATM   13  O   UNL     1      39.188 -12.926   6.251  1.00  0.00    -0.274 OA
HETATM   14  H   UNL     1      39.293 -15.187   6.192  1.00  0.00     0.139 HD
BRANCH  12  15
HETATM   15  C   UNL     1      39.776 -12.845   3.941  1.00  0.00     0.060 A 
HETATM   16  C   UNL     1      40.767 -11.862   3.777  1.00  0.00     0.083 A 
HETATM   17  C   UNL     1      40.876 -11.161   2.572  1.00  0.00     0.038 A 
HETATM   18  C   UNL     1      40.026 -11.459   1.509  1.00  0.00     0.003 A 
HETATM   19  C   UNL     1      39.056 -12.450   1.652  1.00  0.00     0.001 A 
HETATM   20  C   UNL     1      38.924 -13.133   2.863  1.00  0.00     0.019 A 
BRANCH  16  21
HETATM   21  O   UNL     1      41.609 -11.495   4.793  1.00  0.00    -0.355 OA
HETATM   22  C   UNL     1      41.318 -10.167   5.230  1.00  0.00     0.210 C 
ENDBRANCH  16  21
ENDBRANCH  12  15
ENDBRANCH   9  11
ENDBRANCH   7   9
ENDBRANCH   1   7
BRANCH   2  23
HETATM   23  N   UNL     1      42.096 -16.784   2.393  1.00  0.00    -0.376 N 
HETATM   24  C   UNL     1      41.410 -17.347   1.214  1.00  0.00     0.143 C 
HETATM   25  C   UNL     1      40.485 -16.252   0.627  1.00  0.00     0.146 C 
HETATM   26  N   UNL     1      41.235 -15.015   0.345  1.00  0.00    -0.345 N 
HETATM   27  C   UNL     1      41.341 -14.422  -0.904  1.00  0.00     0.253 C 
HETATM   28  C   UNL     1      42.065 -14.518   1.451  1.00  0.00     0.146 C 
HETATM   29  O   UNL     1      42.252 -13.668  -1.226  1.00  0.00    -0.267 OA
HETATM   30  C   UNL     1      42.950 -15.624   2.049  1.00  0.00     0.143 C 
BRANCH  27  31
HETATM   31  C   UNL     1      40.264 -14.681  -1.883  1.00  0.00     0.032 A 
HETATM   32  C   UNL     1      40.463 -15.621  -2.903  1.00  0.00     0.017 A 
HETATM   33  C   UNL     1      39.437 -15.883  -3.808  1.00  0.00     0.001 A 
HETATM   34  C   UNL     1      38.218 -15.214  -3.690  1.00  0.00     0.000 A 
HETATM   35  C   UNL     1      38.017 -14.289  -2.661  1.00  0.00     0.001 A 
HETATM   36  C   UNL     1      39.039 -14.027  -1.748  1.00  0.00     0.017 A 
ENDBRANCH  27  31
ENDBRANCH   2  23
TORSDOF 7
ENDMDL
MODEL 4
REMARK VINA RESULT:      -8.9      2.358      2.894
REMARK  7 active torsions:
REMARK  status: ('A' for Active; 'I' for Inactive)
REMARK    1  A    between atoms: O_2  and  C_3 
REMARK    2  A    between atoms: C_4  and  C_5 
REMARK       I    between atoms: C_5  and  N_6 
REMARK    3  A    between atoms: N_6  and  C_7 
REMARK    4  A    between atoms: C_7  and  N_8 
REMARK    5  A    between atoms: N_8  and  C_9 
REMARK    6  A    between atoms: C_10  and  N_11 
REMARK       I    between atoms: N_14  and  C_15 
REMARK    7  A    between atoms: C_15  and  C_16 
ROOT
HETATM    1  C   UNL     1      39.726 -13.160   3.021  1.00  0.00     0.060 A 
HETATM    2  C   UNL     1      40.170 -14.241   3.818  1.00  0.00     0.057 A 
HETATM    3  C   UNL     1      39.980 -14.154   5.202  1.00  0.00     0.031 A 
HETATM    4  C   UNL     1      39.374 -13.031   5.774  1.00  0.00     0.002 A 
HETATM    5  C   UNL     1      38.951 -11.972   4.973  1.00  0.00     0.002 A 
HETATM    6  C   UNL     1      39.127 -12.034   3.591  1.00  0.00     0.032 A 
ENDROOT
BRANCH   1   7
HETATM    7  N   UNL     1      39.919 -13.241   1.623  1.00  0.00    -0.336 N 
HETATM    8  H   UNL     1      40.733 -12.733   1.297  1.00  0.00     0.168 HD
BRANCH   7   9
HETATM    9  C   UNL     1      38.954 -13.234   0.644  1.00  0.00     0.157 C 
HETATM   10  S   UNL     1      37.596 -14.173   0.927  1.00  0.00    -0.047 SA
BRANCH   9  11
HETATM   11  N   UNL     1      39.261 -12.527  -0.503  1.00  0.00    -0.201 NA
HETATM   12  C   UNL     1      40.100 -12.973  -1.513  1.00  0.00     0.240 C 
HETATM   13  O   UNL     1      41.176 -12.402  -1.663  1.00  0.00    -0.274 OA
HETATM   14  H   UNL     1      39.610 -11.617  -0.229  1.00  0.00     0.139 HD
BRANCH  12  15
HETATM   15  C   UNL     1      39.640 -14.060  -2.423  1.00  0.00     0.060 A 
HETATM   16  C   UNL     1      38.342 -14.051  -2.961  1.00  0.00     0.083 A 
HETATM   17  C   UNL     1      37.887 -15.126  -3.731  1.00  0.00     0.038 A 
HETATM   18  C   UNL     1      38.733 -16.199  -4.003  1.00  0.00     0.003 A 
HETATM   19  C   UNL     1      40.031 -16.207  -3.497  1.00  0.00     0.001 A 
HETATM   20  C   UNL     1      40.481 -15.149  -2.703  1.00  0.00     0.019 A 
BRANCH  16  21
HETATM   21  O   UNL     1      37.449 -13.046  -2.701  1.00  0.00    -0.355 OA
HETATM   22  C   UNL     1      37.255 -12.234  -3.860  1.00  0.00     0.210 C 
ENDBRANCH  16  21
ENDBRANCH  12  15
ENDBRANCH   9  11
ENDBRANCH   7   9
ENDBRANCH   1   7
BRANCH   2  23
HETATM   23  N   UNL     1      40.905 -15.268   3.216  1.00  0.00    -0.376 N 
HETATM   24  C   UNL     1      41.374 -16.357   4.093  1.00  0.00     0.143 C 
HETATM   25  C   UNL     1      41.655 -17.600   3.213  1.00  0.00     0.146 C 
HETATM   26  N   UNL     1      42.586 -17.276   2.116  1.00  0.00    -0.345 N 
HETATM   27  C   UNL     1      43.812 -17.890   1.913  1.00  0.00     0.253 C 
HETATM   28  C   UNL     1      42.233 -16.090   1.323  1.00  0.00     0.146 C 
HETATM   29  O   UNL     1      44.736 -17.378   1.292  1.00  0.00    -0.267 OA
HETATM   30  C   UNL     1      41.920 -14.875   2.212  1.00  0.00     0.143 C 
BRANCH  27  31
HETATM   31  C   UNL     1      43.993 -19.259   2.440  1.00  0.00     0.032 A 
HETATM   32  C   UNL     1      43.644 -20.361   1.648  1.00  0.00     0.017 A 
HETATM   33  C   UNL     1      43.841 -21.651   2.138  1.00  0.00     0.001 A 
HETATM   34  C   UNL     1      44.389 -21.836   3.408  1.00  0.00     0.000 A 
HETATM   35  C   UNL     1      44.751 -20.734   4.189  1.00  0.00     0.001 A 
HETATM   36  C   UNL     1      44.562 -19.440   3.702  1.00  0.00     0.017 A 
ENDBRANCH  27  31
ENDBRANCH   2  23
TORSDOF 7
ENDMDL
MODEL 5
REMARK VINA RESULT:      -8.8      6.197      9.178
REMARK  7 active torsions:
REMARK  status: ('A' for Active; 'I' for Inactive)
REMARK    1  A    between atoms: O_2  and  C_3 
REMARK    2  A    between atoms: C_4  and  C_5 
REMARK       I    between atoms: C_5  and  N_6 
REMARK    3  A    between atoms: N_6  and  C_7 
REMARK    4  A    between atoms: C_7  and  N_8 
REMARK    5  A    between atoms: N_8  and  C_9 
REMARK    6  A    between atoms: C_10  and  N_11 
REMARK       I    between atoms: N_14  and  C_15 
REMARK    7  A    between atoms: C_15  and  C_16 
ROOT
HETATM    1  C   UNL     1      41.331 -11.174   4.850  1.00  0.00     0.060 A 
HETATM    2  C   UNL     1      41.408 -12.213   3.893  1.00  0.00     0.057 A 
HETATM    3  C   UNL     1      41.076 -11.905   2.568  1.00  0.00     0.031 A 
HETATM    4  C   UNL     1      40.680 -10.613   2.208  1.00  0.00     0.002 A 
HETATM    5  C   UNL     1      40.601  -9.606   3.168  1.00  0.00     0.002 A 
HETATM    6  C   UNL     1      40.927  -9.884   4.494  1.00  0.00     0.032 A 
ENDROOT
BRANCH   1   7
HETATM    7  N   UNL     1      41.660 -11.479   6.191  1.00  0.00    -0.336 N 
HETATM    8  H   UNL     1      41.823 -12.466   6.353  1.00  0.00     0.168 HD
BRANCH   7   9
HETATM    9  C   UNL     1      41.141 -10.909   7.330  1.00  0.00     0.157 C 
HETATM   10  S   UNL     1      39.651 -11.480   7.838  1.00  0.00    -0.047 SA
BRANCH   9  11
HETATM   11  N   UNL     1      41.867  -9.864   7.867  1.00  0.00    -0.201 NA
HETATM   12  C   UNL     1      41.749  -9.396   9.167  1.00  0.00     0.240 C 
HETATM   13  O   UNL     1      41.265  -8.281   9.337  1.00  0.00    -0.274 OA
HETATM   14  H   UNL     1      41.751  -9.057   7.266  1.00  0.00     0.139 HD
BRANCH  12  15
HETATM   15  C   UNL     1      42.281 -10.216  10.292  1.00  0.00     0.060 A 
HETATM   16  C   UNL     1      43.480 -10.935  10.159  1.00  0.00     0.083 A 
HETATM   17  C   UNL     1      43.918 -11.780  11.184  1.00  0.00     0.038 A 
HETATM   18  C   UNL     1      43.185 -11.887  12.364  1.00  0.00     0.003 A 
HETATM   19  C   UNL     1      42.006 -11.158  12.518  1.00  0.00     0.001 A 
HETATM   20  C   UNL     1      41.550 -10.335  11.486  1.00  0.00     0.019 A 
BRANCH  16  21
HETATM   21  O   UNL     1      44.228 -10.905   9.012  1.00  0.00    -0.355 OA
HETATM   22  C   UNL     1      44.694 -12.214   8.682  1.00  0.00     0.210 C 
ENDBRANCH  16  21
ENDBRANCH  12  15
ENDBRANCH   9  11
ENDBRANCH   7   9
ENDBRANCH   1   7
BRANCH   2  23
HETATM   23  N   UNL     1      41.661 -13.517   4.330  1.00  0.00    -0.376 N 
HETATM   24  C   UNL     1      42.464 -14.376   3.438  1.00  0.00     0.143 C 
HETATM   25  C   UNL     1      43.079 -15.514   4.290  1.00  0.00     0.146 C 
HETATM   26  N   UNL     1      42.037 -16.242   5.038  1.00  0.00    -0.345 N 
HETATM   27  C   UNL     1      41.780 -17.599   4.917  1.00  0.00     0.253 C 
HETATM   28  C   UNL     1      41.111 -15.398   5.806  1.00  0.00     0.146 C 
HETATM   29  O   UNL     1      40.706 -18.117   5.199  1.00  0.00    -0.267 OA
HETATM   30  C   UNL     1      40.539 -14.250   4.958  1.00  0.00     0.143 C 
BRANCH  27  31
HETATM   31  C   UNL     1      42.884 -18.472   4.466  1.00  0.00     0.032 A 
HETATM   32  C   UNL     1      43.799 -18.975   5.401  1.00  0.00     0.017 A 
HETATM   33  C   UNL     1      44.824 -19.819   4.976  1.00  0.00     0.001 A 
HETATM   34  C   UNL     1      44.929 -20.162   3.627  1.00  0.00     0.000 A 
HETATM   35  C   UNL     1      44.004 -19.670   2.700  1.00  0.00     0.001 A 
HETATM   36  C   UNL     1      42.972 -18.830   3.120  1.00  0.00     0.017 A 
ENDBRANCH  27  31
ENDBRANCH   2  23
TORSDOF 7
ENDMDL
MODEL 6
REMARK VINA RESULT:      -8.8      2.481      3.827
REMARK  7 active torsions:
REMARK  status: ('A' for Active; 'I' for Inactive)
REMARK    1  A    between atoms: O_2  and  C_3 
REMARK    2  A    between atoms: C_4  and  C_5 
REMARK       I    between atoms: C_5  and  N_6 
REMARK    3  A    between atoms: N_6  and  C_7 
REMARK    4  A    between atoms: C_7  and  N_8 
REMARK    5  A    between atoms: N_8  and  C_9 
REMARK    6  A    between atoms: C_10  and  N_11 
REMARK       I    between atoms: N_14  and  C_15 
REMARK    7  A    between atoms: C_15  and  C_16 
ROOT
HETATM    1  C   UNL     1      39.964 -13.596  -0.263  1.00  0.00     0.060 A 
HETATM    2  C   UNL     1      39.486 -14.405   0.794  1.00  0.00     0.057 A 
HETATM    3  C   UNL     1      38.127 -14.316   1.122  1.00  0.00     0.031 A 
HETATM    4  C   UNL     1      37.276 -13.450   0.426  1.00  0.00     0.002 A 
HETATM    5  C   UNL     1      37.769 -12.654  -0.605  1.00  0.00     0.002 A 
HETATM    6  C   UNL     1      39.117 -12.725  -0.953  1.00  0.00     0.032 A 
ENDROOT
BRANCH   1   7
HETATM    7  N   UNL     1      41.336 -13.678  -0.595  1.00  0.00    -0.336 N 
HETATM    8  H   UNL     1      41.862 -14.294   0.012  1.00  0.00     0.168 HD
BRANCH   7   9
HETATM    9  C   UNL     1      42.152 -12.663  -1.035  1.00  0.00     0.157 C 
HETATM   10  S   UNL     1      42.486 -12.631  -2.676  1.00  0.00    -0.047 SA
BRANCH   9  11
HETATM   11  N   UNL     1      42.678 -11.843  -0.055  1.00  0.00    -0.201 NA
HETATM   12  C   UNL     1      42.246 -10.555   0.223  1.00  0.00     0.240 C 
HETATM   13  O   UNL     1      43.003  -9.624  -0.038  1.00  0.00    -0.274 OA
HETATM   14  H   UNL     1      43.678 -11.779  -0.200  1.00  0.00     0.139 HD
BRANCH  12  15
HETATM   15  C   UNL     1      40.931 -10.350   0.894  1.00  0.00     0.060 A 
HETATM   16  C   UNL     1      40.590 -11.070   2.050  1.00  0.00     0.083 A 
HETATM   17  C   UNL     1      39.316 -10.945   2.614  1.00  0.00     0.038 A 
HETATM   18  C   UNL     1      38.385 -10.074   2.052  1.00  0.00     0.003 A 
HETATM   19  C   UNL     1      38.720  -9.335   0.919  1.00  0.00     0.001 A 
HETATM   20  C   UNL     1      39.982  -9.478   0.336  1.00  0.00     0.019 A 
BRANCH  16  21
HETATM   21  O   UNL     1      41.444 -11.970   2.630  1.00  0.00    -0.355 OA
HETATM   22  C   UNL     1      41.528 -11.747   4.038  1.00  0.00     0.210 C 
ENDBRANCH  16  21
ENDBRANCH  12  15
ENDBRANCH   9  11
ENDBRANCH   7   9
ENDBRANCH   1   7
BRANCH   2  23
HETATM   23  N   UNL     1      40.403 -15.137   1.555  1.00  0.00    -0.376 N 
HETATM   24  C   UNL     1      40.786 -16.466   1.043  1.00  0.00     0.143 C 
HETATM   25  C   UNL     1      42.146 -16.854   1.675  1.00  0.00     0.146 C 
HETATM   26  N   UNL     1      42.091 -16.776   3.146  1.00  0.00    -0.345 N 
HETATM   27  C   UNL     1      42.334 -17.838   4.004  1.00  0.00     0.253 C 
HETATM   28  C   UNL     1      41.553 -15.520   3.688  1.00  0.00     0.146 C 
HETATM   29  O   UNL     1      41.909 -17.899   5.151  1.00  0.00    -0.267 OA
HETATM   30  C   UNL     1      40.223 -15.129   3.024  1.00  0.00     0.143 C 
BRANCH  27  31
HETATM   31  C   UNL     1      43.197 -18.934   3.515  1.00  0.00     0.032 A 
HETATM   32  C   UNL     1      44.270 -19.378   4.299  1.00  0.00     0.017 A 
HETATM   33  C   UNL     1      45.064 -20.430   3.847  1.00  0.00     0.001 A 
HETATM   34  C   UNL     1      44.784 -21.037   2.622  1.00  0.00     0.000 A 
HETATM   35  C   UNL     1      43.702 -20.602   1.850  1.00  0.00     0.001 A 
HETATM   36  C   UNL     1      42.899 -19.554   2.300  1.00  0.00     0.017 A 
ENDBRANCH  27  31
ENDBRANCH   2  23
TORSDOF 7
ENDMDL
MODEL 7
REMARK VINA RESULT:      -8.8      1.721      2.543
REMARK  7 active torsions:
REMARK  status: ('A' for Active; 'I' for Inactive)
REMARK    1  A    between atoms: O_2  and  C_3 
REMARK    2  A    between atoms: C_4  and  C_5 
REMARK       I    between atoms: C_5  and  N_6 
REMARK    3  A    between atoms: N_6  and  C_7 
REMARK    4  A    between atoms: C_7  and  N_8 
REMARK    5  A    between atoms: N_8  and  C_9 
REMARK    6  A    between atoms: C_10  and  N_11 
REMARK       I    between atoms: N_14  and  C_15 
REMARK    7  A    between atoms: C_15  and  C_16 
ROOT
HETATM    1  C   UNL     1      39.836 -14.594  -0.048  1.00  0.00     0.060 A 
HETATM    2  C   UNL     1      40.013 -14.894   1.323  1.00  0.00     0.057 A 
HETATM    3  C   UNL     1      39.174 -14.257   2.245  1.00  0.00     0.031 A 
HETATM    4  C   UNL     1      38.197 -13.351   1.820  1.00  0.00     0.002 A 
HETATM    5  C   UNL     1      38.044 -13.061   0.466  1.00  0.00     0.002 A 
HETATM    6  C   UNL     1      38.865 -13.683  -0.474  1.00  0.00     0.032 A 
ENDROOT
BRANCH   1   7
HETATM    7  N   UNL     1      40.683 -15.231  -0.983  1.00  0.00    -0.336 N 
HETATM    8  H   UNL     1      41.491 -15.673  -0.561  1.00  0.00     0.168 HD
BRANCH   7   9
HETATM    9  C   UNL     1      41.006 -14.799  -2.248  1.00  0.00     0.157 C 
HETATM   10  S   UNL     1      40.192 -15.528  -3.517  1.00  0.00    -0.047 SA
BRANCH   9  11
HETATM   11  N   UNL     1      42.035 -13.881  -2.328  1.00  0.00    -0.201 NA
HETATM   12  C   UNL     1      41.925 -12.604  -2.858  1.00  0.00     0.240 C 
HETATM   13  O   UNL     1      42.509 -12.364  -3.911  1.00  0.00    -0.274 OA
HETATM   14  H   UNL     1      42.812 -14.318  -2.808  1.00  0.00     0.139 HD
BRANCH  12  15
HETATM   15  C   UNL     1      41.179 -11.558  -2.102  1.00  0.00     0.060 A 
HETATM   16  C   UNL     1      41.505 -11.258  -0.769  1.00  0.00     0.083 A 
HETATM   17  C   UNL     1      40.736 -10.348  -0.038  1.00  0.00     0.038 A 
HETATM   18  C   UNL     1      39.659  -9.700  -0.640  1.00  0.00     0.003 A 
HETATM   19  C   UNL     1      39.341  -9.969  -1.971  1.00  0.00     0.001 A 
HETATM   20  C   UNL     1      40.090 -10.900  -2.696  1.00  0.00     0.019 A 
BRANCH  16  21
HETATM   21  O   UNL     1      42.526 -11.887  -0.107  1.00  0.00    -0.355 OA
HETATM   22  C   UNL     1      42.193 -12.074   1.269  1.00  0.00     0.210 C 
ENDBRANCH  16  21
ENDBRANCH  12  15
ENDBRANCH   9  11
ENDBRANCH   7   9
ENDBRANCH   1   7
BRANCH   2  23
HETATM   23  N   UNL     1      41.100 -15.687   1.707  1.00  0.00    -0.376 N 
HETATM   24  C   UNL     1      40.886 -17.146   1.734  1.00  0.00     0.143 C 
HETATM   25  C   UNL     1      42.268 -17.838   1.635  1.00  0.00     0.146 C 
HETATM   26  N   UNL     1      43.184 -17.351   2.683  1.00  0.00    -0.345 N 
HETATM   27  C   UNL     1      43.781 -18.151   3.645  1.00  0.00     0.253 C 
HETATM   28  C   UNL     1      43.291 -15.889   2.794  1.00  0.00     0.146 C 
HETATM   29  O   UNL     1      44.191 -17.733   4.721  1.00  0.00    -0.267 OA
HETATM   30  C   UNL     1      41.910 -15.214   2.852  1.00  0.00     0.143 C 
BRANCH  27  31
HETATM   31  C   UNL     1      43.974 -19.582   3.327  1.00  0.00     0.032 A 
HETATM   32  C   UNL     1      43.607 -20.070   2.066  1.00  0.00     0.017 A 
HETATM   33  C   UNL     1      43.815 -21.414   1.761  1.00  0.00     0.001 A 
HETATM   34  C   UNL     1      44.391 -22.262   2.708  1.00  0.00     0.000 A 
HETATM   35  C   UNL     1      44.771 -21.767   3.959  1.00  0.00     0.001 A 
HETATM   36  C   UNL     1      44.572 -20.421   4.269  1.00  0.00     0.017 A 
ENDBRANCH  27  31
ENDBRANCH   2  23
TORSDOF 7
ENDMDL
MODEL 8
REMARK VINA RESULT:      -8.7      2.505      3.568
REMARK  7 active torsions:
REMARK  status: ('A' for Active; 'I' for Inactive)
REMARK    1  A    between atoms: O_2  and  C_3 
REMARK    2  A    between atoms: C_4  and  C_5 
REMARK       I    between atoms: C_5  and  N_6 
REMARK    3  A    between atoms: N_6  and  C_7 
REMARK    4  A    between atoms: C_7  and  N_8 
REMARK    5  A    between atoms: N_8  and  C_9 
REMARK    6  A    between atoms: C_10  and  N_11 
REMARK       I    between atoms: N_14  and  C_15 
REMARK    7  A    between atoms: C_15  and  C_16 
ROOT
HETATM    1  C   UNL     1      39.609 -13.476   3.459  1.00  0.00     0.060 A 
HETATM    2  C   UNL     1      40.336 -14.420   4.223  1.00  0.00     0.057 A 
HETATM    3  C   UNL     1      40.448 -14.197   5.601  1.00  0.00     0.031 A 
HETATM    4  C   UNL     1      39.863 -13.076   6.197  1.00  0.00     0.002 A 
HETATM    5  C   UNL     1      39.159 -12.153   5.426  1.00  0.00     0.002 A 
HETATM    6  C   UNL     1      39.030 -12.351   4.052  1.00  0.00     0.032 A 
ENDROOT
BRANCH   1   7
HETATM    7  N   UNL     1      39.496 -13.693   2.067  1.00  0.00    -0.336 N 
HETATM    8  H   UNL     1      40.014 -14.499   1.740  1.00  0.00     0.168 HD
BRANCH   7   9
HETATM    9  C   UNL     1      39.454 -12.743   1.074  1.00  0.00     0.157 C 
HETATM   10  S   UNL     1      38.198 -12.868  -0.027  1.00  0.00    -0.047 SA
BRANCH   9  11
HETATM   11  N   UNL     1      40.510 -11.853   1.045  1.00  0.00    -0.201 NA
HETATM   12  C   UNL     1      41.723 -12.074   0.408  1.00  0.00     0.240 C 
HETATM   13  O   UNL     1      42.722 -12.219   1.106  1.00  0.00    -0.274 OA
HETATM   14  H   UNL     1      40.736 -11.599   1.999  1.00  0.00     0.139 HD
BRANCH  12  15
HETATM   15  C   UNL     1      41.785 -12.047  -1.081  1.00  0.00     0.060 A 
HETATM   16  C   UNL     1      41.580 -13.214  -1.834  1.00  0.00     0.083 A 
HETATM   17  C   UNL     1      41.739 -13.199  -3.224  1.00  0.00     0.038 A 
HETATM   18  C   UNL     1      42.067 -12.013  -3.877  1.00  0.00     0.003 A 
HETATM   19  C   UNL     1      42.248 -10.842  -3.143  1.00  0.00     0.001 A 
HETATM   20  C   UNL     1      42.117 -10.859  -1.752  1.00  0.00     0.019 A 
BRANCH  16  21
HETATM   21  O   UNL     1      41.294 -14.421  -1.252  1.00  0.00    -0.355 OA
HETATM   22  C   UNL     1      40.989 -15.399  -2.246  1.00  0.00     0.210 C 
ENDBRANCH  16  21
ENDBRANCH  12  15
ENDBRANCH   9  11
ENDBRANCH   7   9
ENDBRANCH   1   7
BRANCH   2  23
HETATM   23  N   UNL     1      41.028 -15.438   3.559  1.00  0.00    -0.376 N 
HETATM   24  C   UNL     1      41.517 -16.560   4.383  1.00  0.00     0.143 C 
HETATM   25  C   UNL     1      41.741 -17.779   3.453  1.00  0.00     0.146 C 
HETATM   26  N   UNL     1      42.629 -17.435   2.328  1.00  0.00    -0.345 N 
HETATM   27  C   UNL     1      43.836 -18.059   2.054  1.00  0.00     0.253 C 
HETATM   28  C   UNL     1      42.261 -16.220   1.587  1.00  0.00     0.146 C 
HETATM   29  O   UNL     1      44.741 -17.542   1.410  1.00  0.00    -0.267 OA
HETATM   30  C   UNL     1      42.005 -15.029   2.525  1.00  0.00     0.143 C 
BRANCH  27  31
HETATM   31  C   UNL     1      44.018 -19.446   2.532  1.00  0.00     0.032 A 
HETATM   32  C   UNL     1      43.662 -20.519   1.703  1.00  0.00     0.017 A 
HETATM   33  C   UNL     1      43.860 -21.826   2.145  1.00  0.00     0.001 A 
HETATM   34  C   UNL     1      44.414 -22.058   3.405  1.00  0.00     0.000 A 
HETATM   35  C   UNL     1      44.783 -20.984   4.222  1.00  0.00     0.001 A 
HETATM   36  C   UNL     1      44.594 -19.674   3.782  1.00  0.00     0.017 A 
ENDBRANCH  27  31
ENDBRANCH   2  23
TORSDOF 7
ENDMDL
MODEL 9
REMARK VINA RESULT:      -8.6      2.265      2.876
REMARK  7 active torsions:
REMARK  status: ('A' for Active; 'I' for Inactive)
REMARK    1  A    between atoms: O_2  and  C_3 
REMARK    2  A    between atoms: C_4  and  C_5 
REMARK       I    between atoms: C_5  and  N_6 
REMARK    3  A    between atoms: N_6  and  C_7 
REMARK    4  A    between atoms: C_7  and  N_8 
REMARK    5  A    between atoms: N_8  and  C_9 
REMARK    6  A    between atoms: C_10  and  N_11 
REMARK       I    between atoms: N_14  and  C_15 
REMARK    7  A    between atoms: C_15  and  C_16 
ROOT
HETATM    1  C   UNL     1      41.098 -13.773   3.373  1.00  0.00     0.060 A 
HETATM    2  C   UNL     1      41.091 -14.648   4.484  1.00  0.00     0.057 A 
HETATM    3  C   UNL     1      40.189 -14.380   5.521  1.00  0.00     0.031 A 
HETATM    4  C   UNL     1      39.329 -13.279   5.458  1.00  0.00     0.002 A 
HETATM    5  C   UNL     1      39.358 -12.423   4.359  1.00  0.00     0.002 A 
HETATM    6  C   UNL     1      40.244 -12.668   3.312  1.00  0.00     0.032 A 
ENDROOT
BRANCH   1   7
HETATM    7  N   UNL     1      42.009 -14.036   2.325  1.00  0.00    -0.336 N 
HETATM    8  H   UNL     1      42.854 -13.479   2.375  1.00  0.00     0.168 HD
BRANCH   7   9
HETATM    9  C   UNL     1      41.715 -14.303   1.009  1.00  0.00     0.157 C 
HETATM   10  S   UNL     1      41.609 -15.918   0.580  1.00  0.00    -0.047 SA
BRANCH   9  11
HETATM   11  N   UNL     1      41.635 -13.206   0.173  1.00  0.00    -0.201 NA
HETATM   12  C   UNL     1      41.663 -13.256  -1.213  1.00  0.00     0.240 C 
HETATM   13  O   UNL     1      42.646 -12.796  -1.787  1.00  0.00    -0.274 OA
HETATM   14  H   UNL     1      42.356 -12.548   0.445  1.00  0.00     0.139 HD
BRANCH  12  15
HETATM   15  C   UNL     1      40.481 -13.783  -1.952  1.00  0.00     0.060 A 
HETATM   16  C   UNL     1      39.175 -13.522  -1.507  1.00  0.00     0.083 A 
HETATM   17  C   UNL     1      38.077 -14.104  -2.148  1.00  0.00     0.038 A 
HETATM   18  C   UNL     1      38.269 -14.920  -3.261  1.00  0.00     0.003 A 
HETATM   19  C   UNL     1      39.559 -15.167  -3.728  1.00  0.00     0.001 A 
HETATM   20  C   UNL     1      40.661 -14.610  -3.073  1.00  0.00     0.019 A 
BRANCH  16  21
HETATM   21  O   UNL     1      38.918 -12.760  -0.398  1.00  0.00    -0.355 OA
HETATM   22  C   UNL     1      37.841 -13.317   0.356  1.00  0.00     0.210 C 
ENDBRANCH  16  21
ENDBRANCH  12  15
ENDBRANCH   9  11
ENDBRANCH   7   9
ENDBRANCH   1   7
BRANCH   2  23
HETATM   23  N   UNL     1      42.072 -15.642   4.569  1.00  0.00    -0.376 N 
HETATM   24  C   UNL     1      41.708 -16.984   4.076  1.00  0.00     0.143 C 
HETATM   25  C   UNL     1      43.015 -17.747   3.747  1.00  0.00     0.146 C 
HETATM   26  N   UNL     1      43.928 -17.765   4.905  1.00  0.00    -0.345 N 
HETATM   27  C   UNL     1      44.396 -18.913   5.524  1.00  0.00     0.253 C 
HETATM   28  C   UNL     1      44.179 -16.457   5.526  1.00  0.00     0.146 C 
HETATM   29  O   UNL     1      44.798 -18.949   6.681  1.00  0.00    -0.267 OA
HETATM   30  C   UNL     1      42.875 -15.695   5.812  1.00  0.00     0.143 C 
BRANCH  27  31
HETATM   31  C   UNL     1      44.455 -20.154   4.722  1.00  0.00     0.032 A 
HETATM   32  C   UNL     1      44.448 -20.078   3.323  1.00  0.00     0.017 A 
HETATM   33  C   UNL     1      44.531 -21.248   2.569  1.00  0.00     0.001 A 
HETATM   34  C   UNL     1      44.625 -22.483   3.212  1.00  0.00     0.000 A 
HETATM   35  C   UNL     1      44.648 -22.553   4.608  1.00  0.00     0.001 A 
HETATM   36  C   UNL     1      44.572 -21.385   5.368  1.00  0.00     0.017 A 
ENDBRANCH  27  31
ENDBRANCH   2  23
TORSDOF 7
ENDMDL
MODEL 10
REMARK VINA RESULT:      -8.6      2.519      3.315
REMARK  7 active torsions:
REMARK  status: ('A' for Active; 'I' for Inactive)
REMARK    1  A    between atoms: O_2  and  C_3 
REMARK    2  A    between atoms: C_4  and  C_5 
REMARK       I    between atoms: C_5  and  N_6 
REMARK    3  A    between atoms: N_6  and  C_7 
REMARK    4  A    between atoms: C_7  and  N_8 
REMARK    5  A    between atoms: N_8  and  C_9 
REMARK    6  A    between atoms: C_10  and  N_11 
REMARK       I    between atoms: N_14  and  C_15 
REMARK    7  A    between atoms: C_15  and  C_16 
ROOT
HETATM    1  C   UNL     1      40.920 -13.241   3.833  1.00  0.00     0.060 A 
HETATM    2  C   UNL     1      40.905 -14.277   4.796  1.00  0.00     0.057 A 
HETATM    3  C   UNL     1      40.011 -14.159   5.868  1.00  0.00     0.031 A 
HETATM    4  C   UNL     1      39.165 -13.051   5.979  1.00  0.00     0.002 A 
HETATM    5  C   UNL     1      39.202 -12.036   5.024  1.00  0.00     0.002 A 
HETATM    6  C   UNL     1      40.081 -12.129   3.946  1.00  0.00     0.032 A 
ENDROOT
BRANCH   1   7
HETATM    7  N   UNL     1      41.824 -13.352   2.751  1.00  0.00    -0.336 N 
HETATM    8  H   UNL     1      42.694 -12.857   2.900  1.00  0.00     0.168 HD
BRANCH   7   9
HETATM    9  C   UNL     1      41.524 -13.359   1.409  1.00  0.00     0.157 C 
HETATM   10  S   UNL     1      42.052 -12.041   0.520  1.00  0.00    -0.047 SA
BRANCH   9  11
HETATM   11  N   UNL     1      40.740 -14.407   0.970  1.00  0.00    -0.201 NA
HETATM   12  C   UNL     1      39.369 -14.510   1.158  1.00  0.00     0.240 C 
HETATM   13  O   UNL     1      38.955 -15.382   1.916  1.00  0.00    -0.274 OA
HETATM   14  H   UNL     1      41.137 -15.269   1.323  1.00  0.00     0.139 HD
BRANCH  12  15
HETATM   15  C   UNL     1      38.454 -13.627   0.381  1.00  0.00     0.060 A 
HETATM   16  C   UNL     1      38.523 -13.569  -1.021  1.00  0.00     0.083 A 
HETATM   17  C   UNL     1      37.730 -12.664  -1.733  1.00  0.00     0.038 A 
HETATM   18  C   UNL     1      36.835 -11.836  -1.058  1.00  0.00     0.003 A 
HETATM   19  C   UNL     1      36.739 -11.903   0.331  1.00  0.00     0.001 A 
HETATM   20  C   UNL     1      37.550 -12.786   1.049  1.00  0.00     0.019 A 
BRANCH  16  21
HETATM   21  O   UNL     1      39.407 -14.327  -1.742  1.00  0.00    -0.355 OA
HETATM   22  C   UNL     1      40.238 -13.494  -2.552  1.00  0.00     0.210 C 
ENDBRANCH  16  21
ENDBRANCH  12  15
ENDBRANCH   9  11
ENDBRANCH   7   9
ENDBRANCH   1   7
BRANCH   2  23
HETATM   23  N   UNL     1      41.873 -15.284   4.722  1.00  0.00    -0.376 N 
HETATM   24  C   UNL     1      41.475 -16.547   4.072  1.00  0.00     0.143 C 
HETATM   25  C   UNL     1      42.760 -17.276   3.607  1.00  0.00     0.146 C 
HETATM   26  N   UNL     1      43.705 -17.454   4.725  1.00  0.00    -0.345 N 
HETATM   27  C   UNL     1      44.174 -18.678   5.176  1.00  0.00     0.253 C 
HETATM   28  C   UNL     1      43.994 -16.240   5.501  1.00  0.00     0.146 C 
HETATM   29  O   UNL     1      44.608 -18.867   6.307  1.00  0.00    -0.267 OA
HETATM   30  C   UNL     1      42.710 -15.506   5.923  1.00  0.00     0.143 C 
BRANCH  27  31
HETATM   31  C   UNL     1      44.190 -19.804   4.220  1.00  0.00     0.032 A 
HETATM   32  C   UNL     1      43.830 -19.587   2.883  1.00  0.00     0.017 A 
HETATM   33  C   UNL     1      43.873 -20.646   1.977  1.00  0.00     0.001 A 
HETATM   34  C   UNL     1      44.278 -21.911   2.405  1.00  0.00     0.000 A 
HETATM   35  C   UNL     1      44.653 -22.120   3.736  1.00  0.00     0.001 A 
HETATM   36  C   UNL     1      44.618 -21.063   4.646  1.00  0.00     0.017 A 
ENDBRANCH  27  31
ENDBRANCH   2  23
TORSDOF 7
ENDMDL
