MODEL 1
REMARK VINA RESULT:      -7.8      0.000      0.000
REMARK  3 active torsions:
REMARK  status: ('A' for Active; 'I' for Inactive)
REMARK    1  A    between atoms: C_3  and  N_4 
REMARK       I    between atoms: N_4  and  C_5 
REMARK    2  A    between atoms: C_5  and  C_6 
REMARK    3  A    between atoms: C_9  and  N_10 
REMARK       I    between atoms: N_10  and  C_11 
ROOT
HETATM    1  N   UNL     1      43.758 -14.376   7.211  1.00  0.00    -0.321 N 
HETATM    2  C   UNL     1      44.865 -13.580   7.449  1.00  0.00     0.256 C 
HETATM    3  O   UNL     1      45.908 -13.582   6.806  1.00  0.00    -0.267 OA
HETATM    4  H   UNL     1      42.902 -14.037   7.619  1.00  0.00     0.169 HD
ENDROOT
BRANCH   2   5
HETATM    5  C   UNL     1      44.716 -12.541   8.523  1.00  0.00     0.032 A 
HETATM    6  C   UNL     1      45.691 -12.274   9.492  1.00  0.00     0.019 A 
HETATM    7  C   UNL     1      45.436 -11.356  10.523  1.00  0.00     0.030 A 
HETATM    8  C   UNL     1      44.219 -10.676  10.591  1.00  0.00     0.034 A 
HETATM    9  C   UNL     1      43.270 -10.896   9.589  1.00  0.00     0.030 A 
HETATM   10  C   UNL     1      43.514 -11.821   8.568  1.00  0.00     0.019 A 
BRANCH   8  11
HETATM   11  N   UNL     1      43.866  -9.780  11.620  1.00  0.00    -0.328 N 
HETATM   12  C   UNL     1      43.216 -10.075  12.806  1.00  0.00     0.218 C 
HETATM   13  C   UNL     1      42.961  -8.837  13.628  1.00  0.00     0.117 C 
HETATM   14  O   UNL     1      42.863 -11.181  13.200  1.00  0.00    -0.274 OA
HETATM   15  H   UNL     1      44.070  -8.803  11.449  1.00  0.00     0.169 HD
ENDBRANCH   8  11
ENDBRANCH   2   5
BRANCH   1  16
HETATM   16  C   UNL     1      43.580 -15.313   6.152  1.00  0.00     0.065 C 
HETATM   17  C   UNL     1      43.747 -16.705   6.255  1.00  0.00    -0.031 C 
HETATM   18  C   UNL     1      43.938 -17.466   7.538  1.00  0.00     0.050 C 
HETATM   19  C   UNL     1      43.691 -17.480   5.082  1.00  0.00     0.035 C 
HETATM   20  C   UNL     1      43.386 -16.886   3.867  1.00  0.00     0.031 C 
HETATM   21  N   UNL     1      43.107 -15.574   3.764  1.00  0.00    -0.256 NA
HETATM   22  C   UNL     1      43.359 -17.699   2.608  1.00  0.00     0.070 C 
HETATM   23  C   UNL     1      43.194 -14.812   4.887  1.00  0.00     0.058 C 
HETATM   24  C   UNL     1      42.868 -13.360   4.664  1.00  0.00     0.073 C 
ENDBRANCH   1  16
TORSDOF 3
ENDMDL
MODEL 2
REMARK VINA RESULT:      -7.7      2.529      4.594
REMARK  3 active torsions:
REMARK  status: ('A' for Active; 'I' for Inactive)
REMARK    1  A    between atoms: C_3  and  N_4 
REMARK       I    between atoms: N_4  and  C_5 
REMARK    2  A    between atoms: C_5  and  C_6 
REMARK    3  A    between atoms: C_9  and  N_10 
REMARK       I    between atoms: N_10  and  C_11 
ROOT
HETATM    1  N   UNL     1      43.991 -16.953   4.305  1.00  0.00    -0.321 N 
HETATM    2  C   UNL     1      42.889 -16.273   4.792  1.00  0.00     0.256 C 
HETATM    3  O   UNL     1      41.715 -16.561   4.589  1.00  0.00    -0.267 OA
HETATM    4  H   UNL     1      44.847 -16.780   4.807  1.00  0.00     0.169 HD
ENDROOT
BRANCH   2   5
HETATM    5  C   UNL     1      43.171 -15.154   5.753  1.00  0.00     0.032 A 
HETATM    6  C   UNL     1      42.421 -13.974   5.820  1.00  0.00     0.019 A 
HETATM    7  C   UNL     1      42.809 -12.932   6.676  1.00  0.00     0.030 A 
HETATM    8  C   UNL     1      43.933 -13.058   7.494  1.00  0.00     0.034 A 
HETATM    9  C   UNL     1      44.647 -14.260   7.473  1.00  0.00     0.030 A 
HETATM   10  C   UNL     1      44.272 -15.295   6.610  1.00  0.00     0.019 A 
BRANCH   8  11
HETATM   11  N   UNL     1      44.417 -12.041   8.341  1.00  0.00    -0.328 N 
HETATM   12  C   UNL     1      44.589 -12.100   9.712  1.00  0.00     0.218 C 
HETATM   13  C   UNL     1      45.073 -10.786  10.273  1.00  0.00     0.117 C 
HETATM   14  O   UNL     1      44.392 -13.065  10.441  1.00  0.00    -0.274 OA
HETATM   15  H   UNL     1      44.614 -11.152   7.899  1.00  0.00     0.169 HD
ENDBRANCH   8  11
ENDBRANCH   2   5
BRANCH   1  16
HETATM   16  C   UNL     1      43.995 -18.144   3.520  1.00  0.00     0.065 C 
HETATM   17  C   UNL     1      43.666 -18.224   2.157  1.00  0.00    -0.031 C 
HETATM   18  C   UNL     1      43.455 -17.050   1.241  1.00  0.00     0.050 C 
HETATM   19  C   UNL     1      43.562 -19.496   1.562  1.00  0.00     0.035 C 
HETATM   20  C   UNL     1      43.869 -20.634   2.291  1.00  0.00     0.031 C 
HETATM   21  N   UNL     1      44.299 -20.572   3.564  1.00  0.00    -0.256 NA
HETATM   22  C   UNL     1      43.726 -21.993   1.675  1.00  0.00     0.070 C 
HETATM   23  C   UNL     1      44.368 -19.351   4.157  1.00  0.00     0.058 C 
HETATM   24  C   UNL     1      44.855 -19.391   5.579  1.00  0.00     0.073 C 
ENDBRANCH   1  16
TORSDOF 3
ENDMDL
MODEL 3
REMARK VINA RESULT:      -7.5      3.715      5.468
REMARK  3 active torsions:
REMARK  status: ('A' for Active; 'I' for Inactive)
REMARK    1  A    between atoms: C_3  and  N_4 
REMARK       I    between atoms: N_4  and  C_5 
REMARK    2  A    between atoms: C_5  and  C_6 
REMARK    3  A    between atoms: C_9  and  N_10 
REMARK       I    between atoms: N_10  and  C_11 
ROOT
HETATM    1  N   UNL     1      43.215 -16.886   3.964  1.00  0.00    -0.321 N 
HETATM    2  C   UNL     1      41.911 -16.423   3.982  1.00  0.00     0.256 C 
HETATM    3  O   UNL     1      40.923 -17.032   3.590  1.00  0.00    -0.267 OA
HETATM    4  H   UNL     1      43.840 -16.405   4.590  1.00  0.00     0.169 HD
ENDROOT
BRANCH   2   5
HETATM    5  C   UNL     1      41.687 -15.099   4.654  1.00  0.00     0.032 A 
HETATM    6  C   UNL     1      40.553 -14.792   5.416  1.00  0.00     0.019 A 
HETATM    7  C   UNL     1      40.370 -13.498   5.929  1.00  0.00     0.030 A 
HETATM    8  C   UNL     1      41.322 -12.500   5.711  1.00  0.00     0.034 A 
HETATM    9  C   UNL     1      42.483 -12.823   5.003  1.00  0.00     0.030 A 
HETATM   10  C   UNL     1      42.662 -14.107   4.477  1.00  0.00     0.019 A 
BRANCH   8  11
HETATM   11  N   UNL     1      41.188 -11.167   6.147  1.00  0.00    -0.328 N 
HETATM   12  C   UNL     1      41.763 -10.585   7.263  1.00  0.00     0.218 C 
HETATM   13  C   UNL     1      41.334  -9.148   7.430  1.00  0.00     0.117 C 
HETATM   14  O   UNL     1      42.532 -11.112   8.058  1.00  0.00    -0.274 OA
HETATM   15  H   UNL     1      40.560 -10.584   5.607  1.00  0.00     0.169 HD
ENDBRANCH   8  11
ENDBRANCH   2   5
BRANCH   1  16
HETATM   16  C   UNL     1      43.670 -18.170   3.543  1.00  0.00     0.065 C 
HETATM   17  C   UNL     1      43.747 -18.613   2.211  1.00  0.00    -0.031 C 
HETATM   18  C   UNL     1      43.564 -17.749   0.994  1.00  0.00     0.050 C 
HETATM   19  C   UNL     1      44.066 -19.962   1.967  1.00  0.00     0.035 C 
HETATM   20  C   UNL     1      44.384 -20.806   3.019  1.00  0.00     0.031 C 
HETATM   21  N   UNL     1      44.430 -20.373   4.293  1.00  0.00    -0.256 NA
HETATM   22  C   UNL     1      44.688 -22.252   2.770  1.00  0.00     0.070 C 
HETATM   23  C   UNL     1      44.088 -19.081   4.541  1.00  0.00     0.058 C 
HETATM   24  C   UNL     1      44.168 -18.699   5.994  1.00  0.00     0.073 C 
ENDBRANCH   1  16
TORSDOF 3
ENDMDL
MODEL 4
REMARK VINA RESULT:      -7.4      3.807      5.172
REMARK  3 active torsions:
REMARK  status: ('A' for Active; 'I' for Inactive)
REMARK    1  A    between atoms: C_3  and  N_4 
REMARK       I    between atoms: N_4  and  C_5 
REMARK    2  A    between atoms: C_5  and  C_6 
REMARK    3  A    between atoms: C_9  and  N_10 
REMARK       I    between atoms: N_10  and  C_11 
ROOT
HETATM    1  N   UNL     1      42.737 -16.986   4.059  1.00  0.00    -0.321 N 
HETATM    2  C   UNL     1      41.674 -16.698   4.898  1.00  0.00     0.256 C 
HETATM    3  O   UNL     1      40.923 -17.515   5.417  1.00  0.00    -0.267 OA
HETATM    4  H   UNL     1      43.419 -16.249   3.978  1.00  0.00     0.169 HD
ENDROOT
BRANCH   2   5
HETATM    5  C   UNL     1      41.512 -15.259   5.294  1.00  0.00     0.032 A 
HETATM    6  C   UNL     1      40.291 -14.683   5.663  1.00  0.00     0.019 A 
HETATM    7  C   UNL     1      40.203 -13.306   5.923  1.00  0.00     0.030 A 
HETATM    8  C   UNL     1      41.332 -12.490   5.842  1.00  0.00     0.034 A 
HETATM    9  C   UNL     1      42.564 -13.075   5.535  1.00  0.00     0.030 A 
HETATM   10  C   UNL     1      42.653 -14.443   5.260  1.00  0.00     0.019 A 
BRANCH   8  11
HETATM   11  N   UNL     1      41.318 -11.094   6.037  1.00  0.00    -0.328 N 
HETATM   12  C   UNL     1      41.623 -10.403   7.197  1.00  0.00     0.218 C 
HETATM   13  C   UNL     1      41.433  -8.916   7.030  1.00  0.00     0.117 C 
HETATM   14  O   UNL     1      42.005 -10.877   8.261  1.00  0.00    -0.274 OA
HETATM   15  H   UNL     1      41.000 -10.539   5.252  1.00  0.00     0.169 HD
ENDBRANCH   8  11
ENDBRANCH   2   5
BRANCH   1  16
HETATM   16  C   UNL     1      43.207 -18.274   3.671  1.00  0.00     0.065 C 
HETATM   17  C   UNL     1      44.051 -19.101   4.432  1.00  0.00    -0.031 C 
HETATM   18  C   UNL     1      44.436 -18.866   5.867  1.00  0.00     0.050 C 
HETATM   19  C   UNL     1      44.555 -20.276   3.843  1.00  0.00     0.035 C 
HETATM   20  C   UNL     1      44.151 -20.647   2.571  1.00  0.00     0.031 C 
HETATM   21  N   UNL     1      43.254 -19.931   1.869  1.00  0.00    -0.256 NA
HETATM   22  C   UNL     1      44.712 -21.877   1.923  1.00  0.00     0.070 C 
HETATM   23  C   UNL     1      42.789 -18.777   2.416  1.00  0.00     0.058 C 
HETATM   24  C   UNL     1      41.796 -18.050   1.551  1.00  0.00     0.073 C 
ENDBRANCH   1  16
TORSDOF 3
ENDMDL
MODEL 5
REMARK VINA RESULT:      -7.3      7.992     10.100
REMARK  3 active torsions:
REMARK  status: ('A' for Active; 'I' for Inactive)
REMARK    1  A    between atoms: C_3  and  N_4 
REMARK       I    between atoms: N_4  and  C_5 
REMARK    2  A    between atoms: C_5  and  C_6 
REMARK    3  A    between atoms: C_9  and  N_10 
REMARK       I    between atoms: N_10  and  C_11 
ROOT
HETATM    1  N   UNL     1      42.069 -14.986  -0.304  1.00  0.00    -0.321 N 
HETATM    2  C   UNL     1      41.397 -15.649   0.708  1.00  0.00     0.256 C 
HETATM    3  O   UNL     1      40.193 -15.595   0.931  1.00  0.00    -0.267 OA
HETATM    4  H   UNL     1      42.969 -15.373  -0.534  1.00  0.00     0.169 HD
ENDROOT
BRANCH   2   5
HETATM    5  C   UNL     1      42.210 -16.612   1.525  1.00  0.00     0.032 A 
HETATM    6  C   UNL     1      43.417 -17.176   1.094  1.00  0.00     0.019 A 
HETATM    7  C   UNL     1      44.067 -18.145   1.874  1.00  0.00     0.030 A 
HETATM    8  C   UNL     1      43.540 -18.547   3.102  1.00  0.00     0.034 A 
HETATM    9  C   UNL     1      42.368 -17.938   3.562  1.00  0.00     0.030 A 
HETATM   10  C   UNL     1      41.709 -16.984   2.780  1.00  0.00     0.019 A 
BRANCH   8  11
HETATM   11  N   UNL     1      44.103 -19.548   3.918  1.00  0.00    -0.328 N 
HETATM   12  C   UNL     1      44.512 -20.814   3.536  1.00  0.00     0.218 C 
HETATM   13  C   UNL     1      45.010 -21.621   4.709  1.00  0.00     0.117 C 
HETATM   14  O   UNL     1      44.499 -21.284   2.404  1.00  0.00    -0.274 OA
HETATM   15  H   UNL     1      44.170 -19.332   4.905  1.00  0.00     0.169 HD
ENDBRANCH   8  11
ENDBRANCH   2   5
BRANCH   1  16
HETATM   16  C   UNL     1      41.504 -14.155  -1.316  1.00  0.00     0.065 C 
HETATM   17  C   UNL     1      40.950 -14.603  -2.527  1.00  0.00    -0.031 C 
HETATM   18  C   UNL     1      40.668 -16.039  -2.877  1.00  0.00     0.050 C 
HETATM   19  C   UNL     1      40.579 -13.649  -3.493  1.00  0.00     0.035 C 
HETATM   20  C   UNL     1      40.676 -12.296  -3.210  1.00  0.00     0.031 C 
HETATM   21  N   UNL     1      41.094 -11.844  -2.013  1.00  0.00    -0.256 NA
HETATM   22  C   UNL     1      40.316 -11.275  -4.247  1.00  0.00     0.070 C 
HETATM   23  C   UNL     1      41.488 -12.759  -1.088  1.00  0.00     0.058 C 
HETATM   24  C   UNL     1      41.941 -12.153   0.212  1.00  0.00     0.073 C 
ENDBRANCH   1  16
TORSDOF 3
ENDMDL
MODEL 6
REMARK VINA RESULT:      -7.2      8.248     10.450
REMARK  3 active torsions:
REMARK  status: ('A' for Active; 'I' for Inactive)
REMARK    1  A    between atoms: C_3  and  N_4 
REMARK       I    between atoms: N_4  and  C_5 
REMARK    2  A    between atoms: C_5  and  C_6 
REMARK    3  A    between atoms: C_9  and  N_10 
REMARK       I    between atoms: N_10  and  C_11 
ROOT
HETATM    1  N   UNL     1      41.972 -15.036  -0.242  1.00  0.00    -0.321 N 
HETATM    2  C   UNL     1      41.476 -15.604   0.919  1.00  0.00     0.256 C 
HETATM    3  O   UNL     1      40.412 -15.329   1.460  1.00  0.00    -0.267 OA
HETATM    4  H   UNL     1      42.682 -15.579  -0.705  1.00  0.00     0.169 HD
ENDROOT
BRANCH   2   5
HETATM    5  C   UNL     1      42.271 -16.743   1.491  1.00  0.00     0.032 A 
HETATM    6  C   UNL     1      43.455 -17.230   0.926  1.00  0.00     0.019 A 
HETATM    7  C   UNL     1      44.086 -18.363   1.464  1.00  0.00     0.030 A 
HETATM    8  C   UNL     1      43.560 -19.011   2.583  1.00  0.00     0.034 A 
HETATM    9  C   UNL     1      42.412 -18.488   3.184  1.00  0.00     0.030 A 
HETATM   10  C   UNL     1      41.772 -17.369   2.642  1.00  0.00     0.019 A 
BRANCH   8  11
HETATM   11  N   UNL     1      44.103 -20.182   3.150  1.00  0.00    -0.328 N 
HETATM   12  C   UNL     1      44.063 -21.464   2.633  1.00  0.00     0.218 C 
HETATM   13  C   UNL     1      44.703 -22.465   3.563  1.00  0.00     0.117 C 
HETATM   14  O   UNL     1      43.582 -21.814   1.561  1.00  0.00    -0.274 OA
HETATM   15  H   UNL     1      44.528 -20.077   4.064  1.00  0.00     0.169 HD
ENDBRANCH   8  11
ENDBRANCH   2   5
BRANCH   1  16
HETATM   16  C   UNL     1      41.334 -14.065  -1.069  1.00  0.00     0.065 C 
HETATM   17  C   UNL     1      41.242 -12.690  -0.793  1.00  0.00    -0.031 C 
HETATM   18  C   UNL     1      41.971 -11.973   0.309  1.00  0.00     0.050 C 
HETATM   19  C   UNL     1      40.443 -11.887  -1.628  1.00  0.00     0.035 C 
HETATM   20  C   UNL     1      39.837 -12.432  -2.749  1.00  0.00     0.031 C 
HETATM   21  N   UNL     1      40.008 -13.720  -3.098  1.00  0.00    -0.256 NA
HETATM   22  C   UNL     1      38.956 -11.591  -3.622  1.00  0.00     0.070 C 
HETATM   23  C   UNL     1      40.749 -14.511  -2.277  1.00  0.00     0.058 C 
HETATM   24  C   UNL     1      40.874 -15.933  -2.753  1.00  0.00     0.073 C 
ENDBRANCH   1  16
TORSDOF 3
ENDMDL
MODEL 7
REMARK VINA RESULT:      -7.1      5.038      6.205
REMARK  3 active torsions:
REMARK  status: ('A' for Active; 'I' for Inactive)
REMARK    1  A    between atoms: C_3  and  N_4 
REMARK       I    between atoms: N_4  and  C_5 
REMARK    2  A    between atoms: C_5  and  C_6 
REMARK    3  A    between atoms: C_9  and  N_10 
REMARK       I    between atoms: N_10  and  C_11 
ROOT
HETATM    1  N   UNL     1      43.487 -16.867   3.986  1.00  0.00    -0.321 N 
HETATM    2  C   UNL     1      42.171 -16.438   3.993  1.00  0.00     0.256 C 
HETATM    3  O   UNL     1      41.179 -17.153   4.055  1.00  0.00    -0.267 OA
HETATM    4  H   UNL     1      44.160 -16.163   4.241  1.00  0.00     0.169 HD
ENDROOT
BRANCH   2   5
HETATM    5  C   UNL     1      41.959 -14.952   4.049  1.00  0.00     0.032 A 
HETATM    6  C   UNL     1      41.850 -14.136   2.916  1.00  0.00     0.019 A 
HETATM    7  C   UNL     1      41.753 -12.742   3.052  1.00  0.00     0.030 A 
HETATM    8  C   UNL     1      41.739 -12.144   4.313  1.00  0.00     0.034 A 
HETATM    9  C   UNL     1      41.784 -12.964   5.445  1.00  0.00     0.030 A 
HETATM   10  C   UNL     1      41.897 -14.352   5.314  1.00  0.00     0.019 A 
BRANCH   8  11
HETATM   11  N   UNL     1      41.696 -10.753   4.532  1.00  0.00    -0.328 N 
HETATM   12  C   UNL     1      40.595  -9.920   4.437  1.00  0.00     0.218 C 
HETATM   13  C   UNL     1      40.960  -8.478   4.685  1.00  0.00     0.117 C 
HETATM   14  O   UNL     1      39.441 -10.246   4.185  1.00  0.00    -0.274 OA
HETATM   15  H   UNL     1      42.582 -10.307   4.734  1.00  0.00     0.169 HD
ENDBRANCH   8  11
ENDBRANCH   2   5
BRANCH   1  16
HETATM   16  C   UNL     1      43.959 -18.208   4.101  1.00  0.00     0.065 C 
HETATM   17  C   UNL     1      43.980 -19.158   3.066  1.00  0.00    -0.031 C 
HETATM   18  C   UNL     1      43.707 -18.873   1.615  1.00  0.00     0.050 C 
HETATM   19  C   UNL     1      44.327 -20.487   3.378  1.00  0.00     0.035 C 
HETATM   20  C   UNL     1      44.726 -20.821   4.662  1.00  0.00     0.031 C 
HETATM   21  N   UNL     1      44.825 -19.902   5.641  1.00  0.00    -0.256 NA
HETATM   22  C   UNL     1      45.061 -22.240   5.010  1.00  0.00     0.070 C 
HETATM   23  C   UNL     1      44.457 -18.625   5.357  1.00  0.00     0.058 C 
HETATM   24  C   UNL     1      44.601 -17.679   6.518  1.00  0.00     0.073 C 
ENDBRANCH   1  16
TORSDOF 3
ENDMDL
MODEL 8
REMARK VINA RESULT:      -6.9      6.431      9.999
REMARK  3 active torsions:
REMARK  status: ('A' for Active; 'I' for Inactive)
REMARK    1  A    between atoms: C_3  and  N_4 
REMARK       I    between atoms: N_4  and  C_5 
REMARK    2  A    between atoms: C_5  and  C_6 
REMARK    3  A    between atoms: C_9  and  N_10 
REMARK       I    between atoms: N_10  and  C_11 
ROOT
HETATM    1  N   UNL     1      41.453 -16.740   2.572  1.00  0.00    -0.321 N 
HETATM    2  C   UNL     1      41.799 -15.541   1.973  1.00  0.00     0.256 C 
HETATM    3  O   UNL     1      42.795 -14.872   2.220  1.00  0.00    -0.267 OA
HETATM    4  H   UNL     1      40.795 -17.296   2.051  1.00  0.00     0.169 HD
ENDROOT
BRANCH   2   5
HETATM    5  C   UNL     1      40.926 -15.092   0.837  1.00  0.00     0.032 A 
HETATM    6  C   UNL     1      41.303 -15.157  -0.510  1.00  0.00     0.019 A 
HETATM    7  C   UNL     1      40.471 -14.625  -1.508  1.00  0.00     0.030 A 
HETATM    8  C   UNL     1      39.245 -14.043  -1.182  1.00  0.00     0.034 A 
HETATM    9  C   UNL     1      38.840 -14.034   0.156  1.00  0.00     0.030 A 
HETATM   10  C   UNL     1      39.673 -14.549   1.155  1.00  0.00     0.019 A 
BRANCH   8  11
HETATM   11  N   UNL     1      38.379 -13.441  -2.117  1.00  0.00    -0.328 N 
HETATM   12  C   UNL     1      37.615 -14.072  -3.083  1.00  0.00     0.218 C 
HETATM   13  C   UNL     1      36.861 -13.082  -3.936  1.00  0.00     0.117 C 
HETATM   14  O   UNL     1      37.517 -15.278  -3.277  1.00  0.00    -0.274 OA
HETATM   15  H   UNL     1      38.352 -12.429  -2.111  1.00  0.00     0.169 HD
ENDBRANCH   8  11
ENDBRANCH   2   5
BRANCH   1  16
HETATM   16  C   UNL     1      42.198 -17.464   3.549  1.00  0.00     0.065 C 
HETATM   17  C   UNL     1      43.230 -18.379   3.278  1.00  0.00    -0.031 C 
HETATM   18  C   UNL     1      43.867 -18.598   1.933  1.00  0.00     0.050 C 
HETATM   19  C   UNL     1      43.760 -19.132   4.342  1.00  0.00     0.035 C 
HETATM   20  C   UNL     1      43.331 -18.905   5.640  1.00  0.00     0.031 C 
HETATM   21  N   UNL     1      42.428 -17.952   5.937  1.00  0.00    -0.256 NA
HETATM   22  C   UNL     1      43.865 -19.728   6.773  1.00  0.00     0.070 C 
HETATM   23  C   UNL     1      41.885 -17.245   4.911  1.00  0.00     0.058 C 
HETATM   24  C   UNL     1      40.885 -16.210   5.348  1.00  0.00     0.073 C 
ENDBRANCH   1  16
TORSDOF 3
ENDMDL
MODEL 9
REMARK VINA RESULT:      -6.9      6.460      8.880
REMARK  3 active torsions:
REMARK  status: ('A' for Active; 'I' for Inactive)
REMARK    1  A    between atoms: C_3  and  N_4 
REMARK       I    between atoms: N_4  and  C_5 
REMARK    2  A    between atoms: C_5  and  C_6 
REMARK    3  A    between atoms: C_9  and  N_10 
REMARK       I    between atoms: N_10  and  C_11 
ROOT
HETATM    1  N   UNL     1      40.466 -16.192   3.288  1.00  0.00    -0.321 N 
HETATM    2  C   UNL     1      40.570 -14.815   3.379  1.00  0.00     0.256 C 
HETATM    3  O   UNL     1      41.463 -14.194   3.945  1.00  0.00    -0.267 OA
HETATM    4  H   UNL     1      39.869 -16.520   2.547  1.00  0.00     0.169 HD
ENDROOT
BRANCH   2   5
HETATM    5  C   UNL     1      39.556 -14.021   2.607  1.00  0.00     0.032 A 
HETATM    6  C   UNL     1      39.339 -12.649   2.784  1.00  0.00     0.019 A 
HETATM    7  C   UNL     1      38.303 -11.998   2.095  1.00  0.00     0.030 A 
HETATM    8  C   UNL     1      37.487 -12.697   1.204  1.00  0.00     0.034 A 
HETATM    9  C   UNL     1      37.743 -14.053   0.980  1.00  0.00     0.030 A 
HETATM   10  C   UNL     1      38.764 -14.708   1.676  1.00  0.00     0.019 A 
BRANCH   8  11
HETATM   11  N   UNL     1      36.397 -12.130   0.515  1.00  0.00    -0.328 N 
HETATM   12  C   UNL     1      36.438 -11.340  -0.621  1.00  0.00     0.218 C 
HETATM   13  C   UNL     1      35.063 -10.871  -1.028  1.00  0.00     0.117 C 
HETATM   14  O   UNL     1      37.432 -11.023  -1.264  1.00  0.00    -0.274 OA
HETATM   15  H   UNL     1      35.484 -12.278   0.928  1.00  0.00     0.169 HD
ENDBRANCH   8  11
ENDBRANCH   2   5
BRANCH   1  16
HETATM   16  C   UNL     1      41.387 -17.162   3.782  1.00  0.00     0.065 C 
HETATM   17  C   UNL     1      41.593 -17.479   5.135  1.00  0.00    -0.031 C 
HETATM   18  C   UNL     1      40.741 -17.006   6.280  1.00  0.00     0.050 C 
HETATM   19  C   UNL     1      42.651 -18.346   5.471  1.00  0.00     0.035 C 
HETATM   20  C   UNL     1      43.409 -18.940   4.475  1.00  0.00     0.031 C 
HETATM   21  N   UNL     1      43.154 -18.742   3.169  1.00  0.00    -0.256 NA
HETATM   22  C   UNL     1      44.559 -19.834   4.827  1.00  0.00     0.070 C 
HETATM   23  C   UNL     1      42.157 -17.879   2.836  1.00  0.00     0.058 C 
HETATM   24  C   UNL     1      41.956 -17.724   1.354  1.00  0.00     0.073 C 
ENDBRANCH   1  16
TORSDOF 3
ENDMDL
MODEL 10
REMARK VINA RESULT:      -6.9      6.246      7.235
REMARK  3 active torsions:
REMARK  status: ('A' for Active; 'I' for Inactive)
REMARK    1  A    between atoms: C_3  and  N_4 
REMARK       I    between atoms: N_4  and  C_5 
REMARK    2  A    between atoms: C_5  and  C_6 
REMARK    3  A    between atoms: C_9  and  N_10 
REMARK       I    between atoms: N_10  and  C_11 
ROOT
HETATM    1  N   UNL     1      43.189 -17.265   4.026  1.00  0.00    -0.321 N 
HETATM    2  C   UNL     1      41.893 -16.779   4.005  1.00  0.00     0.256 C 
HETATM    3  O   UNL     1      40.880 -17.415   4.272  1.00  0.00    -0.267 OA
HETATM    4  H   UNL     1      43.902 -16.557   4.088  1.00  0.00     0.169 HD
ENDROOT
BRANCH   2   5
HETATM    5  C   UNL     1      41.741 -15.308   3.747  1.00  0.00     0.032 A 
HETATM    6  C   UNL     1      40.583 -14.579   4.043  1.00  0.00     0.019 A 
HETATM    7  C   UNL     1      40.482 -13.227   3.680  1.00  0.00     0.030 A 
HETATM    8  C   UNL     1      41.538 -12.577   3.040  1.00  0.00     0.034 A 
HETATM    9  C   UNL     1      42.718 -13.287   2.800  1.00  0.00     0.030 A 
HETATM   10  C   UNL     1      42.817 -14.639   3.147  1.00  0.00     0.019 A 
BRANCH   8  11
HETATM   11  N   UNL     1      41.495 -11.239   2.598  1.00  0.00    -0.328 N 
HETATM   12  C   UNL     1      40.896 -10.751   1.450  1.00  0.00     0.218 C 
HETATM   13  C   UNL     1      41.116  -9.268   1.289  1.00  0.00     0.117 C 
HETATM   14  O   UNL     1      40.251 -11.389   0.625  1.00  0.00    -0.274 OA
HETATM   15  H   UNL     1      42.004 -10.569   3.160  1.00  0.00     0.169 HD
ENDBRANCH   8  11
ENDBRANCH   2   5
BRANCH   1  16
HETATM   16  C   UNL     1      43.616 -18.572   4.406  1.00  0.00     0.065 C 
HETATM   17  C   UNL     1      43.755 -19.034   5.726  1.00  0.00    -0.031 C 
HETATM   18  C   UNL     1      43.285 -18.310   6.957  1.00  0.00     0.050 C 
HETATM   19  C   UNL     1      44.340 -20.297   5.939  1.00  0.00     0.035 C 
HETATM   20  C   UNL     1      44.684 -21.098   4.862  1.00  0.00     0.031 C 
HETATM   21  N   UNL     1      44.452 -20.723   3.590  1.00  0.00    -0.256 NA
HETATM   22  C   UNL     1      45.340 -22.428   5.081  1.00  0.00     0.070 C 
HETATM   23  C   UNL     1      43.920 -19.490   3.375  1.00  0.00     0.058 C 
HETATM   24  C   UNL     1      43.704 -19.167   1.922  1.00  0.00     0.073 C 
ENDBRANCH   1  16
TORSDOF 3
ENDMDL
