MODEL 1
REMARK VINA RESULT:      -8.8      0.000      0.000
REMARK  6 active torsions:
REMARK  status: ('A' for Active; 'I' for Inactive)
REMARK    1  A    between atoms: C_4  and  C_5 
REMARK    2  A    between atoms: C_5  and  C_6 
REMARK    3  A    between atoms: C_6  and  C_7 
REMARK    4  A    between atoms: C_7  and  N_8 
REMARK    5  A    between atoms: C_11  and  O_12 
REMARK    6  A    between atoms: C_11  and  C_13 
ROOT
HETATM    1  N   UNL     1      42.243 -17.797   2.725  1.00  0.00    -0.314 N 
HETATM    2  C   UNL     1      42.383 -16.841   1.707  1.00  0.00     0.269 A 
HETATM    3  O   UNL     1      42.930 -17.006   0.624  1.00  0.00    -0.269 OA
HETATM    4  C   UNL     1      41.770 -15.508   2.235  1.00  0.00     0.198 A 
HETATM    5  C   UNL     1      41.377 -15.879   3.642  1.00  0.00     0.017 A 
HETATM    6  C   UNL     1      41.682 -17.224   3.876  1.00  0.00     0.047 A 
HETATM    7  C   UNL     1      40.855 -15.085   4.656  1.00  0.00     0.013 A 
HETATM    8  C   UNL     1      40.622 -15.670   5.904  1.00  0.00     0.001 A 
HETATM    9  C   UNL     1      40.919 -17.024   6.127  1.00  0.00     0.002 A 
HETATM   10  C   UNL     1      41.458 -17.815   5.108  1.00  0.00     0.030 A 
ENDROOT
BRANCH   4  11
HETATM   11  O   UNL     1      42.758 -14.482   2.259  1.00  0.00    -0.371 OA
HETATM   12  H   UNL     1      43.374 -14.725   1.545  1.00  0.00     0.212 HD
ENDBRANCH   4  11
BRANCH   4  13
HETATM   13  C   UNL     1      40.516 -15.076   1.515  1.00  0.00     0.018 A 
HETATM   14  C   UNL     1      40.374 -14.458   0.217  1.00  0.00     0.002 A 
HETATM   15  C   UNL     1      39.012 -14.221   0.012  1.00  0.00     0.043 A 
HETATM   16  C   UNL     1      41.266 -14.067  -0.806  1.00  0.00     0.014 A 
HETATM   17  C   UNL     1      38.505 -13.609  -1.142  1.00  0.00     0.030 A 
HETATM   18  N   UNL     1      38.343 -14.686   1.117  1.00  0.00    -0.365 N 
HETATM   19  C   UNL     1      39.415 -13.225  -2.128  1.00  0.00     0.002 A 
HETATM   20  C   UNL     1      40.777 -13.451  -1.965  1.00  0.00     0.001 A 
HETATM   21  H   UNL     1      37.341 -14.648   1.238  1.00  0.00     0.165 HD
HETATM   22  C   UNL     1      39.227 -15.196   2.022  1.00  0.00     0.100 A 
ENDBRANCH   4  13
BRANCH   1  23
HETATM   23  C   UNL     1      42.781 -19.134   2.639  1.00  0.00     0.133 C 
BRANCH  23  24
HETATM   24  C   UNL     1      44.297 -19.148   2.825  1.00  0.00     0.025 C 
BRANCH  24  25
HETATM   25  C   UNL     1      44.717 -20.192   3.858  1.00  0.00     0.040 C 
BRANCH  25  26
HETATM   26  C   UNL     1      44.539 -19.672   5.262  1.00  0.00    -0.058 A 
HETATM   27  C   UNL     1      43.874 -20.440   6.227  1.00  0.00     0.007 A 
HETATM   28  C   UNL     1      43.679 -19.942   7.516  1.00  0.00     0.001 A 
HETATM   29  C   UNL     1      44.144 -18.672   7.851  1.00  0.00     0.000 A 
HETATM   30  C   UNL     1      44.804 -17.898   6.898  1.00  0.00     0.001 A 
HETATM   31  C   UNL     1      44.999 -18.394   5.608  1.00  0.00     0.007 A 
ENDBRANCH  25  26
ENDBRANCH  24  25
ENDBRANCH  23  24
ENDBRANCH   1  23
TORSDOF 6
ENDMDL
MODEL 2
REMARK VINA RESULT:      -8.7      2.164      3.013
REMARK  6 active torsions:
REMARK  status: ('A' for Active; 'I' for Inactive)
REMARK    1  A    between atoms: C_4  and  C_5 
REMARK    2  A    between atoms: C_5  and  C_6 
REMARK    3  A    between atoms: C_6  and  C_7 
REMARK    4  A    between atoms: C_7  and  N_8 
REMARK    5  A    between atoms: C_11  and  O_12 
REMARK    6  A    between atoms: C_11  and  C_13 
ROOT
HETATM    1  N   UNL     1      41.671 -16.349   2.134  1.00  0.00    -0.314 N 
HETATM    2  C   UNL     1      42.015 -15.108   1.576  1.00  0.00     0.269 A 
HETATM    3  O   UNL     1      42.386 -14.903   0.428  1.00  0.00    -0.269 OA
HETATM    4  C   UNL     1      41.901 -14.044   2.711  1.00  0.00     0.198 A 
HETATM    5  C   UNL     1      41.535 -14.892   3.902  1.00  0.00     0.017 A 
HETATM    6  C   UNL     1      41.421 -16.230   3.509  1.00  0.00     0.047 A 
HETATM    7  C   UNL     1      41.379 -14.531   5.234  1.00  0.00     0.013 A 
HETATM    8  C   UNL     1      41.084 -15.531   6.163  1.00  0.00     0.001 A 
HETATM    9  C   UNL     1      40.959 -16.870   5.759  1.00  0.00     0.002 A 
HETATM   10  C   UNL     1      41.131 -17.231   4.420  1.00  0.00     0.030 A 
ENDROOT
BRANCH   4  11
HETATM   11  O   UNL     1      43.159 -13.413   2.929  1.00  0.00    -0.371 OA
HETATM   12  H   UNL     1      42.974 -12.463   2.818  1.00  0.00     0.212 HD
ENDBRANCH   4  11
BRANCH   4  13
HETATM   13  C   UNL     1      40.788 -13.044   2.510  1.00  0.00     0.018 A 
HETATM   14  C   UNL     1      39.509 -13.217   1.862  1.00  0.00     0.002 A 
HETATM   15  C   UNL     1      38.847 -11.987   1.903  1.00  0.00     0.043 A 
HETATM   16  C   UNL     1      38.845 -14.295   1.234  1.00  0.00     0.014 A 
HETATM   17  C   UNL     1      37.579 -11.779   1.346  1.00  0.00     0.030 A 
HETATM   18  N   UNL     1      39.665 -11.103   2.561  1.00  0.00    -0.365 N 
HETATM   19  C   UNL     1      36.956 -12.862   0.723  1.00  0.00     0.002 A 
HETATM   20  C   UNL     1      37.578 -14.104   0.668  1.00  0.00     0.001 A 
HETATM   21  H   UNL     1      39.436 -10.135   2.741  1.00  0.00     0.165 HD
HETATM   22  C   UNL     1      40.827 -11.718   2.926  1.00  0.00     0.100 A 
ENDBRANCH   4  13
BRANCH   1  23
HETATM   23  C   UNL     1      41.752 -17.595   1.408  1.00  0.00     0.133 C 
BRANCH  23  24
HETATM   24  C   UNL     1      43.198 -17.985   1.111  1.00  0.00     0.025 C 
BRANCH  24  25
HETATM   25  C   UNL     1      43.991 -18.191   2.400  1.00  0.00     0.040 C 
BRANCH  25  26
HETATM   26  C   UNL     1      44.142 -19.657   2.719  1.00  0.00    -0.058 A 
HETATM   27  C   UNL     1      44.632 -20.066   3.967  1.00  0.00     0.007 A 
HETATM   28  C   UNL     1      44.804 -21.422   4.248  1.00  0.00     0.001 A 
HETATM   29  C   UNL     1      44.492 -22.380   3.285  1.00  0.00     0.000 A 
HETATM   30  C   UNL     1      44.008 -21.984   2.041  1.00  0.00     0.001 A 
HETATM   31  C   UNL     1      43.835 -20.628   1.757  1.00  0.00     0.007 A 
ENDBRANCH  25  26
ENDBRANCH  24  25
ENDBRANCH  23  24
ENDBRANCH   1  23
TORSDOF 6
ENDMDL
MODEL 3
REMARK VINA RESULT:      -8.6      3.017      4.854
REMARK  6 active torsions:
REMARK  status: ('A' for Active; 'I' for Inactive)
REMARK    1  A    between atoms: C_4  and  C_5 
REMARK    2  A    between atoms: C_5  and  C_6 
REMARK    3  A    between atoms: C_6  and  C_7 
REMARK    4  A    between atoms: C_7  and  N_8 
REMARK    5  A    between atoms: C_11  and  O_12 
REMARK    6  A    between atoms: C_11  and  C_13 
ROOT
HETATM    1  N   UNL     1      41.953 -16.322   3.994  1.00  0.00    -0.314 N 
HETATM    2  C   UNL     1      41.389 -15.144   3.481  1.00  0.00     0.269 A 
HETATM    3  O   UNL     1      40.640 -15.056   2.517  1.00  0.00    -0.269 OA
HETATM    4  C   UNL     1      41.945 -13.958   4.327  1.00  0.00     0.198 A 
HETATM    5  C   UNL     1      42.895 -14.659   5.264  1.00  0.00     0.017 A 
HETATM    6  C   UNL     1      42.865 -16.036   5.021  1.00  0.00     0.047 A 
HETATM    7  C   UNL     1      43.765 -14.126   6.207  1.00  0.00     0.013 A 
HETATM    8  C   UNL     1      44.587 -15.001   6.921  1.00  0.00     0.001 A 
HETATM    9  C   UNL     1      44.541 -16.384   6.681  1.00  0.00     0.002 A 
HETATM   10  C   UNL     1      43.675 -16.914   5.720  1.00  0.00     0.030 A 
ENDROOT
BRANCH   4  11
HETATM   11  O   UNL     1      42.661 -13.049   3.497  1.00  0.00    -0.371 OA
HETATM   12  H   UNL     1      42.066 -12.894   2.741  1.00  0.00     0.212 HD
ENDBRANCH   4  11
BRANCH   4  13
HETATM   13  C   UNL     1      40.907 -13.262   5.173  1.00  0.00     0.018 A 
HETATM   14  C   UNL     1      40.855 -11.885   5.606  1.00  0.00     0.002 A 
HETATM   15  C   UNL     1      39.713 -11.738   6.400  1.00  0.00     0.043 A 
HETATM   16  C   UNL     1      41.667 -10.745   5.413  1.00  0.00     0.014 A 
HETATM   17  C   UNL     1      39.354 -10.529   7.010  1.00  0.00     0.030 A 
HETATM   18  N   UNL     1      39.081 -12.956   6.438  1.00  0.00    -0.365 N 
HETATM   19  C   UNL     1      40.185  -9.426   6.808  1.00  0.00     0.002 A 
HETATM   20  C   UNL     1      41.325  -9.529   6.019  1.00  0.00     0.001 A 
HETATM   21  H   UNL     1      38.222 -13.139   6.938  1.00  0.00     0.165 HD
HETATM   22  C   UNL     1      39.783 -13.874   5.714  1.00  0.00     0.100 A 
ENDBRANCH   4  13
BRANCH   1  23
HETATM   23  C   UNL     1      41.746 -17.625   3.406  1.00  0.00     0.133 C 
BRANCH  23  24
HETATM   24  C   UNL     1      42.499 -17.776   2.086  1.00  0.00     0.025 C 
BRANCH  24  25
HETATM   25  C   UNL     1      43.963 -18.142   2.324  1.00  0.00     0.040 C 
BRANCH  25  26
HETATM   26  C   UNL     1      44.111 -19.605   2.660  1.00  0.00    -0.058 A 
HETATM   27  C   UNL     1      44.657 -20.000   3.888  1.00  0.00     0.007 A 
HETATM   28  C   UNL     1      44.827 -21.354   4.183  1.00  0.00     0.001 A 
HETATM   29  C   UNL     1      44.455 -22.323   3.252  1.00  0.00     0.000 A 
HETATM   30  C   UNL     1      43.915 -21.940   2.027  1.00  0.00     0.001 A 
HETATM   31  C   UNL     1      43.745 -20.586   1.729  1.00  0.00     0.007 A 
ENDBRANCH  25  26
ENDBRANCH  24  25
ENDBRANCH  23  24
ENDBRANCH   1  23
TORSDOF 6
ENDMDL
MODEL 4
REMARK VINA RESULT:      -8.5      2.528      7.096
REMARK  6 active torsions:
REMARK  status: ('A' for Active; 'I' for Inactive)
REMARK    1  A    between atoms: C_4  and  C_5 
REMARK    2  A    between atoms: C_5  and  C_6 
REMARK    3  A    between atoms: C_6  and  C_7 
REMARK    4  A    between atoms: C_7  and  N_8 
REMARK    5  A    between atoms: C_11  and  O_12 
REMARK    6  A    between atoms: C_11  and  C_13 
ROOT
HETATM    1  N   UNL     1      41.187 -15.499   5.743  1.00  0.00    -0.314 N 
HETATM    2  C   UNL     1      41.111 -16.852   6.110  1.00  0.00     0.269 A 
HETATM    3  O   UNL     1      40.115 -17.562   6.070  1.00  0.00    -0.269 OA
HETATM    4  C   UNL     1      42.518 -17.268   6.638  1.00  0.00     0.198 A 
HETATM    5  C   UNL     1      43.278 -15.969   6.564  1.00  0.00     0.017 A 
HETATM    6  C   UNL     1      42.451 -14.969   6.041  1.00  0.00     0.047 A 
HETATM    7  C   UNL     1      44.569 -15.671   6.983  1.00  0.00     0.013 A 
HETATM    8  C   UNL     1      45.026 -14.358   6.846  1.00  0.00     0.001 A 
HETATM    9  C   UNL     1      44.194 -13.363   6.308  1.00  0.00     0.002 A 
HETATM   10  C   UNL     1      42.891 -13.664   5.902  1.00  0.00     0.030 A 
ENDROOT
BRANCH   4  11
HETATM   11  O   UNL     1      42.431 -17.706   7.991  1.00  0.00    -0.371 OA
HETATM   12  H   UNL     1      41.664 -17.225   8.350  1.00  0.00     0.212 HD
ENDBRANCH   4  11
BRANCH   4  13
HETATM   13  C   UNL     1      43.239 -18.263   5.762  1.00  0.00     0.018 A 
HETATM   14  C   UNL     1      43.272 -18.357   4.321  1.00  0.00     0.002 A 
HETATM   15  C   UNL     1      44.050 -19.469   3.990  1.00  0.00     0.043 A 
HETATM   16  C   UNL     1      42.711 -17.613   3.258  1.00  0.00     0.014 A 
HETATM   17  C   UNL     1      44.283 -19.877   2.670  1.00  0.00     0.030 A 
HETATM   18  N   UNL     1      44.494 -20.024   5.165  1.00  0.00    -0.365 N 
HETATM   19  C   UNL     1      43.705 -19.127   1.645  1.00  0.00     0.002 A 
HETATM   20  C   UNL     1      42.931 -18.008   1.932  1.00  0.00     0.001 A 
HETATM   21  H   UNL     1      45.084 -20.841   5.225  1.00  0.00     0.165 HD
HETATM   22  C   UNL     1      44.015 -19.317   6.229  1.00  0.00     0.100 A 
ENDBRANCH   4  13
BRANCH   1  23
HETATM   23  C   UNL     1      40.049 -14.732   5.294  1.00  0.00     0.133 C 
BRANCH  23  24
HETATM   24  C   UNL     1      40.210 -14.273   3.847  1.00  0.00     0.025 C 
BRANCH  24  25
HETATM   25  C   UNL     1      39.902 -15.407   2.870  1.00  0.00     0.040 C 
BRANCH  25  26
HETATM   26  C   UNL     1      39.483 -14.869   1.525  1.00  0.00    -0.058 A 
HETATM   27  C   UNL     1      40.413 -14.761   0.482  1.00  0.00     0.007 A 
HETATM   28  C   UNL     1      40.032 -14.229  -0.751  1.00  0.00     0.001 A 
HETATM   29  C   UNL     1      38.722 -13.799  -0.951  1.00  0.00     0.000 A 
HETATM   30  C   UNL     1      37.791 -13.899   0.080  1.00  0.00     0.001 A 
HETATM   31  C   UNL     1      38.170 -14.429   1.315  1.00  0.00     0.007 A 
ENDBRANCH  25  26
ENDBRANCH  24  25
ENDBRANCH  23  24
ENDBRANCH   1  23
TORSDOF 6
ENDMDL
MODEL 5
REMARK VINA RESULT:      -8.5      4.199      6.234
REMARK  6 active torsions:
REMARK  status: ('A' for Active; 'I' for Inactive)
REMARK    1  A    between atoms: C_4  and  C_5 
REMARK    2  A    between atoms: C_5  and  C_6 
REMARK    3  A    between atoms: C_6  and  C_7 
REMARK    4  A    between atoms: C_7  and  N_8 
REMARK    5  A    between atoms: C_11  and  O_12 
REMARK    6  A    between atoms: C_11  and  C_13 
ROOT
HETATM    1  N   UNL     1      43.915 -14.741   6.334  1.00  0.00    -0.314 N 
HETATM    2  C   UNL     1      42.690 -14.247   5.860  1.00  0.00     0.269 A 
HETATM    3  O   UNL     1      42.378 -13.069   5.740  1.00  0.00    -0.269 OA
HETATM    4  C   UNL     1      41.774 -15.476   5.574  1.00  0.00     0.198 A 
HETATM    5  C   UNL     1      42.641 -16.625   6.021  1.00  0.00     0.017 A 
HETATM    6  C   UNL     1      43.877 -16.138   6.462  1.00  0.00     0.047 A 
HETATM    7  C   UNL     1      42.348 -17.981   6.097  1.00  0.00     0.013 A 
HETATM    8  C   UNL     1      43.323 -18.844   6.602  1.00  0.00     0.001 A 
HETATM    9  C   UNL     1      44.565 -18.349   7.030  1.00  0.00     0.002 A 
HETATM   10  C   UNL     1      44.851 -16.982   6.965  1.00  0.00     0.030 A 
ENDROOT
BRANCH   4  11
HETATM   11  O   UNL     1      40.596 -15.414   6.372  1.00  0.00    -0.371 OA
HETATM   12  H   UNL     1      40.286 -14.496   6.272  1.00  0.00     0.212 HD
ENDBRANCH   4  11
BRANCH   4  13
HETATM   13  C   UNL     1      41.462 -15.688   4.112  1.00  0.00     0.018 A 
HETATM   14  C   UNL     1      42.266 -16.310   3.087  1.00  0.00     0.002 A 
HETATM   15  C   UNL     1      41.553 -16.233   1.888  1.00  0.00     0.043 A 
HETATM   16  C   UNL     1      43.537 -16.928   3.051  1.00  0.00     0.014 A 
HETATM   17  C   UNL     1      42.042 -16.723   0.670  1.00  0.00     0.030 A 
HETATM   18  N   UNL     1      40.359 -15.613   2.161  1.00  0.00    -0.365 N 
HETATM   19  C   UNL     1      43.306 -17.316   0.668  1.00  0.00     0.002 A 
HETATM   20  C   UNL     1      44.044 -17.420   1.841  1.00  0.00     0.001 A 
HETATM   21  H   UNL     1      39.640 -15.427   1.476  1.00  0.00     0.165 HD
HETATM   22  C   UNL     1      40.293 -15.280   3.482  1.00  0.00     0.100 A 
ENDBRANCH   4  13
BRANCH   1  23
HETATM   23  C   UNL     1      44.989 -13.894   6.797  1.00  0.00     0.133 C 
BRANCH  23  24
HETATM   24  C   UNL     1      44.825 -13.524   8.270  1.00  0.00     0.025 C 
BRANCH  24  25
HETATM   25  C   UNL     1      45.428 -12.152   8.565  1.00  0.00     0.040 C 
BRANCH  25  26
HETATM   26  C   UNL     1      44.542 -11.354   9.488  1.00  0.00    -0.058 A 
HETATM   27  C   UNL     1      44.970 -11.035  10.784  1.00  0.00     0.007 A 
HETATM   28  C   UNL     1      44.134 -10.328  11.649  1.00  0.00     0.001 A 
HETATM   29  C   UNL     1      42.864  -9.936  11.229  1.00  0.00     0.000 A 
HETATM   30  C   UNL     1      42.428 -10.252   9.944  1.00  0.00     0.001 A 
HETATM   31  C   UNL     1      43.262 -10.960   9.077  1.00  0.00     0.007 A 
ENDBRANCH  25  26
ENDBRANCH  24  25
ENDBRANCH  23  24
ENDBRANCH   1  23
TORSDOF 6
ENDMDL
MODEL 6
REMARK VINA RESULT:      -8.5      2.664      3.941
REMARK  6 active torsions:
REMARK  status: ('A' for Active; 'I' for Inactive)
REMARK    1  A    between atoms: C_4  and  C_5 
REMARK    2  A    between atoms: C_5  and  C_6 
REMARK    3  A    between atoms: C_6  and  C_7 
REMARK    4  A    between atoms: C_7  and  N_8 
REMARK    5  A    between atoms: C_11  and  O_12 
REMARK    6  A    between atoms: C_11  and  C_13 
ROOT
HETATM    1  N   UNL     1      42.577 -15.544   3.047  1.00  0.00    -0.314 N 
HETATM    2  C   UNL     1      43.082 -14.304   3.469  1.00  0.00     0.269 A 
HETATM    3  O   UNL     1      43.808 -13.557   2.826  1.00  0.00    -0.269 OA
HETATM    4  C   UNL     1      42.598 -14.083   4.935  1.00  0.00     0.198 A 
HETATM    5  C   UNL     1      41.864 -15.368   5.221  1.00  0.00     0.017 A 
HETATM    6  C   UNL     1      41.889 -16.186   4.087  1.00  0.00     0.047 A 
HETATM    7  C   UNL     1      41.279 -15.811   6.401  1.00  0.00     0.013 A 
HETATM    8  C   UNL     1      40.697 -17.082   6.417  1.00  0.00     0.001 A 
HETATM    9  C   UNL     1      40.716 -17.892   5.270  1.00  0.00     0.002 A 
HETATM   10  C   UNL     1      41.319 -17.447   4.091  1.00  0.00     0.030 A 
ENDROOT
BRANCH   4  11
HETATM   11  O   UNL     1      43.713 -13.952   5.811  1.00  0.00    -0.371 OA
HETATM   12  H   UNL     1      44.052 -13.056   5.636  1.00  0.00     0.212 HD
ENDBRANCH   4  11
BRANCH   4  13
HETATM   13  C   UNL     1      41.610 -12.953   5.096  1.00  0.00     0.018 A 
HETATM   14  C   UNL     1      40.505 -12.576   4.245  1.00  0.00     0.002 A 
HETATM   15  C   UNL     1      39.912 -11.442   4.805  1.00  0.00     0.043 A 
HETATM   16  C   UNL     1      39.950 -13.079   3.047  1.00  0.00     0.014 A 
HETATM   17  C   UNL     1      38.815 -10.787   4.230  1.00  0.00     0.030 A 
HETATM   18  N   UNL     1      40.600 -11.144   5.954  1.00  0.00    -0.365 N 
HETATM   19  C   UNL     1      38.299 -11.303   3.040  1.00  0.00     0.002 A 
HETATM   20  C   UNL     1      38.856 -12.435   2.456  1.00  0.00     0.001 A 
HETATM   21  H   UNL     1      40.383 -10.370   6.567  1.00  0.00     0.165 HD
HETATM   22  C   UNL     1      41.617 -12.034   6.139  1.00  0.00     0.100 A 
ENDBRANCH   4  13
BRANCH   1  23
HETATM   23  C   UNL     1      42.895 -16.138   1.769  1.00  0.00     0.133 C 
BRANCH  23  24
HETATM   24  C   UNL     1      44.047 -17.135   1.879  1.00  0.00     0.025 C 
BRANCH  24  25
HETATM   25  C   UNL     1      43.633 -18.515   1.370  1.00  0.00     0.040 C 
BRANCH  25  26
HETATM   26  C   UNL     1      43.993 -19.592   2.362  1.00  0.00    -0.058 A 
HETATM   27  C   UNL     1      44.351 -19.258   3.675  1.00  0.00     0.007 A 
HETATM   28  C   UNL     1      44.719 -20.253   4.582  1.00  0.00     0.001 A 
HETATM   29  C   UNL     1      44.734 -21.589   4.185  1.00  0.00     0.000 A 
HETATM   30  C   UNL     1      44.382 -21.931   2.881  1.00  0.00     0.001 A 
HETATM   31  C   UNL     1      44.015 -20.938   1.972  1.00  0.00     0.007 A 
ENDBRANCH  25  26
ENDBRANCH  24  25
ENDBRANCH  23  24
ENDBRANCH   1  23
TORSDOF 6
ENDMDL
MODEL 7
REMARK VINA RESULT:      -8.4      1.506      2.718
REMARK  6 active torsions:
REMARK  status: ('A' for Active; 'I' for Inactive)
REMARK    1  A    between atoms: C_4  and  C_5 
REMARK    2  A    between atoms: C_5  and  C_6 
REMARK    3  A    between atoms: C_6  and  C_7 
REMARK    4  A    between atoms: C_7  and  N_8 
REMARK    5  A    between atoms: C_11  and  O_12 
REMARK    6  A    between atoms: C_11  and  C_13 
ROOT
HETATM    1  N   UNL     1      41.478 -16.739   3.629  1.00  0.00    -0.314 N 
HETATM    2  C   UNL     1      41.277 -16.850   2.244  1.00  0.00     0.269 A 
HETATM    3  O   UNL     1      41.119 -17.888   1.613  1.00  0.00    -0.269 OA
HETATM    4  C   UNL     1      41.354 -15.412   1.648  1.00  0.00     0.198 A 
HETATM    5  C   UNL     1      41.685 -14.585   2.863  1.00  0.00     0.017 A 
HETATM    6  C   UNL     1      41.752 -15.411   3.990  1.00  0.00     0.047 A 
HETATM    7  C   UNL     1      41.969 -13.229   2.963  1.00  0.00     0.013 A 
HETATM    8  C   UNL     1      42.299 -12.710   4.218  1.00  0.00     0.001 A 
HETATM    9  C   UNL     1      42.352 -13.544   5.346  1.00  0.00     0.002 A 
HETATM   10  C   UNL     1      42.079 -14.910   5.238  1.00  0.00     0.030 A 
ENDROOT
BRANCH   4  11
HETATM   11  O   UNL     1      42.410 -15.325   0.696  1.00  0.00    -0.371 OA
HETATM   12  H   UNL     1      42.765 -14.425   0.812  1.00  0.00     0.212 HD
ENDBRANCH   4  11
BRANCH   4  13
HETATM   13  C   UNL     1      40.046 -14.900   1.096  1.00  0.00     0.018 A 
HETATM   14  C   UNL     1      39.790 -14.178  -0.129  1.00  0.00     0.002 A 
HETATM   15  C   UNL     1      38.421 -13.899  -0.174  1.00  0.00     0.043 A 
HETATM   16  C   UNL     1      40.584 -13.724  -1.206  1.00  0.00     0.014 A 
HETATM   17  C   UNL     1      37.817 -13.188  -1.219  1.00  0.00     0.030 A 
HETATM   18  N   UNL     1      37.856 -14.438   0.955  1.00  0.00    -0.365 N 
HETATM   19  C   UNL     1      38.633 -12.744  -2.261  1.00  0.00     0.002 A 
HETATM   20  C   UNL     1      39.998 -13.008  -2.257  1.00  0.00     0.001 A 
HETATM   21  H   UNL     1      36.872 -14.390   1.181  1.00  0.00     0.165 HD
HETATM   22  C   UNL     1      38.812 -15.035   1.722  1.00  0.00     0.100 A 
ENDBRANCH   4  13
BRANCH   1  23
HETATM   23  C   UNL     1      41.570 -17.877   4.513  1.00  0.00     0.133 C 
BRANCH  23  24
HETATM   24  C   UNL     1      43.000 -18.104   4.998  1.00  0.00     0.025 C 
BRANCH  24  25
HETATM   25  C   UNL     1      43.966 -18.245   3.822  1.00  0.00     0.040 C 
BRANCH  25  26
HETATM   26  C   UNL     1      44.142 -19.691   3.432  1.00  0.00    -0.058 A 
HETATM   27  C   UNL     1      43.734 -20.142   2.170  1.00  0.00     0.007 A 
HETATM   28  C   UNL     1      43.865 -21.488   1.824  1.00  0.00     0.001 A 
HETATM   29  C   UNL     1      44.402 -22.394   2.737  1.00  0.00     0.000 A 
HETATM   30  C   UNL     1      44.808 -21.956   3.995  1.00  0.00     0.001 A 
HETATM   31  C   UNL     1      44.677 -20.611   4.344  1.00  0.00     0.007 A 
ENDBRANCH  25  26
ENDBRANCH  24  25
ENDBRANCH  23  24
ENDBRANCH   1  23
TORSDOF 6
ENDMDL
MODEL 8
REMARK VINA RESULT:      -8.3      2.110      3.667
REMARK  6 active torsions:
REMARK  status: ('A' for Active; 'I' for Inactive)
REMARK    1  A    between atoms: C_4  and  C_5 
REMARK    2  A    between atoms: C_5  and  C_6 
REMARK    3  A    between atoms: C_6  and  C_7 
REMARK    4  A    between atoms: C_7  and  N_8 
REMARK    5  A    between atoms: C_11  and  O_12 
REMARK    6  A    between atoms: C_11  and  C_13 
ROOT
HETATM    1  N   UNL     1      42.145 -13.976   4.193  1.00  0.00    -0.314 N 
HETATM    2  C   UNL     1      42.890 -14.002   3.004  1.00  0.00     0.269 A 
HETATM    3  O   UNL     1      44.015 -14.464   2.860  1.00  0.00    -0.269 OA
HETATM    4  C   UNL     1      42.046 -13.274   1.913  1.00  0.00     0.198 A 
HETATM    5  C   UNL     1      40.841 -12.823   2.697  1.00  0.00     0.017 A 
HETATM    6  C   UNL     1      40.954 -13.255   4.023  1.00  0.00     0.047 A 
HETATM    7  C   UNL     1      39.763 -12.043   2.297  1.00  0.00     0.013 A 
HETATM    8  C   UNL     1      38.788 -11.721   3.245  1.00  0.00     0.001 A 
HETATM    9  C   UNL     1      38.903 -12.168   4.570  1.00  0.00     0.002 A 
HETATM   10  C   UNL     1      39.996 -12.941   4.972  1.00  0.00     0.030 A 
ENDROOT
BRANCH   4  11
HETATM   11  O   UNL     1      42.752 -12.144   1.411  1.00  0.00    -0.371 OA
HETATM   12  H   UNL     1      43.682 -12.319   1.642  1.00  0.00     0.212 HD
ENDBRANCH   4  11
BRANCH   4  13
HETATM   13  C   UNL     1      41.554 -14.177   0.808  1.00  0.00     0.018 A 
HETATM   14  C   UNL     1      41.625 -13.992  -0.623  1.00  0.00     0.002 A 
HETATM   15  C   UNL     1      41.001 -15.091  -1.220  1.00  0.00     0.043 A 
HETATM   16  C   UNL     1      42.150 -12.996  -1.477  1.00  0.00     0.014 A 
HETATM   17  C   UNL     1      40.866 -15.236  -2.607  1.00  0.00     0.030 A 
HETATM   18  N   UNL     1      40.584 -15.923  -0.211  1.00  0.00    -0.365 N 
HETATM   19  C   UNL     1      41.385 -14.229  -3.421  1.00  0.00     0.002 A 
HETATM   20  C   UNL     1      42.021 -13.124  -2.866  1.00  0.00     0.001 A 
HETATM   21  H   UNL     1      40.103 -16.801  -0.355  1.00  0.00     0.165 HD
HETATM   22  C   UNL     1      40.904 -15.390   1.003  1.00  0.00     0.100 A 
ENDBRANCH   4  13
BRANCH   1  23
HETATM   23  C   UNL     1      42.643 -14.474   5.454  1.00  0.00     0.133 C 
BRANCH  23  24
HETATM   24  C   UNL     1      42.238 -15.927   5.690  1.00  0.00     0.025 C 
BRANCH  24  25
HETATM   25  C   UNL     1      43.461 -16.843   5.722  1.00  0.00     0.040 C 
BRANCH  25  26
HETATM   26  C   UNL     1      43.471 -17.781   4.542  1.00  0.00    -0.058 A 
HETATM   27  C   UNL     1      42.561 -17.610   3.490  1.00  0.00     0.007 A 
HETATM   28  C   UNL     1      42.548 -18.501   2.416  1.00  0.00     0.001 A 
HETATM   29  C   UNL     1      43.440 -19.571   2.385  1.00  0.00     0.000 A 
HETATM   30  C   UNL     1      44.346 -19.752   3.427  1.00  0.00     0.001 A 
HETATM   31  C   UNL     1      44.361 -18.863   4.503  1.00  0.00     0.007 A 
ENDBRANCH  25  26
ENDBRANCH  24  25
ENDBRANCH  23  24
ENDBRANCH   1  23
TORSDOF 6
ENDMDL
MODEL 9
REMARK VINA RESULT:      -8.3      2.142      5.245
REMARK  6 active torsions:
REMARK  status: ('A' for Active; 'I' for Inactive)
REMARK    1  A    between atoms: C_4  and  C_5 
REMARK    2  A    between atoms: C_5  and  C_6 
REMARK    3  A    between atoms: C_6  and  C_7 
REMARK    4  A    between atoms: C_7  and  N_8 
REMARK    5  A    between atoms: C_11  and  O_12 
REMARK    6  A    between atoms: C_11  and  C_13 
ROOT
HETATM    1  N   UNL     1      43.664 -17.059   3.406  1.00  0.00    -0.314 N 
HETATM    2  C   UNL     1      43.487 -15.671   3.509  1.00  0.00     0.269 A 
HETATM    3  O   UNL     1      43.636 -14.850   2.613  1.00  0.00    -0.269 OA
HETATM    4  C   UNL     1      43.127 -15.359   4.994  1.00  0.00     0.198 A 
HETATM    5  C   UNL     1      43.214 -16.722   5.631  1.00  0.00     0.017 A 
HETATM    6  C   UNL     1      43.537 -17.676   4.660  1.00  0.00     0.047 A 
HETATM    7  C   UNL     1      43.085 -17.087   6.966  1.00  0.00     0.013 A 
HETATM    8  C   UNL     1      43.262 -18.430   7.307  1.00  0.00     0.001 A 
HETATM    9  C   UNL     1      43.574 -19.383   6.324  1.00  0.00     0.002 A 
HETATM   10  C   UNL     1      43.717 -19.009   4.985  1.00  0.00     0.030 A 
ENDROOT
BRANCH   4  11
HETATM   11  O   UNL     1      44.098 -14.489   5.568  1.00  0.00    -0.371 OA
HETATM   12  H   UNL     1      44.206 -14.817   6.479  1.00  0.00     0.212 HD
ENDBRANCH   4  11
BRANCH   4  13
HETATM   13  C   UNL     1      41.719 -14.854   5.196  1.00  0.00     0.018 A 
HETATM   14  C   UNL     1      41.135 -13.593   4.804  1.00  0.00     0.002 A 
HETATM   15  C   UNL     1      39.809 -13.589   5.246  1.00  0.00     0.043 A 
HETATM   16  C   UNL     1      41.599 -12.446   4.122  1.00  0.00     0.014 A 
HETATM   17  C   UNL     1      38.941 -12.506   5.056  1.00  0.00     0.030 A 
HETATM   18  N   UNL     1      39.578 -14.793   5.862  1.00  0.00    -0.365 N 
HETATM   19  C   UNL     1      39.435 -11.384   4.389  1.00  0.00     0.002 A 
HETATM   20  C   UNL     1      40.746 -11.352   3.926  1.00  0.00     0.001 A 
HETATM   21  H   UNL     1      38.697 -15.066   6.275  1.00  0.00     0.165 HD
HETATM   22  C   UNL     1      40.709 -15.557   5.843  1.00  0.00     0.100 A 
ENDBRANCH   4  13
BRANCH   1  23
HETATM   23  C   UNL     1      44.100 -17.718   2.197  1.00  0.00     0.133 C 
BRANCH  23  24
HETATM   24  C   UNL     1      43.156 -17.440   1.029  1.00  0.00     0.025 C 
BRANCH  24  25
HETATM   25  C   UNL     1      41.702 -17.703   1.419  1.00  0.00     0.040 C 
BRANCH  25  26
HETATM   26  C   UNL     1      40.860 -16.465   1.249  1.00  0.00    -0.058 A 
HETATM   27  C   UNL     1      41.112 -15.572   0.199  1.00  0.00     0.007 A 
HETATM   28  C   UNL     1      40.354 -14.408   0.064  1.00  0.00     0.001 A 
HETATM   29  C   UNL     1      39.340 -14.125   0.978  1.00  0.00     0.000 A 
HETATM   30  C   UNL     1      39.084 -15.004   2.027  1.00  0.00     0.001 A 
HETATM   31  C   UNL     1      39.841 -16.169   2.165  1.00  0.00     0.007 A 
ENDBRANCH  25  26
ENDBRANCH  24  25
ENDBRANCH  23  24
ENDBRANCH   1  23
TORSDOF 6
ENDMDL
MODEL 10
REMARK VINA RESULT:      -8.3      2.217      7.101
REMARK  6 active torsions:
REMARK  status: ('A' for Active; 'I' for Inactive)
REMARK    1  A    between atoms: C_4  and  C_5 
REMARK    2  A    between atoms: C_5  and  C_6 
REMARK    3  A    between atoms: C_6  and  C_7 
REMARK    4  A    between atoms: C_7  and  N_8 
REMARK    5  A    between atoms: C_11  and  O_12 
REMARK    6  A    between atoms: C_11  and  C_13 
ROOT
HETATM    1  N   UNL     1      42.989 -15.167   3.484  1.00  0.00    -0.314 N 
HETATM    2  C   UNL     1      43.299 -16.219   2.609  1.00  0.00     0.269 A 
HETATM    3  O   UNL     1      43.973 -16.144   1.590  1.00  0.00    -0.269 OA
HETATM    4  C   UNL     1      42.572 -17.492   3.141  1.00  0.00     0.198 A 
HETATM    5  C   UNL     1      41.814 -16.949   4.325  1.00  0.00     0.017 A 
HETATM    6  C   UNL     1      42.089 -15.586   4.475  1.00  0.00     0.047 A 
HETATM    7  C   UNL     1      40.906 -17.584   5.164  1.00  0.00     0.013 A 
HETATM    8  C   UNL     1      40.295 -16.833   6.171  1.00  0.00     0.001 A 
HETATM    9  C   UNL     1      40.587 -15.468   6.323  1.00  0.00     0.002 A 
HETATM   10  C   UNL     1      41.490 -14.830   5.468  1.00  0.00     0.030 A 
ENDROOT
BRANCH   4  11
HETATM   11  O   UNL     1      41.661 -17.988   2.165  1.00  0.00    -0.371 OA
HETATM   12  H   UNL     1      40.827 -17.523   2.356  1.00  0.00     0.212 HD
ENDBRANCH   4  11
BRANCH   4  13
HETATM   13  C   UNL     1      43.500 -18.566   3.653  1.00  0.00     0.018 A 
HETATM   14  C   UNL     1      43.796 -19.863   3.090  1.00  0.00     0.002 A 
HETATM   15  C   UNL     1      44.692 -20.501   3.953  1.00  0.00     0.043 A 
HETATM   16  C   UNL     1      43.386 -20.569   1.936  1.00  0.00     0.014 A 
HETATM   17  C   UNL     1      45.183 -21.794   3.730  1.00  0.00     0.030 A 
HETATM   18  N   UNL     1      44.954 -19.635   4.985  1.00  0.00    -0.365 N 
HETATM   19  C   UNL     1      44.749 -22.467   2.586  1.00  0.00     0.002 A 
HETATM   20  C   UNL     1      43.864 -21.864   1.699  1.00  0.00     0.001 A 
HETATM   21  H   UNL     1      45.577 -19.835   5.756  1.00  0.00     0.165 HD
HETATM   22  C   UNL     1      44.248 -18.479   4.821  1.00  0.00     0.100 A 
ENDBRANCH   4  13
BRANCH   1  23
HETATM   23  C   UNL     1      43.407 -13.802   3.265  1.00  0.00     0.133 C 
BRANCH  23  24
HETATM   24  C   UNL     1      42.563 -13.116   2.194  1.00  0.00     0.025 C 
BRANCH  24  25
HETATM   25  C   UNL     1      41.320 -12.467   2.802  1.00  0.00     0.040 C 
BRANCH  25  26
HETATM   26  C   UNL     1      40.061 -12.998   2.164  1.00  0.00    -0.058 A 
HETATM   27  C   UNL     1      39.074 -12.118   1.699  1.00  0.00     0.007 A 
HETATM   28  C   UNL     1      37.894 -12.611   1.141  1.00  0.00     0.001 A 
HETATM   29  C   UNL     1      37.688 -13.987   1.047  1.00  0.00     0.000 A 
HETATM   30  C   UNL     1      38.660 -14.870   1.510  1.00  0.00     0.001 A 
HETATM   31  C   UNL     1      39.842 -14.379   2.069  1.00  0.00     0.007 A 
ENDBRANCH  25  26
ENDBRANCH  24  25
ENDBRANCH  23  24
ENDBRANCH   1  23
TORSDOF 6
ENDMDL
