MODEL 1
REMARK VINA RESULT:      -8.8      0.000      0.000
REMARK  3 active torsions:
REMARK  status: ('A' for Active; 'I' for Inactive)
REMARK    1  A    between atoms: C_9  and  C_10 
REMARK       I    between atoms: C_10  and  N_11 
REMARK    2  A    between atoms: N_11  and  C_12 
REMARK    3  A    between atoms: C_12  and  C_13 
ROOT
HETATM    1  C   UNL     1      41.172 -15.200   1.609  1.00  0.00     0.273 C 
HETATM    2  N   UNL     1      42.349 -15.503   2.258  1.00  0.00    -0.347 N 
HETATM    3  O   UNL     1      40.079 -15.163   2.168  1.00  0.00    -0.266 OA
HETATM    4  H   UNL     1      43.161 -15.594   1.655  1.00  0.00     0.163 HD
ENDROOT
BRANCH   2   5
HETATM    5  C   UNL     1      42.414 -15.860   3.656  1.00  0.00     0.114 C 
HETATM    6  C   UNL     1      43.091 -14.746   4.457  1.00  0.00     0.037 C 
BRANCH   5   7
HETATM    7  C   UNL     1      43.108 -17.198   3.846  1.00  0.00    -0.034 A 
HETATM    8  C   UNL     1      43.078 -18.148   2.812  1.00  0.00     0.041 A 
HETATM    9  C   UNL     1      43.673 -19.400   2.983  1.00  0.00     0.069 A 
HETATM   10  C   UNL     1      44.320 -19.716   4.177  1.00  0.00     0.096 A 
HETATM   11  N   UNL     1      43.631 -20.326   1.941  1.00  0.00    -0.323 N 
HETATM   12  O   UNL     1      44.950 -20.907   4.409  1.00  0.00    -0.340 OA
HETATM   13  C   UNL     1      44.390 -18.768   5.195  1.00  0.00     0.040 A 
HETATM   14  C   UNL     1      44.617 -21.939   3.492  1.00  0.00     0.278 C 
HETATM   15  C   UNL     1      44.125 -21.591   2.087  1.00  0.00     0.246 C 
HETATM   16  O   UNL     1      44.104 -22.401   1.163  1.00  0.00    -0.271 OA
HETATM   17  C   UNL     1      43.786 -17.518   5.034  1.00  0.00     0.012 A 
HETATM   18  H   UNL     1      43.239 -20.084   1.041  1.00  0.00     0.169 HD
ENDBRANCH   5   7
ENDBRANCH   2   5
BRANCH   1  19
HETATM   19  C   UNL     1      41.369 -14.900   0.181  1.00  0.00     0.157 A 
HETATM   20  C   UNL     1      41.791 -13.666  -0.399  1.00  0.00     0.029 A 
HETATM   21  C   UNL     1      42.126 -12.382   0.076  1.00  0.00     0.023 A 
HETATM   22  C   UNL     1      41.862 -13.913  -1.764  1.00  0.00     0.063 A 
HETATM   23  C   UNL     1      42.518 -11.387  -0.836  1.00  0.00    -0.061 A 
HETATM   24  C   UNL     1      42.880 -10.012  -0.353  1.00  0.00     0.048 C 
HETATM   25  C   UNL     1      42.586 -11.683  -2.202  1.00  0.00     0.009 A 
HETATM   26  C   UNL     1      42.259 -12.951  -2.696  1.00  0.00     0.032 A 
HETATM   27  N   UNL     1      41.482 -15.218  -1.915  1.00  0.00    -0.277 N 
HETATM   28  H   UNL     1      41.418 -15.740  -2.781  1.00  0.00     0.189 HD
HETATM   29  N   UNL     1      41.171 -15.846  -0.766  1.00  0.00    -0.168 NA
ENDBRANCH   1  19
TORSDOF 3
ENDMDL
MODEL 2
REMARK VINA RESULT:      -8.7      5.608      8.116
REMARK  3 active torsions:
REMARK  status: ('A' for Active; 'I' for Inactive)
REMARK    1  A    between atoms: C_9  and  C_10 
REMARK       I    between atoms: C_10  and  N_11 
REMARK    2  A    between atoms: N_11  and  C_12 
REMARK    3  A    between atoms: C_12  and  C_13 
ROOT
HETATM    1  C   UNL     1      44.914 -12.984   8.435  1.00  0.00     0.273 C 
HETATM    2  N   UNL     1      44.046 -13.875   7.843  1.00  0.00    -0.347 N 
HETATM    3  O   UNL     1      46.033 -12.734   7.997  1.00  0.00    -0.266 OA
HETATM    4  H   UNL     1      43.195 -14.058   8.366  1.00  0.00     0.163 HD
ENDROOT
BRANCH   2   5
HETATM    5  C   UNL     1      44.382 -14.649   6.671  1.00  0.00     0.114 C 
HETATM    6  C   UNL     1      43.559 -14.177   5.470  1.00  0.00     0.037 C 
BRANCH   5   7
HETATM    7  C   UNL     1      44.207 -16.135   6.929  1.00  0.00    -0.034 A 
HETATM    8  C   UNL     1      44.648 -17.063   5.970  1.00  0.00     0.041 A 
HETATM    9  C   UNL     1      44.458 -18.432   6.169  1.00  0.00     0.069 A 
HETATM   10  C   UNL     1      43.844 -18.897   7.331  1.00  0.00     0.096 A 
HETATM   11  N   UNL     1      44.905 -19.333   5.203  1.00  0.00    -0.323 N 
HETATM   12  O   UNL     1      43.649 -20.221   7.611  1.00  0.00    -0.340 OA
HETATM   13  C   UNL     1      43.437 -17.990   8.307  1.00  0.00     0.040 A 
HETATM   14  C   UNL     1      43.799 -21.088   6.497  1.00  0.00     0.278 C 
HETATM   15  C   UNL     1      44.671 -20.674   5.311  1.00  0.00     0.246 C 
HETATM   16  O   UNL     1      45.081 -21.469   4.469  1.00  0.00    -0.271 OA
HETATM   17  C   UNL     1      43.614 -16.618   8.108  1.00  0.00     0.012 A 
HETATM   18  H   UNL     1      45.426 -19.018   4.395  1.00  0.00     0.169 HD
ENDBRANCH   5   7
ENDBRANCH   2   5
BRANCH   1  19
HETATM   19  C   UNL     1      44.345 -12.345   9.633  1.00  0.00     0.157 A 
HETATM   20  C   UNL     1      43.376 -11.298   9.685  1.00  0.00     0.029 A 
HETATM   21  C   UNL     1      42.670 -10.520   8.746  1.00  0.00     0.023 A 
HETATM   22  C   UNL     1      43.146 -11.085  11.038  1.00  0.00     0.063 A 
HETATM   23  C   UNL     1      41.757  -9.551   9.196  1.00  0.00    -0.061 A 
HETATM   24  C   UNL     1      40.992  -8.712   8.214  1.00  0.00     0.048 C 
HETATM   25  C   UNL     1      41.547  -9.378  10.569  1.00  0.00     0.009 A 
HETATM   26  C   UNL     1      42.237 -10.140  11.520  1.00  0.00     0.032 A 
HETATM   27  N   UNL     1      43.964 -11.968  11.687  1.00  0.00    -0.277 N 
HETATM   28  H   UNL     1      44.056 -12.093  12.689  1.00  0.00     0.189 HD
HETATM   29  N   UNL     1      44.707 -12.741  10.876  1.00  0.00    -0.168 NA
ENDBRANCH   1  19
TORSDOF 3
ENDMDL
MODEL 3
REMARK VINA RESULT:      -8.7      1.440      2.267
REMARK  3 active torsions:
REMARK  status: ('A' for Active; 'I' for Inactive)
REMARK    1  A    between atoms: C_9  and  C_10 
REMARK       I    between atoms: C_10  and  N_11 
REMARK    2  A    between atoms: N_11  and  C_12 
REMARK    3  A    between atoms: C_12  and  C_13 
ROOT
HETATM    1  C   UNL     1      40.947 -14.621   1.968  1.00  0.00     0.273 C 
HETATM    2  N   UNL     1      41.944 -15.189   2.730  1.00  0.00    -0.347 N 
HETATM    3  O   UNL     1      39.753 -14.702   2.244  1.00  0.00    -0.266 OA
HETATM    4  H   UNL     1      42.877 -15.128   2.331  1.00  0.00     0.163 HD
ENDROOT
BRANCH   2   5
HETATM    5  C   UNL     1      41.687 -15.983   3.908  1.00  0.00     0.114 C 
HETATM    6  C   UNL     1      41.784 -15.116   5.165  1.00  0.00     0.037 C 
BRANCH   5   7
HETATM    7  C   UNL     1      42.618 -17.182   3.973  1.00  0.00    -0.034 A 
HETATM    8  C   UNL     1      42.565 -18.157   2.962  1.00  0.00     0.041 A 
HETATM    9  C   UNL     1      43.381 -19.288   3.026  1.00  0.00     0.069 A 
HETATM   10  C   UNL     1      44.274 -19.455   4.084  1.00  0.00     0.096 A 
HETATM   11  N   UNL     1      43.311 -20.241   2.010  1.00  0.00    -0.323 N 
HETATM   12  O   UNL     1      45.126 -20.518   4.200  1.00  0.00    -0.340 OA
HETATM   13  C   UNL     1      44.364 -18.476   5.071  1.00  0.00     0.040 A 
HETATM   14  C   UNL     1      44.813 -21.619   3.361  1.00  0.00     0.278 C 
HETATM   15  C   UNL     1      44.028 -21.402   2.067  1.00  0.00     0.246 C 
HETATM   16  O   UNL     1      43.980 -22.233   1.164  1.00  0.00    -0.271 OA
HETATM   17  C   UNL     1      43.540 -17.349   5.019  1.00  0.00     0.012 A 
HETATM   18  H   UNL     1      42.731 -20.095   1.195  1.00  0.00     0.169 HD
ENDBRANCH   5   7
ENDBRANCH   2   5
BRANCH   1  19
HETATM   19  C   UNL     1      41.468 -13.886   0.803  1.00  0.00     0.157 A 
HETATM   20  C   UNL     1      41.281 -14.199  -0.577  1.00  0.00     0.029 A 
HETATM   21  C   UNL     1      40.635 -15.214  -1.311  1.00  0.00     0.023 A 
HETATM   22  C   UNL     1      41.930 -13.183  -1.268  1.00  0.00     0.063 A 
HETATM   23  C   UNL     1      40.664 -15.177  -2.716  1.00  0.00    -0.061 A 
HETATM   24  C   UNL     1      39.981 -16.247  -3.518  1.00  0.00     0.048 C 
HETATM   25  C   UNL     1      41.320 -14.129  -3.371  1.00  0.00     0.009 A 
HETATM   26  C   UNL     1      41.968 -13.110  -2.663  1.00  0.00     0.032 A 
HETATM   27  N   UNL     1      42.455 -12.368  -0.304  1.00  0.00    -0.277 N 
HETATM   28  H   UNL     1      42.994 -11.521  -0.446  1.00  0.00     0.189 HD
HETATM   29  N   UNL     1      42.203 -12.761   0.958  1.00  0.00    -0.168 NA
ENDBRANCH   1  19
TORSDOF 3
ENDMDL
MODEL 4
REMARK VINA RESULT:      -8.6      2.815      8.078
REMARK  3 active torsions:
REMARK  status: ('A' for Active; 'I' for Inactive)
REMARK    1  A    between atoms: C_9  and  C_10 
REMARK       I    between atoms: C_10  and  N_11 
REMARK    2  A    between atoms: N_11  and  C_12 
REMARK    3  A    between atoms: C_12  and  C_13 
ROOT
HETATM    1  C   UNL     1      43.174 -16.519   5.818  1.00  0.00     0.273 C 
HETATM    2  N   UNL     1      42.018 -16.433   5.075  1.00  0.00    -0.347 N 
HETATM    3  O   UNL     1      43.919 -15.565   6.027  1.00  0.00    -0.266 OA
HETATM    4  H   UNL     1      41.552 -17.318   4.900  1.00  0.00     0.163 HD
ENDROOT
BRANCH   2   5
HETATM    5  C   UNL     1      41.584 -15.220   4.420  1.00  0.00     0.114 C 
HETATM    6  C   UNL     1      40.257 -14.743   5.012  1.00  0.00     0.037 C 
BRANCH   5   7
HETATM    7  C   UNL     1      41.498 -15.412   2.916  1.00  0.00    -0.034 A 
HETATM    8  C   UNL     1      41.701 -14.314   2.063  1.00  0.00     0.041 A 
HETATM    9  C   UNL     1      41.583 -14.461   0.680  1.00  0.00     0.069 A 
HETATM   10  C   UNL     1      41.281 -15.704   0.125  1.00  0.00     0.096 A 
HETATM   11  N   UNL     1      41.789 -13.356  -0.146  1.00  0.00    -0.323 N 
HETATM   12  O   UNL     1      41.179 -15.933  -1.219  1.00  0.00    -0.340 OA
HETATM   13  C   UNL     1      41.116 -16.809   0.957  1.00  0.00     0.040 A 
HETATM   14  C   UNL     1      41.059 -14.760  -2.010  1.00  0.00     0.278 C 
HETATM   15  C   UNL     1      41.607 -13.428  -1.498  1.00  0.00     0.246 C 
HETATM   16  O   UNL     1      41.806 -12.459  -2.226  1.00  0.00    -0.271 OA
HETATM   17  C   UNL     1      41.220 -16.666   2.343  1.00  0.00     0.012 A 
HETATM   18  H   UNL     1      42.091 -12.468   0.233  1.00  0.00     0.169 HD
ENDBRANCH   5   7
ENDBRANCH   2   5
BRANCH   1  19
HETATM   19  C   UNL     1      43.408 -17.870   6.354  1.00  0.00     0.157 A 
HETATM   20  C   UNL     1      43.805 -19.036   5.634  1.00  0.00     0.029 A 
HETATM   21  C   UNL     1      44.077 -19.355   4.288  1.00  0.00     0.023 A 
HETATM   22  C   UNL     1      43.929 -20.030   6.595  1.00  0.00     0.063 A 
HETATM   23  C   UNL     1      44.464 -20.664   3.952  1.00  0.00    -0.061 A 
HETATM   24  C   UNL     1      44.761 -21.027   2.526  1.00  0.00     0.048 C 
HETATM   25  C   UNL     1      44.588 -21.633   4.955  1.00  0.00     0.009 A 
HETATM   26  C   UNL     1      44.322 -21.338   6.298  1.00  0.00     0.032 A 
HETATM   27  N   UNL     1      43.600 -19.431   7.780  1.00  0.00    -0.277 N 
HETATM   28  H   UNL     1      43.584 -19.860   8.698  1.00  0.00     0.189 HD
HETATM   29  N   UNL     1      43.274 -18.130   7.676  1.00  0.00    -0.168 NA
ENDBRANCH   1  19
TORSDOF 3
ENDMDL
MODEL 5
REMARK VINA RESULT:      -8.5      3.493      8.546
REMARK  3 active torsions:
REMARK  status: ('A' for Active; 'I' for Inactive)
REMARK    1  A    between atoms: C_9  and  C_10 
REMARK       I    between atoms: C_10  and  N_11 
REMARK    2  A    between atoms: N_11  and  C_12 
REMARK    3  A    between atoms: C_12  and  C_13 
ROOT
HETATM    1  C   UNL     1      42.816 -16.719   3.514  1.00  0.00     0.273 C 
HETATM    2  N   UNL     1      41.445 -16.846   3.562  1.00  0.00    -0.347 N 
HETATM    3  O   UNL     1      43.393 -15.803   2.935  1.00  0.00    -0.266 OA
HETATM    4  H   UNL     1      41.108 -17.704   3.989  1.00  0.00     0.163 HD
ENDROOT
BRANCH   2   5
HETATM    5  C   UNL     1      40.541 -15.940   2.892  1.00  0.00     0.114 C 
HETATM    6  C   UNL     1      40.904 -15.828   1.410  1.00  0.00     0.037 C 
BRANCH   5   7
HETATM    7  C   UNL     1      40.522 -14.584   3.576  1.00  0.00    -0.034 A 
HETATM    8  C   UNL     1      40.091 -14.485   4.909  1.00  0.00     0.041 A 
HETATM    9  C   UNL     1      40.024 -13.242   5.542  1.00  0.00     0.069 A 
HETATM   10  C   UNL     1      40.403 -12.084   4.864  1.00  0.00     0.096 A 
HETATM   11  N   UNL     1      39.593 -13.170   6.866  1.00  0.00    -0.323 N 
HETATM   12  O   UNL     1      40.394 -10.837   5.423  1.00  0.00    -0.340 OA
HETATM   13  C   UNL     1      40.870 -12.174   3.554  1.00  0.00     0.040 A 
HETATM   14  C   UNL     1      39.652 -10.737   6.629  1.00  0.00     0.278 C 
HETATM   15  C   UNL     1      39.433 -11.972   7.503  1.00  0.00     0.246 C 
HETATM   16  O   UNL     1      39.071 -11.910   8.675  1.00  0.00    -0.271 OA
HETATM   17  C   UNL     1      40.926 -13.413   2.912  1.00  0.00     0.012 A 
HETATM   18  H   UNL     1      39.395 -14.007   7.398  1.00  0.00     0.169 HD
ENDBRANCH   5   7
ENDBRANCH   2   5
BRANCH   1  19
HETATM   19  C   UNL     1      43.513 -17.786   4.252  1.00  0.00     0.157 A 
HETATM   20  C   UNL     1      43.840 -19.095   3.788  1.00  0.00     0.029 A 
HETATM   21  C   UNL     1      43.639 -19.833   2.604  1.00  0.00     0.023 A 
HETATM   22  C   UNL     1      44.526 -19.690   4.839  1.00  0.00     0.063 A 
HETATM   23  C   UNL     1      44.132 -21.146   2.514  1.00  0.00    -0.061 A 
HETATM   24  C   UNL     1      43.932 -21.950   1.263  1.00  0.00     0.048 C 
HETATM   25  C   UNL     1      44.829 -21.703   3.594  1.00  0.00     0.009 A 
HETATM   26  C   UNL     1      45.040 -20.988   4.779  1.00  0.00     0.032 A 
HETATM   27  N   UNL     1      44.557 -18.749   5.830  1.00  0.00    -0.277 N 
HETATM   28  H   UNL     1      44.982 -18.839   6.745  1.00  0.00     0.189 HD
HETATM   29  N   UNL     1      43.952 -17.589   5.518  1.00  0.00    -0.168 NA
ENDBRANCH   1  19
TORSDOF 3
ENDMDL
MODEL 6
REMARK VINA RESULT:      -8.4      3.438      7.700
REMARK  3 active torsions:
REMARK  status: ('A' for Active; 'I' for Inactive)
REMARK    1  A    between atoms: C_9  and  C_10 
REMARK       I    between atoms: C_10  and  N_11 
REMARK    2  A    between atoms: N_11  and  C_12 
REMARK    3  A    between atoms: C_12  and  C_13 
ROOT
HETATM    1  C   UNL     1      42.376 -14.126   2.992  1.00  0.00     0.273 C 
HETATM    2  N   UNL     1      41.075 -14.290   2.570  1.00  0.00    -0.347 N 
HETATM    3  O   UNL     1      43.104 -13.213   2.611  1.00  0.00    -0.266 OA
HETATM    4  H   UNL     1      40.624 -15.142   2.890  1.00  0.00     0.163 HD
ENDROOT
BRANCH   2   5
HETATM    5  C   UNL     1      40.444 -13.432   1.595  1.00  0.00     0.114 C 
HETATM    6  C   UNL     1      39.044 -13.033   2.066  1.00  0.00     0.037 C 
BRANCH   5   7
HETATM    7  C   UNL     1      40.416 -14.090   0.226  1.00  0.00    -0.034 A 
HETATM    8  C   UNL     1      39.261 -13.991  -0.568  1.00  0.00     0.041 A 
HETATM    9  C   UNL     1      39.200 -14.624  -1.811  1.00  0.00     0.069 A 
HETATM   10  C   UNL     1      40.292 -15.348  -2.289  1.00  0.00     0.096 A 
HETATM   11  N   UNL     1      38.043 -14.511  -2.581  1.00  0.00    -0.323 N 
HETATM   12  O   UNL     1      40.320 -15.969  -3.506  1.00  0.00    -0.340 OA
HETATM   13  C   UNL     1      41.458 -15.420  -1.529  1.00  0.00     0.040 A 
HETATM   14  C   UNL     1      39.048 -16.127  -4.116  1.00  0.00     0.278 C 
HETATM   15  C   UNL     1      37.902 -15.178  -3.765  1.00  0.00     0.246 C 
HETATM   16  O   UNL     1      36.890 -15.063  -4.452  1.00  0.00    -0.271 OA
HETATM   17  C   UNL     1      41.520 -14.799  -0.278  1.00  0.00     0.012 A 
HETATM   18  H   UNL     1      37.275 -13.923  -2.288  1.00  0.00     0.169 HD
ENDBRANCH   5   7
ENDBRANCH   2   5
BRANCH   1  19
HETATM   19  C   UNL     1      42.792 -15.148   3.967  1.00  0.00     0.157 A 
HETATM   20  C   UNL     1      43.090 -16.520   3.716  1.00  0.00     0.029 A 
HETATM   21  C   UNL     1      43.088 -17.372   2.593  1.00  0.00     0.023 A 
HETATM   22  C   UNL     1      43.471 -17.039   4.947  1.00  0.00     0.063 A 
HETATM   23  C   UNL     1      43.465 -18.717   2.743  1.00  0.00    -0.061 A 
HETATM   24  C   UNL     1      43.472 -19.642   1.560  1.00  0.00     0.048 C 
HETATM   25  C   UNL     1      43.853 -19.195   4.001  1.00  0.00     0.009 A 
HETATM   26  C   UNL     1      43.863 -18.368   5.130  1.00  0.00     0.032 A 
HETATM   27  N   UNL     1      43.369 -15.996   5.826  1.00  0.00    -0.277 N 
HETATM   28  H   UNL     1      43.572 -16.011   6.819  1.00  0.00     0.189 HD
HETATM   29  N   UNL     1      42.957 -14.840   5.275  1.00  0.00    -0.168 NA
ENDBRANCH   1  19
TORSDOF 3
ENDMDL
MODEL 7
REMARK VINA RESULT:      -8.3      2.959      8.052
REMARK  3 active torsions:
REMARK  status: ('A' for Active; 'I' for Inactive)
REMARK    1  A    between atoms: C_9  and  C_10 
REMARK       I    between atoms: C_10  and  N_11 
REMARK    2  A    between atoms: N_11  and  C_12 
REMARK    3  A    between atoms: C_12  and  C_13 
ROOT
HETATM    1  C   UNL     1      42.940 -16.138   3.742  1.00  0.00     0.273 C 
HETATM    2  N   UNL     1      41.776 -15.899   3.046  1.00  0.00    -0.347 N 
HETATM    3  O   UNL     1      43.415 -15.354   4.560  1.00  0.00    -0.266 OA
HETATM    4  H   UNL     1      41.554 -16.586   2.332  1.00  0.00     0.163 HD
ENDROOT
BRANCH   2   5
HETATM    5  C   UNL     1      41.015 -14.678   3.169  1.00  0.00     0.114 C 
HETATM    6  C   UNL     1      40.126 -14.729   4.414  1.00  0.00     0.037 C 
BRANCH   5   7
HETATM    7  C   UNL     1      40.211 -14.406   1.909  1.00  0.00    -0.034 A 
HETATM    8  C   UNL     1      40.662 -14.907   0.677  1.00  0.00     0.041 A 
HETATM    9  C   UNL     1      39.961 -14.632  -0.499  1.00  0.00     0.069 A 
HETATM   10  C   UNL     1      38.793 -13.871  -0.463  1.00  0.00     0.096 A 
HETATM   11  N   UNL     1      40.429 -15.142  -1.710  1.00  0.00    -0.323 N 
HETATM   12  O   UNL     1      38.037 -13.585  -1.565  1.00  0.00    -0.340 OA
HETATM   13  C   UNL     1      38.314 -13.402   0.758  1.00  0.00     0.040 A 
HETATM   14  C   UNL     1      38.689 -13.817  -2.804  1.00  0.00     0.278 C 
HETATM   15  C   UNL     1      39.826 -14.834  -2.897  1.00  0.00     0.246 C 
HETATM   16  O   UNL     1      40.227 -15.298  -3.962  1.00  0.00    -0.271 OA
HETATM   17  C   UNL     1      39.019 -13.663   1.936  1.00  0.00     0.012 A 
HETATM   18  H   UNL     1      41.226 -15.763  -1.744  1.00  0.00     0.169 HD
ENDBRANCH   5   7
ENDBRANCH   2   5
BRANCH   1  19
HETATM   19  C   UNL     1      43.541 -17.443   3.418  1.00  0.00     0.157 A 
HETATM   20  C   UNL     1      43.779 -18.535   4.305  1.00  0.00     0.029 A 
HETATM   21  C   UNL     1      43.594 -18.787   5.679  1.00  0.00     0.023 A 
HETATM   22  C   UNL     1      44.317 -19.537   3.508  1.00  0.00     0.063 A 
HETATM   23  C   UNL     1      43.958 -20.037   6.209  1.00  0.00    -0.061 A 
HETATM   24  C   UNL     1      43.767 -20.329   7.669  1.00  0.00     0.048 C 
HETATM   25  C   UNL     1      44.486 -21.023   5.366  1.00  0.00     0.009 A 
HETATM   26  C   UNL     1      44.678 -20.794   3.999  1.00  0.00     0.032 A 
HETATM   27  N   UNL     1      44.379 -19.004   2.250  1.00  0.00    -0.277 N 
HETATM   28  H   UNL     1      44.719 -19.457   1.410  1.00  0.00     0.189 HD
HETATM   29  N   UNL     1      43.926 -17.741   2.155  1.00  0.00    -0.168 NA
ENDBRANCH   1  19
TORSDOF 3
ENDMDL
MODEL 8
REMARK VINA RESULT:      -8.3      3.187      7.616
REMARK  3 active torsions:
REMARK  status: ('A' for Active; 'I' for Inactive)
REMARK    1  A    between atoms: C_9  and  C_10 
REMARK       I    between atoms: C_10  and  N_11 
REMARK    2  A    between atoms: N_11  and  C_12 
REMARK    3  A    between atoms: C_12  and  C_13 
ROOT
HETATM    1  C   UNL     1      43.227 -14.216   4.063  1.00  0.00     0.273 C 
HETATM    2  N   UNL     1      41.916 -13.811   3.939  1.00  0.00    -0.347 N 
HETATM    3  O   UNL     1      44.171 -13.626   3.546  1.00  0.00    -0.266 OA
HETATM    4  H   UNL     1      41.230 -14.447   4.336  1.00  0.00     0.163 HD
ENDROOT
BRANCH   2   5
HETATM    5  C   UNL     1      41.508 -12.676   3.144  1.00  0.00     0.114 C 
HETATM    6  C   UNL     1      40.670 -11.712   3.986  1.00  0.00     0.037 C 
BRANCH   5   7
HETATM    7  C   UNL     1      40.773 -13.122   1.892  1.00  0.00    -0.034 A 
HETATM    8  C   UNL     1      41.499 -13.665   0.818  1.00  0.00     0.041 A 
HETATM    9  C   UNL     1      40.847 -14.041  -0.358  1.00  0.00     0.069 A 
HETATM   10  C   UNL     1      39.465 -13.900  -0.475  1.00  0.00     0.096 A 
HETATM   11  N   UNL     1      41.588 -14.578  -1.410  1.00  0.00    -0.323 N 
HETATM   12  O   UNL     1      38.752 -14.273  -1.581  1.00  0.00    -0.340 OA
HETATM   13  C   UNL     1      38.729 -13.400   0.597  1.00  0.00     0.040 A 
HETATM   14  C   UNL     1      39.539 -14.497  -2.741  1.00  0.00     0.278 C 
HETATM   15  C   UNL     1      41.011 -14.886  -2.610  1.00  0.00     0.246 C 
HETATM   16  O   UNL     1      41.662 -15.375  -3.530  1.00  0.00    -0.271 OA
HETATM   17  C   UNL     1      39.378 -13.010   1.772  1.00  0.00     0.012 A 
HETATM   18  H   UNL     1      42.577 -14.765  -1.312  1.00  0.00     0.169 HD
ENDBRANCH   5   7
ENDBRANCH   2   5
BRANCH   1  19
HETATM   19  C   UNL     1      43.376 -15.416   4.903  1.00  0.00     0.157 A 
HETATM   20  C   UNL     1      43.489 -16.771   4.472  1.00  0.00     0.029 A 
HETATM   21  C   UNL     1      43.480 -17.448   3.236  1.00  0.00     0.023 A 
HETATM   22  C   UNL     1      43.651 -17.509   5.637  1.00  0.00     0.063 A 
HETATM   23  C   UNL     1      43.631 -18.846   3.210  1.00  0.00    -0.061 A 
HETATM   24  C   UNL     1      43.627 -19.588   1.905  1.00  0.00     0.048 C 
HETATM   25  C   UNL     1      43.804 -19.549   4.409  1.00  0.00     0.009 A 
HETATM   26  C   UNL     1      43.816 -18.897   5.648  1.00  0.00     0.032 A 
HETATM   27  N   UNL     1      43.613 -16.594   6.653  1.00  0.00    -0.277 N 
HETATM   28  H   UNL     1      43.702 -16.778   7.645  1.00  0.00     0.189 HD
HETATM   29  N   UNL     1      43.443 -15.322   6.252  1.00  0.00    -0.168 NA
ENDBRANCH   1  19
TORSDOF 3
ENDMDL
MODEL 9
REMARK VINA RESULT:      -8.2      3.219      8.073
REMARK  3 active torsions:
REMARK  status: ('A' for Active; 'I' for Inactive)
REMARK    1  A    between atoms: C_9  and  C_10 
REMARK       I    between atoms: C_10  and  N_11 
REMARK    2  A    between atoms: N_11  and  C_12 
REMARK    3  A    between atoms: C_12  and  C_13 
ROOT
HETATM    1  C   UNL     1      43.844 -15.016   6.653  1.00  0.00     0.273 C 
HETATM    2  N   UNL     1      42.651 -14.581   6.121  1.00  0.00    -0.347 N 
HETATM    3  O   UNL     1      44.863 -14.330   6.685  1.00  0.00    -0.266 OA
HETATM    4  H   UNL     1      41.920 -15.285   6.070  1.00  0.00     0.163 HD
ENDROOT
BRANCH   2   5
HETATM    5  C   UNL     1      42.485 -13.288   5.498  1.00  0.00     0.114 C 
HETATM    6  C   UNL     1      41.935 -12.279   6.508  1.00  0.00     0.037 C 
BRANCH   5   7
HETATM    7  C   UNL     1      41.609 -13.386   4.260  1.00  0.00    -0.034 A 
HETATM    8  C   UNL     1      41.997 -14.225   3.201  1.00  0.00     0.041 A 
HETATM    9  C   UNL     1      41.228 -14.296   2.038  1.00  0.00     0.069 A 
HETATM   10  C   UNL     1      40.056 -13.550   1.919  1.00  0.00     0.096 A 
HETATM   11  N   UNL     1      41.633 -15.136   1.000  1.00  0.00    -0.323 N 
HETATM   12  O   UNL     1      39.236 -13.589   0.826  1.00  0.00    -0.340 OA
HETATM   13  C   UNL     1      39.641 -12.745   2.978  1.00  0.00     0.040 A 
HETATM   14  C   UNL     1      39.821 -14.173  -0.329  1.00  0.00     0.278 C 
HETATM   15  C   UNL     1      40.962 -15.180  -0.189  1.00  0.00     0.246 C 
HETATM   16  O   UNL     1      41.308 -15.934  -1.095  1.00  0.00    -0.271 OA
HETATM   17  C   UNL     1      40.412 -12.660   4.140  1.00  0.00     0.012 A 
HETATM   18  H   UNL     1      42.433 -15.746   1.103  1.00  0.00     0.169 HD
ENDBRANCH   5   7
ENDBRANCH   2   5
BRANCH   1  19
HETATM   19  C   UNL     1      43.761 -16.380   7.201  1.00  0.00     0.157 A 
HETATM   20  C   UNL     1      43.881 -17.612   6.491  1.00  0.00     0.029 A 
HETATM   21  C   UNL     1      44.077 -17.996   5.149  1.00  0.00     0.023 A 
HETATM   22  C   UNL     1      43.772 -18.600   7.461  1.00  0.00     0.063 A 
HETATM   23  C   UNL     1      44.154 -19.362   4.825  1.00  0.00    -0.061 A 
HETATM   24  C   UNL     1      44.364 -19.795   3.403  1.00  0.00     0.048 C 
HETATM   25  C   UNL     1      44.050 -20.324   5.836  1.00  0.00     0.009 A 
HETATM   26  C   UNL     1      43.856 -19.965   7.175  1.00  0.00     0.032 A 
HETATM   27  N   UNL     1      43.587 -17.931   8.639  1.00  0.00    -0.277 N 
HETATM   28  H   UNL     1      43.470 -18.337   9.560  1.00  0.00     0.189 HD
HETATM   29  N   UNL     1      43.567 -16.591   8.524  1.00  0.00    -0.168 NA
ENDBRANCH   1  19
TORSDOF 3
ENDMDL
MODEL 10
REMARK VINA RESULT:      -8.1      3.298      8.159
REMARK  3 active torsions:
REMARK  status: ('A' for Active; 'I' for Inactive)
REMARK    1  A    between atoms: C_9  and  C_10 
REMARK       I    between atoms: C_10  and  N_11 
REMARK    2  A    between atoms: N_11  and  C_12 
REMARK    3  A    between atoms: C_12  and  C_13 
ROOT
HETATM    1  C   UNL     1      43.009 -17.281   4.174  1.00  0.00     0.273 C 
HETATM    2  N   UNL     1      41.812 -16.624   3.997  1.00  0.00    -0.347 N 
HETATM    3  O   UNL     1      43.791 -17.034   5.088  1.00  0.00    -0.266 OA
HETATM    4  H   UNL     1      41.312 -16.862   3.145  1.00  0.00     0.163 HD
ENDROOT
BRANCH   2   5
HETATM    5  C   UNL     1      41.372 -15.537   4.841  1.00  0.00     0.114 C 
HETATM    6  C   UNL     1      40.675 -16.082   6.089  1.00  0.00     0.037 C 
BRANCH   5   7
HETATM    7  C   UNL     1      40.486 -14.572   4.072  1.00  0.00    -0.034 A 
HETATM    8  C   UNL     1      40.018 -14.927   2.795  1.00  0.00     0.041 A 
HETATM    9  C   UNL     1      39.238 -14.037   2.054  1.00  0.00     0.069 A 
HETATM   10  C   UNL     1      38.898 -12.791   2.580  1.00  0.00     0.096 A 
HETATM   11  N   UNL     1      38.785 -14.412   0.790  1.00  0.00    -0.323 N 
HETATM   12  O   UNL     1      38.114 -11.879   1.930  1.00  0.00    -0.340 OA
HETATM   13  C   UNL     1      39.322 -12.443   3.861  1.00  0.00     0.040 A 
HETATM   14  C   UNL     1      37.946 -12.129   0.542  1.00  0.00     0.278 C 
HETATM   15  C   UNL     1      38.088 -13.549  -0.007  1.00  0.00     0.246 C 
HETATM   16  O   UNL     1      37.674 -13.886  -1.113  1.00  0.00    -0.271 OA
HETATM   17  C   UNL     1      40.114 -13.325   4.601  1.00  0.00     0.012 A 
HETATM   18  H   UNL     1      38.952 -15.342   0.429  1.00  0.00     0.169 HD
ENDBRANCH   5   7
ENDBRANCH   2   5
BRANCH   1  19
HETATM   19  C   UNL     1      43.238 -18.329   3.165  1.00  0.00     0.157 A 
HETATM   20  C   UNL     1      43.765 -19.638   3.375  1.00  0.00     0.029 A 
HETATM   21  C   UNL     1      44.248 -20.375   4.475  1.00  0.00     0.023 A 
HETATM   22  C   UNL     1      43.740 -20.243   2.124  1.00  0.00     0.063 A 
HETATM   23  C   UNL     1      44.693 -21.695   4.283  1.00  0.00    -0.061 A 
HETATM   24  C   UNL     1      45.209 -22.500   5.440  1.00  0.00     0.048 C 
HETATM   25  C   UNL     1      44.639 -22.268   3.006  1.00  0.00     0.009 A 
HETATM   26  C   UNL     1      44.163 -21.555   1.900  1.00  0.00     0.032 A 
HETATM   27  N   UNL     1      43.236 -19.296   1.276  1.00  0.00    -0.277 N 
HETATM   28  H   UNL     1      43.075 -19.392   0.280  1.00  0.00     0.189 HD
HETATM   29  N   UNL     1      42.926 -18.127   1.863  1.00  0.00    -0.168 NA
ENDBRANCH   1  19
TORSDOF 3
ENDMDL
