MODEL 1
REMARK VINA RESULT:      -8.5      0.000      0.000
REMARK  4 active torsions:
REMARK  status: ('A' for Active; 'I' for Inactive)
REMARK    1  A    between atoms: C_9  and  C_10 
REMARK    2  A    between atoms: C_13  and  O_14 
REMARK    3  A    between atoms: C_18  and  C_19 
REMARK       I    between atoms: C_19  and  N_20 
REMARK    4  A    between atoms: N_20  and  C_21 
ROOT
HETATM    1  C   UNL     1      44.090 -15.102   6.556  1.00  0.00     0.070 C 
HETATM    2  C   UNL     1      42.842 -14.504   5.958  1.00  0.00     0.037 C 
HETATM    3  N   UNL     1      42.599 -13.174   6.297  1.00  0.00    -0.192 N 
HETATM    4  C   UNL     1      41.395 -12.591   6.136  1.00  0.00     0.725 A 
HETATM    5  N   UNL     1      40.425 -13.240   5.422  1.00  0.00    -0.084 N 
HETATM    6  N   UNL     1      39.257 -12.565   5.453  1.00  0.00    -0.149 NA
HETATM    7  C   UNL     1      39.615 -11.488   6.161  1.00  0.00     0.275 A 
HETATM    8  N   UNL     1      40.916 -11.463   6.596  1.00  0.00    -0.054 NA
HETATM    9  C   UNL     1      40.626 -14.533   4.757  1.00  0.00     0.202 C 
HETATM   10  C   UNL     1      41.933 -15.183   5.211  1.00  0.00     0.062 C 
HETATM   11  H   UNL     1      43.250 -12.729   6.940  1.00  0.00     0.184 HD
ENDROOT
BRANCH  10  12
HETATM   12  C   UNL     1      42.013 -16.638   4.906  1.00  0.00     0.256 C 
HETATM   13  N   UNL     1      42.886 -16.955   3.889  1.00  0.00    -0.323 N 
HETATM   14  H   UNL     1      43.319 -16.184   3.396  1.00  0.00     0.169 HD
HETATM   15  O   UNL     1      41.303 -17.410   5.539  1.00  0.00    -0.267 OA
BRANCH  13  16
HETATM   16  C   UNL     1      43.308 -18.247   3.505  1.00  0.00     0.035 A 
HETATM   17  C   UNL     1      44.180 -19.040   4.256  1.00  0.00     0.031 A 
HETATM   18  C   UNL     1      44.592 -20.291   3.782  1.00  0.00     0.026 A 
HETATM   19  C   UNL     1      44.136 -20.753   2.552  1.00  0.00     0.034 A 
HETATM   20 CL   UNL     1      44.660 -22.282   1.962  1.00  0.00    -0.084 Cl
HETATM   21  C   UNL     1      43.263 -19.979   1.795  1.00  0.00     0.026 A 
HETATM   22  C   UNL     1      42.846 -18.732   2.273  1.00  0.00     0.031 A 
ENDBRANCH  13  16
ENDBRANCH  10  12
BRANCH   9  23
HETATM   23  C   UNL     1      40.565 -14.355   3.241  1.00  0.00    -0.028 A 
HETATM   24  C   UNL     1      39.482 -14.826   2.480  1.00  0.00     0.012 A 
HETATM   25  C   UNL     1      39.476 -14.685   1.090  1.00  0.00     0.037 A 
HETATM   26  C   UNL     1      40.542 -14.071   0.431  1.00  0.00     0.068 A 
HETATM   27  C   UNL     1      41.605 -13.567   1.179  1.00  0.00     0.037 A 
HETATM   28  C   UNL     1      41.615 -13.706   2.572  1.00  0.00     0.012 A 
BRANCH  26  29
HETATM   29  O   UNL     1      40.421 -14.020  -0.930  1.00  0.00    -0.356 OA
HETATM   30  C   UNL     1      40.969 -15.111  -1.659  1.00  0.00     0.210 C 
ENDBRANCH  26  29
ENDBRANCH   9  23
TORSDOF 4
ENDMDL
MODEL 2
REMARK VINA RESULT:      -7.8      3.555      5.438
REMARK  4 active torsions:
REMARK  status: ('A' for Active; 'I' for Inactive)
REMARK    1  A    between atoms: C_9  and  C_10 
REMARK    2  A    between atoms: C_13  and  O_14 
REMARK    3  A    between atoms: C_18  and  C_19 
REMARK       I    between atoms: C_19  and  N_20 
REMARK    4  A    between atoms: N_20  and  C_21 
ROOT
HETATM    1  C   UNL     1      40.857 -15.777  -2.242  1.00  0.00     0.070 C 
HETATM    2  C   UNL     1      41.218 -14.543  -1.452  1.00  0.00     0.037 C 
HETATM    3  N   UNL     1      41.304 -13.368  -2.196  1.00  0.00    -0.192 N 
HETATM    4  C   UNL     1      41.925 -12.262  -1.739  1.00  0.00     0.725 A 
HETATM    5  N   UNL     1      42.301 -12.200  -0.424  1.00  0.00    -0.084 N 
HETATM    6  N   UNL     1      43.000 -11.074  -0.167  1.00  0.00    -0.149 NA
HETATM    7  C   UNL     1      42.957 -10.480  -1.364  1.00  0.00     0.275 A 
HETATM    8  N   UNL     1      42.306 -11.173  -2.354  1.00  0.00    -0.054 NA
HETATM    9  C   UNL     1      42.021 -13.253   0.558  1.00  0.00     0.202 C 
HETATM   10  C   UNL     1      41.536 -14.528  -0.133  1.00  0.00     0.062 C 
HETATM   11  H   UNL     1      41.157 -13.437  -3.200  1.00  0.00     0.184 HD
ENDROOT
BRANCH  10  12
HETATM   12  C   UNL     1      41.618 -15.741   0.728  1.00  0.00     0.256 C 
HETATM   13  N   UNL     1      42.897 -16.224   0.903  1.00  0.00    -0.323 N 
HETATM   14  H   UNL     1      43.635 -15.774   0.377  1.00  0.00     0.169 HD
HETATM   15  O   UNL     1      40.580 -16.215   1.173  1.00  0.00    -0.267 OA
BRANCH  13  16
HETATM   16  C   UNL     1      43.306 -17.234   1.801  1.00  0.00     0.035 A 
HETATM   17  C   UNL     1      43.517 -18.565   1.436  1.00  0.00     0.031 A 
HETATM   18  C   UNL     1      43.872 -19.520   2.397  1.00  0.00     0.026 A 
HETATM   19  C   UNL     1      44.014 -19.146   3.729  1.00  0.00     0.034 A 
HETATM   20 CL   UNL     1      44.431 -20.324   4.911  1.00  0.00    -0.084 Cl
HETATM   21  C   UNL     1      43.814 -17.823   4.108  1.00  0.00     0.026 A 
HETATM   22  C   UNL     1      43.466 -16.868   3.146  1.00  0.00     0.031 A 
ENDBRANCH  13  16
ENDBRANCH  10  12
BRANCH   9  23
HETATM   23  C   UNL     1      41.026 -12.746   1.600  1.00  0.00    -0.028 A 
HETATM   24  C   UNL     1      39.691 -12.455   1.272  1.00  0.00     0.012 A 
HETATM   25  C   UNL     1      38.816 -11.951   2.239  1.00  0.00     0.037 A 
HETATM   26  C   UNL     1      39.249 -11.733   3.547  1.00  0.00     0.068 A 
HETATM   27  C   UNL     1      40.561 -12.052   3.892  1.00  0.00     0.037 A 
HETATM   28  C   UNL     1      41.441 -12.557   2.927  1.00  0.00     0.012 A 
BRANCH  26  29
HETATM   29  O   UNL     1      38.300 -11.216   4.385  1.00  0.00    -0.356 OA
HETATM   30  C   UNL     1      37.902  -9.872   4.143  1.00  0.00     0.210 C 
ENDBRANCH  26  29
ENDBRANCH   9  23
TORSDOF 4
ENDMDL
MODEL 3
REMARK VINA RESULT:      -7.7      0.978      1.408
REMARK  4 active torsions:
REMARK  status: ('A' for Active; 'I' for Inactive)
REMARK    1  A    between atoms: C_9  and  C_10 
REMARK    2  A    between atoms: C_13  and  O_14 
REMARK    3  A    between atoms: C_18  and  C_19 
REMARK       I    between atoms: C_19  and  N_20 
REMARK    4  A    between atoms: N_20  and  C_21 
ROOT
HETATM    1  C   UNL     1      43.518 -14.823   6.152  1.00  0.00     0.070 C 
HETATM    2  C   UNL     1      42.464 -14.181   5.285  1.00  0.00     0.037 C 
HETATM    3  N   UNL     1      42.221 -12.834   5.546  1.00  0.00    -0.192 N 
HETATM    4  C   UNL     1      41.112 -12.198   5.117  1.00  0.00     0.725 A 
HETATM    5  N   UNL     1      40.291 -12.819   4.214  1.00  0.00    -0.084 N 
HETATM    6  N   UNL     1      39.181 -12.089   3.978  1.00  0.00    -0.149 NA
HETATM    7  C   UNL     1      39.430 -11.013   4.734  1.00  0.00     0.275 A 
HETATM    8  N   UNL     1      40.603 -11.040   5.445  1.00  0.00    -0.054 NA
HETATM    9  C   UNL     1      40.568 -14.134   3.626  1.00  0.00     0.202 C 
HETATM   10  C   UNL     1      41.708 -14.834   4.365  1.00  0.00     0.062 C 
HETATM   11  H   UNL     1      42.736 -12.405   6.311  1.00  0.00     0.184 HD
ENDROOT
BRANCH  10  12
HETATM   12  C   UNL     1      41.779 -16.298   4.104  1.00  0.00     0.256 C 
HETATM   13  N   UNL     1      42.831 -16.678   3.299  1.00  0.00    -0.323 N 
HETATM   14  H   UNL     1      43.395 -15.939   2.899  1.00  0.00     0.169 HD
HETATM   15  O   UNL     1      40.914 -17.022   4.582  1.00  0.00    -0.267 OA
BRANCH  13  16
HETATM   16  C   UNL     1      43.260 -17.997   3.030  1.00  0.00     0.035 A 
HETATM   17  C   UNL     1      42.756 -18.787   1.995  1.00  0.00     0.031 A 
HETATM   18  C   UNL     1      43.196 -20.105   1.825  1.00  0.00     0.026 A 
HETATM   19  C   UNL     1      44.142 -20.639   2.694  1.00  0.00     0.034 A 
HETATM   20 CL   UNL     1      44.667 -22.265   2.497  1.00  0.00    -0.084 Cl
HETATM   21  C   UNL     1      44.658 -19.864   3.727  1.00  0.00     0.026 A 
HETATM   22  C   UNL     1      44.223 -18.544   3.890  1.00  0.00     0.031 A 
ENDBRANCH  13  16
ENDBRANCH  10  12
BRANCH   9  23
HETATM   23  C   UNL     1      40.851 -13.989   2.131  1.00  0.00    -0.028 A 
HETATM   24  C   UNL     1      40.280 -14.851   1.180  1.00  0.00     0.012 A 
HETATM   25  C   UNL     1      40.592 -14.719  -0.175  1.00  0.00     0.037 A 
HETATM   26  C   UNL     1      41.471 -13.727  -0.611  1.00  0.00     0.068 A 
HETATM   27  C   UNL     1      42.015 -12.843   0.320  1.00  0.00     0.037 A 
HETATM   28  C   UNL     1      41.705 -12.972   1.679  1.00  0.00     0.012 A 
BRANCH  26  29
HETATM   29  O   UNL     1      41.709 -13.722  -1.958  1.00  0.00    -0.356 OA
HETATM   30  C   UNL     1      41.100 -14.762  -2.714  1.00  0.00     0.210 C 
ENDBRANCH  26  29
ENDBRANCH   9  23
TORSDOF 4
ENDMDL
MODEL 4
REMARK VINA RESULT:      -7.6      3.528      6.276
REMARK  4 active torsions:
REMARK  status: ('A' for Active; 'I' for Inactive)
REMARK    1  A    between atoms: C_9  and  C_10 
REMARK    2  A    between atoms: C_13  and  O_14 
REMARK    3  A    between atoms: C_18  and  C_19 
REMARK       I    between atoms: C_19  and  N_20 
REMARK    4  A    between atoms: N_20  and  C_21 
ROOT
HETATM    1  C   UNL     1      43.839 -17.791   1.366  1.00  0.00     0.070 C 
HETATM    2  C   UNL     1      43.371 -17.526   2.775  1.00  0.00     0.037 C 
HETATM    3  N   UNL     1      44.235 -17.960   3.779  1.00  0.00    -0.192 N 
HETATM    4  C   UNL     1      43.844 -18.109   5.061  1.00  0.00     0.725 A 
HETATM    5  N   UNL     1      42.627 -17.620   5.451  1.00  0.00    -0.084 N 
HETATM    6  N   UNL     1      42.353 -17.950   6.731  1.00  0.00    -0.149 NA
HETATM    7  C   UNL     1      43.479 -18.592   7.065  1.00  0.00     0.275 A 
HETATM    8  N   UNL     1      44.418 -18.709   6.071  1.00  0.00    -0.054 NA
HETATM    9  C   UNL     1      41.720 -16.880   4.566  1.00  0.00     0.202 C 
HETATM   10  C   UNL     1      42.169 -16.990   3.110  1.00  0.00     0.062 C 
HETATM   11  H   UNL     1      45.080 -18.447   3.491  1.00  0.00     0.184 HD
ENDROOT
BRANCH  10  12
HETATM   12  C   UNL     1      41.110 -16.623   2.130  1.00  0.00     0.256 C 
HETATM   13  N   UNL     1      41.330 -15.427   1.481  1.00  0.00    -0.323 N 
HETATM   14  H   UNL     1      42.126 -14.880   1.783  1.00  0.00     0.169 HD
HETATM   15  O   UNL     1      40.146 -17.368   2.000  1.00  0.00    -0.267 OA
BRANCH  13  16
HETATM   16  C   UNL     1      40.608 -14.913   0.381  1.00  0.00     0.035 A 
HETATM   17  C   UNL     1      39.438 -14.160   0.498  1.00  0.00     0.031 A 
HETATM   18  C   UNL     1      38.751 -13.730  -0.644  1.00  0.00     0.026 A 
HETATM   19  C   UNL     1      39.232 -14.054  -1.907  1.00  0.00     0.034 A 
HETATM   20 CL   UNL     1      38.375 -13.542  -3.309  1.00  0.00    -0.084 Cl
HETATM   21  C   UNL     1      40.399 -14.798  -2.041  1.00  0.00     0.026 A 
HETATM   22  C   UNL     1      41.089 -15.221  -0.900  1.00  0.00     0.031 A 
ENDBRANCH  13  16
ENDBRANCH  10  12
BRANCH   9  23
HETATM   23  C   UNL     1      41.608 -15.428   5.029  1.00  0.00    -0.028 A 
HETATM   24  C   UNL     1      40.385 -14.871   5.437  1.00  0.00     0.012 A 
HETATM   25  C   UNL     1      40.308 -13.528   5.814  1.00  0.00     0.037 A 
HETATM   26  C   UNL     1      41.443 -12.716   5.798  1.00  0.00     0.068 A 
HETATM   27  C   UNL     1      42.669 -13.268   5.430  1.00  0.00     0.037 A 
HETATM   28  C   UNL     1      42.751 -14.614   5.052  1.00  0.00     0.012 A 
BRANCH  26  29
HETATM   29  O   UNL     1      41.224 -11.418   6.167  1.00  0.00    -0.356 OA
HETATM   30  C   UNL     1      39.959 -11.126   6.748  1.00  0.00     0.210 C 
ENDBRANCH  26  29
ENDBRANCH   9  23
TORSDOF 4
ENDMDL
MODEL 5
REMARK VINA RESULT:      -7.6      1.382      1.451
REMARK  4 active torsions:
REMARK  status: ('A' for Active; 'I' for Inactive)
REMARK    1  A    between atoms: C_9  and  C_10 
REMARK    2  A    between atoms: C_13  and  O_14 
REMARK    3  A    between atoms: C_18  and  C_19 
REMARK       I    between atoms: C_19  and  N_20 
REMARK    4  A    between atoms: N_20  and  C_21 
ROOT
HETATM    1  C   UNL     1      44.419 -14.331   6.234  1.00  0.00     0.070 C 
HETATM    2  C   UNL     1      43.094 -14.044   5.573  1.00  0.00     0.037 C 
HETATM    3  N   UNL     1      42.303 -13.095   6.216  1.00  0.00    -0.192 N 
HETATM    4  C   UNL     1      40.984 -12.958   5.969  1.00  0.00     0.725 A 
HETATM    5  N   UNL     1      40.431 -13.614   4.903  1.00  0.00    -0.084 N 
HETATM    6  N   UNL     1      39.091 -13.452   4.869  1.00  0.00    -0.149 NA
HETATM    7  C   UNL     1      38.916 -12.639   5.916  1.00  0.00     0.275 A 
HETATM    8  N   UNL     1      40.050 -12.310   6.615  1.00  0.00    -0.054 NA
HETATM    9  C   UNL     1      41.199 -14.432   3.957  1.00  0.00     0.202 C 
HETATM   10  C   UNL     1      42.610 -14.692   4.482  1.00  0.00     0.062 C 
HETATM   11  H   UNL     1      42.655 -12.704   7.087  1.00  0.00     0.184 HD
ENDROOT
BRANCH  10  12
HETATM   12  C   UNL     1      43.302 -15.820   3.798  1.00  0.00     0.256 C 
HETATM   13  N   UNL     1      43.060 -17.055   4.359  1.00  0.00    -0.323 N 
HETATM   14  H   UNL     1      42.517 -17.074   5.213  1.00  0.00     0.169 HD
HETATM   15  O   UNL     1      44.029 -15.570   2.844  1.00  0.00    -0.267 OA
BRANCH  13  16
HETATM   16  C   UNL     1      43.422 -18.313   3.828  1.00  0.00     0.035 A 
HETATM   17  C   UNL     1      44.346 -19.175   4.422  1.00  0.00     0.031 A 
HETATM   18  C   UNL     1      44.691 -20.384   3.806  1.00  0.00     0.026 A 
HETATM   19  C   UNL     1      44.113 -20.735   2.591  1.00  0.00     0.034 A 
HETATM   20 CL   UNL     1      44.552 -22.212   1.825  1.00  0.00    -0.084 Cl
HETATM   21  C   UNL     1      43.185 -19.891   1.989  1.00  0.00     0.026 A 
HETATM   22  C   UNL     1      42.836 -18.686   2.610  1.00  0.00     0.031 A 
ENDBRANCH  13  16
ENDBRANCH  10  12
BRANCH   9  23
HETATM   23  C   UNL     1      41.208 -13.768   2.581  1.00  0.00    -0.028 A 
HETATM   24  C   UNL     1      40.475 -14.288   1.501  1.00  0.00     0.012 A 
HETATM   25  C   UNL     1      40.536 -13.681   0.243  1.00  0.00     0.037 A 
HETATM   26  C   UNL     1      41.322 -12.547   0.037  1.00  0.00     0.068 A 
HETATM   27  C   UNL     1      42.025 -12.002   1.110  1.00  0.00     0.037 A 
HETATM   28  C   UNL     1      41.966 -12.606   2.371  1.00  0.00     0.012 A 
BRANCH  26  29
HETATM   29  O   UNL     1      41.313 -12.069  -1.244  1.00  0.00    -0.356 OA
HETATM   30  C   UNL     1      42.444 -12.379  -2.048  1.00  0.00     0.210 C 
ENDBRANCH  26  29
ENDBRANCH   9  23
TORSDOF 4
ENDMDL
MODEL 6
REMARK VINA RESULT:      -7.5      3.203      6.167
REMARK  4 active torsions:
REMARK  status: ('A' for Active; 'I' for Inactive)
REMARK    1  A    between atoms: C_9  and  C_10 
REMARK    2  A    between atoms: C_13  and  O_14 
REMARK    3  A    between atoms: C_18  and  C_19 
REMARK       I    between atoms: C_19  and  N_20 
REMARK    4  A    between atoms: N_20  and  C_21 
ROOT
HETATM    1  C   UNL     1      39.856 -14.461   5.104  1.00  0.00     0.070 C 
HETATM    2  C   UNL     1      41.128 -15.269   5.170  1.00  0.00     0.037 C 
HETATM    3  N   UNL     1      41.410 -15.831   6.414  1.00  0.00    -0.192 N 
HETATM    4  C   UNL     1      42.634 -16.289   6.745  1.00  0.00     0.725 A 
HETATM    5  N   UNL     1      43.588 -16.413   5.773  1.00  0.00    -0.084 N 
HETATM    6  N   UNL     1      44.777 -16.780   6.296  1.00  0.00    -0.149 NA
HETATM    7  C   UNL     1      44.447 -16.913   7.586  1.00  0.00     0.275 A 
HETATM    8  N   UNL     1      43.143 -16.623   7.903  1.00  0.00    -0.054 NA
HETATM    9  C   UNL     1      43.352 -16.127   4.353  1.00  0.00     0.202 C 
HETATM   10  C   UNL     1      42.022 -15.401   4.157  1.00  0.00     0.062 C 
HETATM   11  H   UNL     1      40.768 -15.626   7.177  1.00  0.00     0.184 HD
ENDROOT
BRANCH  10  12
HETATM   12  C   UNL     1      41.898 -14.730   2.833  1.00  0.00     0.256 C 
HETATM   13  N   UNL     1      41.071 -15.381   1.944  1.00  0.00    -0.323 N 
HETATM   14  H   UNL     1      40.700 -16.278   2.232  1.00  0.00     0.169 HD
HETATM   15  O   UNL     1      42.538 -13.704   2.633  1.00  0.00    -0.267 OA
BRANCH  13  16
HETATM   16  C   UNL     1      40.618 -14.898   0.697  1.00  0.00     0.035 A 
HETATM   17  C   UNL     1      41.336 -15.018  -0.495  1.00  0.00     0.031 A 
HETATM   18  C   UNL     1      40.842 -14.465  -1.684  1.00  0.00     0.026 A 
HETATM   19  C   UNL     1      39.628 -13.788  -1.682  1.00  0.00     0.034 A 
HETATM   20 CL   UNL     1      39.032 -13.092  -3.139  1.00  0.00    -0.084 Cl
HETATM   21  C   UNL     1      38.897 -13.665  -0.505  1.00  0.00     0.026 A 
HETATM   22  C   UNL     1      39.389 -14.224   0.680  1.00  0.00     0.031 A 
ENDBRANCH  13  16
ENDBRANCH  10  12
BRANCH   9  23
HETATM   23  C   UNL     1      43.432 -17.418   3.540  1.00  0.00    -0.028 A 
HETATM   24  C   UNL     1      43.100 -18.666   4.094  1.00  0.00     0.012 A 
HETATM   25  C   UNL     1      43.223 -19.834   3.337  1.00  0.00     0.037 A 
HETATM   26  C   UNL     1      43.674 -19.784   2.017  1.00  0.00     0.068 A 
HETATM   27  C   UNL     1      43.972 -18.548   1.447  1.00  0.00     0.037 A 
HETATM   28  C   UNL     1      43.849 -17.375   2.201  1.00  0.00     0.012 A 
BRANCH  26  29
HETATM   29  O   UNL     1      43.772 -21.000   1.399  1.00  0.00    -0.356 OA
HETATM   30  C   UNL     1      44.363 -22.052   2.153  1.00  0.00     0.210 C 
ENDBRANCH  26  29
ENDBRANCH   9  23
TORSDOF 4
ENDMDL
MODEL 7
REMARK VINA RESULT:      -7.4      2.308      3.404
REMARK  4 active torsions:
REMARK  status: ('A' for Active; 'I' for Inactive)
REMARK    1  A    between atoms: C_9  and  C_10 
REMARK    2  A    between atoms: C_13  and  O_14 
REMARK    3  A    between atoms: C_18  and  C_19 
REMARK       I    between atoms: C_19  and  N_20 
REMARK    4  A    between atoms: N_20  and  C_21 
ROOT
HETATM    1  C   UNL     1      40.867 -14.288   5.094  1.00  0.00     0.070 C 
HETATM    2  C   UNL     1      40.276 -13.786   3.800  1.00  0.00     0.037 C 
HETATM    3  N   UNL     1      39.699 -12.519   3.863  1.00  0.00    -0.192 N 
HETATM    4  C   UNL     1      38.849 -12.059   2.923  1.00  0.00     0.725 A 
HETATM    5  N   UNL     1      38.702 -12.756   1.755  1.00  0.00    -0.084 N 
HETATM    6  N   UNL     1      37.738 -12.216   0.979  1.00  0.00    -0.149 NA
HETATM    7  C   UNL     1      37.388 -11.160   1.723  1.00  0.00     0.275 A 
HETATM    8  N   UNL     1      38.046 -11.027   2.920  1.00  0.00    -0.054 NA
HETATM    9  C   UNL     1      39.461 -13.967   1.422  1.00  0.00     0.202 C 
HETATM   10  C   UNL     1      40.198 -14.503   2.650  1.00  0.00     0.062 C 
HETATM   11  H   UNL     1      39.688 -12.054   4.768  1.00  0.00     0.184 HD
ENDROOT
BRANCH  10  12
HETATM   12  C   UNL     1      40.649 -15.915   2.505  1.00  0.00     0.256 C 
HETATM   13  N   UNL     1      42.005 -16.095   2.673  1.00  0.00    -0.323 N 
HETATM   14  H   UNL     1      42.568 -15.262   2.790  1.00  0.00     0.169 HD
HETATM   15  O   UNL     1      39.817 -16.771   2.232  1.00  0.00    -0.267 OA
BRANCH  13  16
HETATM   16  C   UNL     1      42.690 -17.325   2.777  1.00  0.00     0.035 A 
HETATM   17  C   UNL     1      42.973 -18.157   1.691  1.00  0.00     0.031 A 
HETATM   18  C   UNL     1      43.612 -19.387   1.883  1.00  0.00     0.026 A 
HETATM   19  C   UNL     1      43.969 -19.792   3.164  1.00  0.00     0.034 A 
HETATM   20 CL   UNL     1      44.736 -21.314   3.401  1.00  0.00    -0.084 Cl
HETATM   21  C   UNL     1      43.700 -18.974   4.256  1.00  0.00     0.026 A 
HETATM   22  C   UNL     1      43.068 -17.740   4.062  1.00  0.00     0.031 A 
ENDBRANCH  13  16
ENDBRANCH  10  12
BRANCH   9  23
HETATM   23  C   UNL     1      40.408 -13.686   0.257  1.00  0.00    -0.028 A 
HETATM   24  C   UNL     1      41.322 -12.620   0.282  1.00  0.00     0.012 A 
HETATM   25  C   UNL     1      42.145 -12.364  -0.817  1.00  0.00     0.037 A 
HETATM   26  C   UNL     1      42.080 -13.163  -1.959  1.00  0.00     0.068 A 
HETATM   27  C   UNL     1      41.202 -14.246  -1.981  1.00  0.00     0.037 A 
HETATM   28  C   UNL     1      40.376 -14.507  -0.882  1.00  0.00     0.012 A 
BRANCH  26  29
HETATM   29  O   UNL     1      42.921 -12.789  -2.970  1.00  0.00    -0.356 OA
HETATM   30  C   UNL     1      42.476 -11.730  -3.809  1.00  0.00     0.210 C 
ENDBRANCH  26  29
ENDBRANCH   9  23
TORSDOF 4
ENDMDL
MODEL 8
REMARK VINA RESULT:      -7.2      3.038      6.046
REMARK  4 active torsions:
REMARK  status: ('A' for Active; 'I' for Inactive)
REMARK    1  A    between atoms: C_9  and  C_10 
REMARK    2  A    between atoms: C_13  and  O_14 
REMARK    3  A    between atoms: C_18  and  C_19 
REMARK       I    between atoms: C_19  and  N_20 
REMARK    4  A    between atoms: N_20  and  C_21 
ROOT
HETATM    1  C   UNL     1      39.919 -12.347   4.150  1.00  0.00     0.070 C 
HETATM    2  C   UNL     1      41.224 -13.079   4.342  1.00  0.00     0.037 C 
HETATM    3  N   UNL     1      41.686 -13.134   5.655  1.00  0.00    -0.192 N 
HETATM    4  C   UNL     1      42.961 -13.443   5.965  1.00  0.00     0.725 A 
HETATM    5  N   UNL     1      43.789 -13.930   4.990  1.00  0.00    -0.084 N 
HETATM    6  N   UNL     1      45.050 -14.082   5.448  1.00  0.00    -0.149 NA
HETATM    7  C   UNL     1      44.892 -13.718   6.726  1.00  0.00     0.275 A 
HETATM    8  N   UNL     1      43.628 -13.322   7.084  1.00  0.00    -0.054 NA
HETATM    9  C   UNL     1      43.362 -14.197   3.612  1.00  0.00     0.202 C 
HETATM   10  C   UNL     1      41.987 -13.589   3.340  1.00  0.00     0.062 C 
HETATM   11  H   UNL     1      41.138 -12.654   6.365  1.00  0.00     0.184 HD
ENDROOT
BRANCH  10  12
HETATM   12  C   UNL     1      41.666 -13.462   1.891  1.00  0.00     0.256 C 
HETATM   13  N   UNL     1      40.716 -14.354   1.443  1.00  0.00    -0.323 N 
HETATM   14  H   UNL     1      40.393 -15.052   2.101  1.00  0.00     0.169 HD
HETATM   15  O   UNL     1      42.268 -12.627   1.228  1.00  0.00    -0.267 OA
BRANCH  13  16
HETATM   16  C   UNL     1      40.081 -14.354   0.181  1.00  0.00     0.035 A 
HETATM   17  C   UNL     1      40.691 -14.783  -1.000  1.00  0.00     0.031 A 
HETATM   18  C   UNL     1      40.012 -14.703  -2.222  1.00  0.00     0.026 A 
HETATM   19  C   UNL     1      38.720 -14.191  -2.267  1.00  0.00     0.034 A 
HETATM   20 CL   UNL     1      37.895 -14.074  -3.772  1.00  0.00    -0.084 Cl
HETATM   21  C   UNL     1      38.096 -13.764  -1.099  1.00  0.00     0.026 A 
HETATM   22  C   UNL     1      38.773 -13.852   0.123  1.00  0.00     0.031 A 
ENDBRANCH  13  16
ENDBRANCH  10  12
BRANCH   9  23
HETATM   23  C   UNL     1      43.394 -15.699   3.337  1.00  0.00    -0.028 A 
HETATM   24  C   UNL     1      43.896 -16.223   2.134  1.00  0.00     0.012 A 
HETATM   25  C   UNL     1      43.873 -17.600   1.895  1.00  0.00     0.037 A 
HETATM   26  C   UNL     1      43.357 -18.480   2.847  1.00  0.00     0.068 A 
HETATM   27  C   UNL     1      42.890 -17.974   4.059  1.00  0.00     0.037 A 
HETATM   28  C   UNL     1      42.911 -16.596   4.303  1.00  0.00     0.012 A 
BRANCH  26  29
HETATM   29  O   UNL     1      43.372 -19.797   2.478  1.00  0.00    -0.356 OA
HETATM   30  C   UNL     1      44.515 -20.552   2.861  1.00  0.00     0.210 C 
ENDBRANCH  26  29
ENDBRANCH   9  23
TORSDOF 4
ENDMDL
MODEL 9
REMARK VINA RESULT:      -7.2      3.018      5.942
REMARK  4 active torsions:
REMARK  status: ('A' for Active; 'I' for Inactive)
REMARK    1  A    between atoms: C_9  and  C_10 
REMARK    2  A    between atoms: C_13  and  O_14 
REMARK    3  A    between atoms: C_18  and  C_19 
REMARK       I    between atoms: C_19  and  N_20 
REMARK    4  A    between atoms: N_20  and  C_21 
ROOT
HETATM    1  C   UNL     1      41.213 -11.886   5.112  1.00  0.00     0.070 C 
HETATM    2  C   UNL     1      42.278 -12.550   5.949  1.00  0.00     0.037 C 
HETATM    3  N   UNL     1      42.380 -12.084   7.258  1.00  0.00    -0.192 N 
HETATM    4  C   UNL     1      43.462 -12.313   8.030  1.00  0.00     0.725 A 
HETATM    5  N   UNL     1      44.408 -13.208   7.609  1.00  0.00    -0.084 N 
HETATM    6  N   UNL     1      45.467 -13.232   8.445  1.00  0.00    -0.149 NA
HETATM    7  C   UNL     1      45.062 -12.364   9.379  1.00  0.00     0.275 A 
HETATM    8  N   UNL     1      43.839 -11.780   9.163  1.00  0.00    -0.054 NA
HETATM    9  C   UNL     1      44.298 -13.996   6.376  1.00  0.00     0.202 C 
HETATM   10  C   UNL     1      43.164 -13.473   5.494  1.00  0.00     0.062 C 
HETATM   11  H   UNL     1      41.766 -11.321   7.533  1.00  0.00     0.184 HD
ENDROOT
BRANCH  10  12
HETATM   12  C   UNL     1      43.243 -13.939   4.082  1.00  0.00     0.256 C 
HETATM   13  N   UNL     1      42.126 -14.620   3.648  1.00  0.00    -0.323 N 
HETATM   14  H   UNL     1      41.408 -14.811   4.335  1.00  0.00     0.169 HD
HETATM   15  O   UNL     1      44.266 -13.716   3.447  1.00  0.00    -0.267 OA
BRANCH  13  16
HETATM   16  C   UNL     1      41.835 -15.015   2.324  1.00  0.00     0.035 A 
HETATM   17  C   UNL     1      42.120 -16.281   1.806  1.00  0.00     0.031 A 
HETATM   18  C   UNL     1      41.848 -16.580   0.465  1.00  0.00     0.026 A 
HETATM   19  C   UNL     1      41.291 -15.612  -0.363  1.00  0.00     0.034 A 
HETATM   20 CL   UNL     1      40.976 -15.974  -2.015  1.00  0.00    -0.084 Cl
HETATM   21  C   UNL     1      40.995 -14.348   0.139  1.00  0.00     0.026 A 
HETATM   22  C   UNL     1      41.261 -14.054   1.480  1.00  0.00     0.031 A 
ENDBRANCH  13  16
ENDBRANCH  10  12
BRANCH   9  23
HETATM   23  C   UNL     1      44.132 -15.476   6.714  1.00  0.00    -0.028 A 
HETATM   24  C   UNL     1      43.458 -15.902   7.871  1.00  0.00     0.012 A 
HETATM   25  C   UNL     1      43.360 -17.263   8.175  1.00  0.00     0.037 A 
HETATM   26  C   UNL     1      43.924 -18.223   7.334  1.00  0.00     0.068 A 
HETATM   27  C   UNL     1      44.564 -17.813   6.165  1.00  0.00     0.037 A 
HETATM   28  C   UNL     1      44.664 -16.452   5.857  1.00  0.00     0.012 A 
BRANCH  26  29
HETATM   29  O   UNL     1      43.777 -19.515   7.760  1.00  0.00    -0.356 OA
HETATM   30  C   UNL     1      43.817 -20.523   6.758  1.00  0.00     0.210 C 
ENDBRANCH  26  29
ENDBRANCH   9  23
TORSDOF 4
ENDMDL
MODEL 10
REMARK VINA RESULT:      -7.0      3.508      6.704
REMARK  4 active torsions:
REMARK  status: ('A' for Active; 'I' for Inactive)
REMARK    1  A    between atoms: C_9  and  C_10 
REMARK    2  A    between atoms: C_13  and  O_14 
REMARK    3  A    between atoms: C_18  and  C_19 
REMARK       I    between atoms: C_19  and  N_20 
REMARK    4  A    between atoms: N_20  and  C_21 
ROOT
HETATM    1  C   UNL     1      42.904 -16.355   6.955  1.00  0.00     0.070 C 
HETATM    2  C   UNL     1      42.922 -16.554   5.460  1.00  0.00     0.037 C 
HETATM    3  N   UNL     1      42.932 -17.882   5.038  1.00  0.00    -0.192 N 
HETATM    4  C   UNL     1      43.279 -18.245   3.786  1.00  0.00     0.725 A 
HETATM    5  N   UNL     1      43.421 -17.282   2.824  1.00  0.00    -0.084 N 
HETATM    6  N   UNL     1      43.873 -17.807   1.666  1.00  0.00    -0.149 NA
HETATM    7  C   UNL     1      43.928 -19.104   1.991  1.00  0.00     0.275 A 
HETATM    8  N   UNL     1      43.571 -19.414   3.279  1.00  0.00    -0.054 NA
HETATM    9  C   UNL     1      43.163 -15.855   3.050  1.00  0.00     0.202 C 
HETATM   10  C   UNL     1      43.014 -15.557   4.542  1.00  0.00     0.062 C 
HETATM   11  H   UNL     1      42.965 -18.601   5.756  1.00  0.00     0.184 HD
ENDROOT
BRANCH  10  12
HETATM   12  C   UNL     1      43.155 -14.113   4.879  1.00  0.00     0.256 C 
HETATM   13  N   UNL     1      41.957 -13.450   5.032  1.00  0.00    -0.323 N 
HETATM   14  H   UNL     1      41.113 -13.969   4.823  1.00  0.00     0.169 HD
HETATM   15  O   UNL     1      44.280 -13.637   4.964  1.00  0.00    -0.267 OA
BRANCH  13  16
HETATM   16  C   UNL     1      41.770 -12.140   5.526  1.00  0.00     0.035 A 
HETATM   17  C   UNL     1      41.874 -11.791   6.875  1.00  0.00     0.031 A 
HETATM   18  C   UNL     1      41.623 -10.479   7.293  1.00  0.00     0.026 A 
HETATM   19  C   UNL     1      41.263  -9.510   6.363  1.00  0.00     0.034 A 
HETATM   20 CL   UNL     1      40.935  -7.903   6.881  1.00  0.00    -0.084 Cl
HETATM   21  C   UNL     1      41.161  -9.839   5.015  1.00  0.00     0.026 A 
HETATM   22  C   UNL     1      41.420 -11.149   4.597  1.00  0.00     0.031 A 
ENDBRANCH  13  16
ENDBRANCH  10  12
BRANCH   9  23
HETATM   23  C   UNL     1      41.941 -15.411   2.248  1.00  0.00    -0.028 A 
HETATM   24  C   UNL     1      42.050 -14.546   1.146  1.00  0.00     0.012 A 
HETATM   25  C   UNL     1      40.909 -14.125   0.458  1.00  0.00     0.037 A 
HETATM   26  C   UNL     1      39.641 -14.559   0.848  1.00  0.00     0.068 A 
HETATM   27  C   UNL     1      39.525 -15.446   1.917  1.00  0.00     0.037 A 
HETATM   28  C   UNL     1      40.665 -15.870   2.609  1.00  0.00     0.012 A 
BRANCH  26  29
HETATM   29  O   UNL     1      38.610 -14.053   0.106  1.00  0.00    -0.356 OA
HETATM   30  C   UNL     1      37.327 -14.051   0.719  1.00  0.00     0.210 C 
ENDBRANCH  26  29
ENDBRANCH   9  23
TORSDOF 4
ENDMDL
