MODEL 1
REMARK VINA RESULT:      -8.9      0.000      0.000
REMARK  5 active torsions:
REMARK  status: ('A' for Active; 'I' for Inactive)
REMARK    1  A    between atoms: C_10  and  C_11 
REMARK    2  A    between atoms: C_13  and  O_14 
REMARK    3  A    between atoms: C_16  and  O_17 
REMARK    4  A    between atoms: O_17  and  C_18 
REMARK    5  A    between atoms: C_18  and  C_19 
ROOT
HETATM    1  C   UNL     1      39.714 -15.075   2.204  1.00  0.00    -0.013 A 
HETATM    2  C   UNL     1      39.860 -14.483   3.474  1.00  0.00     0.050 A 
HETATM    3  C   UNL     1      40.504 -15.155   4.518  1.00  0.00     0.102 A 
HETATM    4  C   UNL     1      41.048 -16.421   4.270  1.00  0.00     0.112 A 
HETATM    5  C   UNL     1      40.885 -17.046   3.034  1.00  0.00     0.041 A 
HETATM    6  C   UNL     1      40.230 -16.369   2.005  1.00  0.00     0.014 A 
ENDROOT
BRANCH   1   7
HETATM    7  C   UNL     1      39.097 -14.338   1.026  1.00  0.00     0.219 C 
HETATM    8  N   UNL     1      39.001 -12.907   1.241  1.00  0.00    -0.358 N 
HETATM    9  C   UNL     1      39.934 -12.084   0.720  1.00  0.00     0.088 A 
HETATM   10  H   UNL     1      38.462 -12.629   2.057  1.00  0.00     0.162 HD
HETATM   11  C   UNL     1      40.842 -12.483  -0.231  1.00  0.00     0.073 A 
HETATM   12  S   UNL     1      40.135 -10.459   1.175  1.00  0.00    -0.074 SA
HETATM   13  C   UNL     1      41.731 -11.422  -0.598  1.00  0.00    -0.023 A 
HETATM   14  C   UNL     1      40.793 -13.847  -0.725  1.00  0.00     0.256 C 
HETATM   15  C   UNL     1      41.448 -10.268   0.109  1.00  0.00     0.018 A 
HETATM   16  C   UNL     1      42.855 -11.484  -1.590  1.00  0.00     0.068 C 
HETATM   17  C   UNL     1      42.172  -8.975  -0.041  1.00  0.00     0.281 C 
HETATM   18  N   UNL     1      43.503  -9.195  -0.752  1.00  0.00    -0.070 N 
HETATM   19  C   UNL     1      44.195  -7.905  -1.057  1.00  0.00     0.270 C 
HETATM   20  H   UNL     1      44.094  -9.715  -0.090  1.00  0.00     0.279 HD
HETATM   21  C   UNL     1      43.342 -10.079  -1.987  1.00  0.00     0.239 C 
HETATM   22  N   UNL     1      39.808 -14.629  -0.194  1.00  0.00    -0.332 N 
HETATM   23  O   UNL     1      41.560 -14.265  -1.585  1.00  0.00    -0.267 OA
HETATM   24  H   UNL     1      39.839 -15.592  -0.496  1.00  0.00     0.165 HD
ENDBRANCH   1   7
BRANCH   3  25
HETATM   25  O   UNL     1      40.681 -14.654   5.779  1.00  0.00    -0.353 OA
HETATM   26  C   UNL     1      41.375 -13.419   5.891  1.00  0.00     0.210 C 
ENDBRANCH   3  25
BRANCH   4  27
HETATM   27  O   UNL     1      41.715 -17.056   5.331  1.00  0.00    -0.272 OA
BRANCH  27  28
HETATM   28  C   UNL     1      43.091 -16.953   5.324  1.00  0.00     0.300 C 
HETATM   29  O   UNL     1      43.794 -15.958   5.350  1.00  0.00    -0.259 OA
BRANCH  28  30
HETATM   30  C   UNL     1      43.624 -18.317   5.233  1.00  0.00     0.061 A 
HETATM   31  C   UNL     1      44.106 -18.820   4.020  1.00  0.00     0.051 A 
HETATM   32 CL   UNL     1      44.107 -17.886   2.567  1.00  0.00    -0.083 Cl
HETATM   33  C   UNL     1      44.589 -20.129   3.957  1.00  0.00     0.048 A 
HETATM   34  C   UNL     1      44.580 -20.924   5.103  1.00  0.00     0.035 A 
HETATM   35 CL   UNL     1      45.175 -22.535   5.022  1.00  0.00    -0.084 Cl
HETATM   36  C   UNL     1      44.088 -20.428   6.311  1.00  0.00     0.025 A 
HETATM   37  C   UNL     1      43.602 -19.120   6.380  1.00  0.00     0.021 A 
ENDBRANCH  28  30
ENDBRANCH  27  28
ENDBRANCH   4  27
TORSDOF 5
ENDMDL
MODEL 2
REMARK VINA RESULT:      -8.9      2.031      2.410
REMARK  5 active torsions:
REMARK  status: ('A' for Active; 'I' for Inactive)
REMARK    1  A    between atoms: C_10  and  C_11 
REMARK    2  A    between atoms: C_13  and  O_14 
REMARK    3  A    between atoms: C_16  and  O_17 
REMARK    4  A    between atoms: O_17  and  C_18 
REMARK    5  A    between atoms: C_18  and  C_19 
ROOT
HETATM    1  C   UNL     1      39.322 -14.450   2.185  1.00  0.00    -0.013 A 
HETATM    2  C   UNL     1      40.154 -14.006   3.233  1.00  0.00     0.050 A 
HETATM    3  C   UNL     1      41.115 -14.847   3.801  1.00  0.00     0.102 A 
HETATM    4  C   UNL     1      41.275 -16.138   3.281  1.00  0.00     0.112 A 
HETATM    5  C   UNL     1      40.440 -16.616   2.272  1.00  0.00     0.041 A 
HETATM    6  C   UNL     1      39.477 -15.770   1.721  1.00  0.00     0.014 A 
ENDROOT
BRANCH   1   7
HETATM    7  C   UNL     1      38.328 -13.535   1.488  1.00  0.00     0.219 C 
HETATM    8  N   UNL     1      38.820 -12.179   1.335  1.00  0.00    -0.358 N 
HETATM    9  C   UNL     1      39.355 -11.788   0.160  1.00  0.00     0.088 A 
HETATM   10  H   UNL     1      39.070 -11.711   2.201  1.00  0.00     0.162 HD
HETATM   11  C   UNL     1      39.235 -12.513  -1.001  1.00  0.00     0.073 A 
HETATM   12  S   UNL     1      40.267 -10.368  -0.047  1.00  0.00    -0.074 SA
HETATM   13  C   UNL     1      39.911 -11.883  -2.095  1.00  0.00    -0.023 A 
HETATM   14  C   UNL     1      38.477 -13.751  -0.984  1.00  0.00     0.256 C 
HETATM   15  C   UNL     1      40.520 -10.708  -1.696  1.00  0.00     0.018 A 
HETATM   16  C   UNL     1      40.009 -12.382  -3.507  1.00  0.00     0.068 C 
HETATM   17  C   UNL     1      41.294  -9.800  -2.588  1.00  0.00     0.281 C 
HETATM   18  N   UNL     1      41.675 -10.524  -3.874  1.00  0.00    -0.070 N 
HETATM   19  C   UNL     1      42.324  -9.608  -4.861  1.00  0.00     0.270 C 
HETATM   20  H   UNL     1      42.372 -11.232  -3.604  1.00  0.00     0.279 HD
HETATM   21  C   UNL     1      40.488 -11.280  -4.468  1.00  0.00     0.239 C 
HETATM   22  N   UNL     1      37.925 -14.085   0.218  1.00  0.00    -0.332 N 
HETATM   23  O   UNL     1      38.314 -14.437  -1.986  1.00  0.00    -0.267 OA
HETATM   24  H   UNL     1      37.467 -14.985   0.225  1.00  0.00     0.165 HD
ENDBRANCH   1   7
BRANCH   3  25
HETATM   25  O   UNL     1      41.956 -14.496   4.823  1.00  0.00    -0.353 OA
HETATM   26  C   UNL     1      42.970 -13.546   4.527  1.00  0.00     0.210 C 
ENDBRANCH   3  25
BRANCH   4  27
HETATM   27  O   UNL     1      42.271 -16.947   3.855  1.00  0.00    -0.272 OA
BRANCH  27  28
HETATM   28  C   UNL     1      43.408 -17.128   3.096  1.00  0.00     0.300 C 
HETATM   29  O   UNL     1      44.047 -16.317   2.451  1.00  0.00    -0.259 OA
BRANCH  28  30
HETATM   30  C   UNL     1      43.739 -18.557   3.153  1.00  0.00     0.061 A 
HETATM   31  C   UNL     1      44.347 -19.108   4.285  1.00  0.00     0.051 A 
HETATM   32 CL   UNL     1      44.746 -18.162   5.674  1.00  0.00    -0.083 Cl
HETATM   33  C   UNL     1      44.669 -20.468   4.305  1.00  0.00     0.048 A 
HETATM   34  C   UNL     1      44.388 -21.260   3.192  1.00  0.00     0.035 A 
HETATM   35 CL   UNL     1      44.786 -22.933   3.219  1.00  0.00    -0.084 Cl
HETATM   36  C   UNL     1      43.793 -20.708   2.057  1.00  0.00     0.025 A 
HETATM   37  C   UNL     1      43.469 -19.350   2.031  1.00  0.00     0.021 A 
ENDBRANCH  28  30
ENDBRANCH  27  28
ENDBRANCH   4  27
TORSDOF 5
ENDMDL
MODEL 3
REMARK VINA RESULT:      -8.7      2.574      4.204
REMARK  5 active torsions:
REMARK  status: ('A' for Active; 'I' for Inactive)
REMARK    1  A    between atoms: C_10  and  C_11 
REMARK    2  A    between atoms: C_13  and  O_14 
REMARK    3  A    between atoms: C_16  and  O_17 
REMARK    4  A    between atoms: O_17  and  C_18 
REMARK    5  A    between atoms: C_18  and  C_19 
ROOT
HETATM    1  C   UNL     1      41.446 -12.747   3.733  1.00  0.00    -0.013 A 
HETATM    2  C   UNL     1      42.726 -13.186   4.129  1.00  0.00     0.050 A 
HETATM    3  C   UNL     1      42.884 -14.167   5.111  1.00  0.00     0.102 A 
HETATM    4  C   UNL     1      41.741 -14.750   5.673  1.00  0.00     0.112 A 
HETATM    5  C   UNL     1      40.464 -14.309   5.328  1.00  0.00     0.041 A 
HETATM    6  C   UNL     1      40.321 -13.320   4.354  1.00  0.00     0.014 A 
ENDROOT
BRANCH   1   7
HETATM    7  C   UNL     1      41.238 -11.746   2.608  1.00  0.00     0.219 C 
HETATM    8  N   UNL     1      41.932 -12.113   1.389  1.00  0.00    -0.358 N 
HETATM    9  C   UNL     1      41.261 -12.727   0.393  1.00  0.00     0.088 A 
HETATM   10  H   UNL     1      42.938 -12.222   1.482  1.00  0.00     0.162 HD
HETATM   11  C   UNL     1      39.890 -12.802   0.343  1.00  0.00     0.073 A 
HETATM   12  S   UNL     1      42.007 -13.509  -0.920  1.00  0.00    -0.074 SA
HETATM   13  C   UNL     1      39.437 -13.524  -0.808  1.00  0.00    -0.023 A 
HETATM   14  C   UNL     1      39.111 -12.175   1.394  1.00  0.00     0.256 C 
HETATM   15  C   UNL     1      40.502 -13.967  -1.570  1.00  0.00     0.018 A 
HETATM   16  C   UNL     1      38.017 -13.819  -1.191  1.00  0.00     0.068 C 
HETATM   17  C   UNL     1      40.383 -14.736  -2.841  1.00  0.00     0.281 C 
HETATM   18  N   UNL     1      38.982 -15.321  -2.973  1.00  0.00    -0.070 N 
HETATM   19  C   UNL     1      38.771 -15.975  -4.301  1.00  0.00     0.270 C 
HETATM   20  H   UNL     1      38.912 -16.053  -2.253  1.00  0.00     0.279 HD
HETATM   21  C   UNL     1      37.906 -14.285  -2.654  1.00  0.00     0.239 C 
HETATM   22  N   UNL     1      39.834 -11.535   2.359  1.00  0.00    -0.332 N 
HETATM   23  O   UNL     1      37.885 -12.188   1.403  1.00  0.00    -0.267 OA
HETATM   24  H   UNL     1      39.276 -11.171   3.118  1.00  0.00     0.165 HD
ENDBRANCH   1   7
BRANCH   3  25
HETATM   25  O   UNL     1      44.088 -14.642   5.556  1.00  0.00    -0.353 OA
HETATM   26  C   UNL     1      44.706 -13.938   6.624  1.00  0.00     0.210 C 
ENDBRANCH   3  25
BRANCH   4  27
HETATM   27  O   UNL     1      41.935 -15.755   6.636  1.00  0.00    -0.272 OA
BRANCH  27  28
HETATM   28  C   UNL     1      41.276 -16.945   6.404  1.00  0.00     0.300 C 
HETATM   29  O   UNL     1      40.204 -17.333   6.833  1.00  0.00    -0.259 OA
BRANCH  28  30
HETATM   30  C   UNL     1      42.137 -17.750   5.531  1.00  0.00     0.061 A 
HETATM   31  C   UNL     1      43.204 -18.486   6.056  1.00  0.00     0.051 A 
HETATM   32 CL   UNL     1      43.577 -18.498   7.743  1.00  0.00    -0.083 Cl
HETATM   33  C   UNL     1      44.021 -19.229   5.200  1.00  0.00     0.048 A 
HETATM   34  C   UNL     1      43.768 -19.223   3.828  1.00  0.00     0.035 A 
HETATM   35 CL   UNL     1      44.775 -20.138   2.777  1.00  0.00    -0.084 Cl
HETATM   36  C   UNL     1      42.712 -18.479   3.301  1.00  0.00     0.025 A 
HETATM   37  C   UNL     1      41.893 -17.734   4.152  1.00  0.00     0.021 A 
ENDBRANCH  28  30
ENDBRANCH  27  28
ENDBRANCH   4  27
TORSDOF 5
ENDMDL
MODEL 4
REMARK VINA RESULT:      -8.2      3.104      4.642
REMARK  5 active torsions:
REMARK  status: ('A' for Active; 'I' for Inactive)
REMARK    1  A    between atoms: C_10  and  C_11 
REMARK    2  A    between atoms: C_13  and  O_14 
REMARK    3  A    between atoms: C_16  and  O_17 
REMARK    4  A    between atoms: O_17  and  C_18 
REMARK    5  A    between atoms: C_18  and  C_19 
ROOT
HETATM    1  C   UNL     1      41.996 -12.835   1.581  1.00  0.00    -0.013 A 
HETATM    2  C   UNL     1      42.502 -12.667   2.886  1.00  0.00     0.050 A 
HETATM    3  C   UNL     1      42.959 -13.756   3.633  1.00  0.00     0.102 A 
HETATM    4  C   UNL     1      42.951 -15.028   3.045  1.00  0.00     0.112 A 
HETATM    5  C   UNL     1      42.421 -15.229   1.772  1.00  0.00     0.041 A 
HETATM    6  C   UNL     1      41.957 -14.135   1.041  1.00  0.00     0.014 A 
ENDROOT
BRANCH   1   7
HETATM    7  C   UNL     1      41.572 -11.662   0.712  1.00  0.00     0.219 C 
HETATM    8  N   UNL     1      40.440 -11.970  -0.140  1.00  0.00    -0.358 N 
HETATM    9  C   UNL     1      39.199 -11.594   0.230  1.00  0.00     0.088 A 
HETATM   10  H   UNL     1      40.578 -12.751  -0.775  1.00  0.00     0.162 HD
HETATM   11  C   UNL     1      38.954 -10.703   1.247  1.00  0.00     0.073 A 
HETATM   12  S   UNL     1      37.771 -12.180  -0.483  1.00  0.00    -0.074 SA
HETATM   13  C   UNL     1      37.551 -10.493   1.447  1.00  0.00    -0.023 A 
HETATM   14  C   UNL     1      40.076 -10.110   1.951  1.00  0.00     0.256 C 
HETATM   15  C   UNL     1      36.804 -11.253   0.566  1.00  0.00     0.018 A 
HETATM   16  C   UNL     1      36.904  -9.605   2.468  1.00  0.00     0.068 C 
HETATM   17  C   UNL     1      35.315 -11.260   0.494  1.00  0.00     0.281 C 
HETATM   18  N   UNL     1      34.724 -10.658   1.763  1.00  0.00    -0.070 N 
HETATM   19  C   UNL     1      33.238 -10.510   1.673  1.00  0.00     0.270 C 
HETATM   20  H   UNL     1      34.922 -11.332   2.515  1.00  0.00     0.279 HD
HETATM   21  C   UNL     1      35.420  -9.354   2.146  1.00  0.00     0.239 C 
HETATM   22  N   UNL     1      41.312 -10.494   1.515  1.00  0.00    -0.332 N 
HETATM   23  O   UNL     1      39.931  -9.295   2.855  1.00  0.00    -0.267 OA
HETATM   24  H   UNL     1      42.074 -10.128   2.067  1.00  0.00     0.165 HD
ENDBRANCH   1   7
BRANCH   3  25
HETATM   25  O   UNL     1      43.458 -13.679   4.905  1.00  0.00    -0.353 OA
HETATM   26  C   UNL     1      42.534 -13.390   5.945  1.00  0.00     0.210 C 
ENDBRANCH   3  25
BRANCH   4  27
HETATM   27  O   UNL     1      43.446 -16.097   3.812  1.00  0.00    -0.272 OA
BRANCH  27  28
HETATM   28  C   UNL     1      42.540 -17.091   4.113  1.00  0.00     0.300 C 
HETATM   29  O   UNL     1      41.485 -17.021   4.719  1.00  0.00    -0.259 OA
BRANCH  28  30
HETATM   30  C   UNL     1      43.091 -18.347   3.591  1.00  0.00     0.061 A 
HETATM   31  C   UNL     1      44.055 -19.061   4.311  1.00  0.00     0.051 A 
HETATM   32 CL   UNL     1      44.655 -18.523   5.838  1.00  0.00    -0.083 Cl
HETATM   33  C   UNL     1      44.577 -20.244   3.782  1.00  0.00     0.048 A 
HETATM   34  C   UNL     1      44.138 -20.698   2.539  1.00  0.00     0.035 A 
HETATM   35 CL   UNL     1      44.784 -22.154   1.890  1.00  0.00    -0.084 Cl
HETATM   36  C   UNL     1      43.185 -19.980   1.814  1.00  0.00     0.025 A 
HETATM   37  C   UNL     1      42.660 -18.796   2.337  1.00  0.00     0.021 A 
ENDBRANCH  28  30
ENDBRANCH  27  28
ENDBRANCH   4  27
TORSDOF 5
ENDMDL
MODEL 5
REMARK VINA RESULT:      -8.2      2.260      2.835
REMARK  5 active torsions:
REMARK  status: ('A' for Active; 'I' for Inactive)
REMARK    1  A    between atoms: C_10  and  C_11 
REMARK    2  A    between atoms: C_13  and  O_14 
REMARK    3  A    between atoms: C_16  and  O_17 
REMARK    4  A    between atoms: O_17  and  C_18 
REMARK    5  A    between atoms: C_18  and  C_19 
ROOT
HETATM    1  C   UNL     1      41.107 -15.674   0.274  1.00  0.00    -0.013 A 
HETATM    2  C   UNL     1      40.993 -14.794   1.369  1.00  0.00     0.050 A 
HETATM    3  C   UNL     1      41.189 -15.238   2.680  1.00  0.00     0.102 A 
HETATM    4  C   UNL     1      41.548 -16.576   2.892  1.00  0.00     0.112 A 
HETATM    5  C   UNL     1      41.630 -17.476   1.832  1.00  0.00     0.041 A 
HETATM    6  C   UNL     1      41.421 -17.022   0.529  1.00  0.00     0.014 A 
ENDROOT
BRANCH   1   7
HETATM    7  C   UNL     1      40.986 -15.204  -1.166  1.00  0.00     0.219 C 
HETATM    8  N   UNL     1      39.667 -14.692  -1.486  1.00  0.00    -0.358 N 
HETATM    9  C   UNL     1      39.443 -13.362  -1.481  1.00  0.00     0.088 A 
HETATM   10  H   UNL     1      38.904 -15.348  -1.341  1.00  0.00     0.162 HD
HETATM   11  C   UNL     1      40.451 -12.429  -1.445  1.00  0.00     0.073 A 
HETATM   12  S   UNL     1      37.897 -12.655  -1.493  1.00  0.00    -0.074 SA
HETATM   13  C   UNL     1      39.940 -11.092  -1.429  1.00  0.00    -0.023 A 
HETATM   14  C   UNL     1      41.830 -12.881  -1.436  1.00  0.00     0.256 C 
HETATM   15  C   UNL     1      38.557 -11.087  -1.444  1.00  0.00     0.018 A 
HETATM   16  C   UNL     1      40.733  -9.819  -1.379  1.00  0.00     0.068 C 
HETATM   17  C   UNL     1      37.707  -9.863  -1.449  1.00  0.00     0.281 C 
HETATM   18  N   UNL     1      38.526  -8.651  -1.021  1.00  0.00    -0.070 N 
HETATM   19  C   UNL     1      37.753  -7.378  -1.153  1.00  0.00     0.270 C 
HETATM   20  H   UNL     1      38.731  -8.786  -0.022  1.00  0.00     0.279 HD
HETATM   21  C   UNL     1      39.871  -8.597  -1.742  1.00  0.00     0.239 C 
HETATM   22  N   UNL     1      42.005 -14.234  -1.479  1.00  0.00    -0.332 N 
HETATM   23  O   UNL     1      42.778 -12.104  -1.423  1.00  0.00    -0.267 OA
HETATM   24  H   UNL     1      42.968 -14.527  -1.396  1.00  0.00     0.165 HD
ENDBRANCH   1   7
BRANCH   3  25
HETATM   25  O   UNL     1      41.091 -14.451   3.796  1.00  0.00    -0.353 OA
HETATM   26  C   UNL     1      39.787 -14.055   4.194  1.00  0.00     0.210 C 
ENDBRANCH   3  25
BRANCH   4  27
HETATM   27  O   UNL     1      41.767 -16.982   4.220  1.00  0.00    -0.272 OA
BRANCH  27  28
HETATM   28  C   UNL     1      43.065 -16.877   4.674  1.00  0.00     0.300 C 
HETATM   29  O   UNL     1      43.736 -15.881   4.879  1.00  0.00    -0.259 OA
BRANCH  28  30
HETATM   30  C   UNL     1      43.572 -18.243   4.849  1.00  0.00     0.061 A 
HETATM   31  C   UNL     1      43.554 -18.859   6.105  1.00  0.00     0.051 A 
HETATM   32 CL   UNL     1      42.945 -18.068   7.514  1.00  0.00    -0.083 Cl
HETATM   33  C   UNL     1      44.060 -20.153   6.248  1.00  0.00     0.048 A 
HETATM   34  C   UNL     1      44.585 -20.815   5.138  1.00  0.00     0.035 A 
HETATM   35 CL   UNL     1      45.208 -22.408   5.318  1.00  0.00    -0.084 Cl
HETATM   36  C   UNL     1      44.615 -20.197   3.888  1.00  0.00     0.025 A 
HETATM   37  C   UNL     1      44.111 -18.903   3.739  1.00  0.00     0.021 A 
ENDBRANCH  28  30
ENDBRANCH  27  28
ENDBRANCH   4  27
TORSDOF 5
ENDMDL
MODEL 6
REMARK VINA RESULT:      -8.0      2.276      2.910
REMARK  5 active torsions:
REMARK  status: ('A' for Active; 'I' for Inactive)
REMARK    1  A    between atoms: C_10  and  C_11 
REMARK    2  A    between atoms: C_13  and  O_14 
REMARK    3  A    between atoms: C_16  and  O_17 
REMARK    4  A    between atoms: O_17  and  C_18 
REMARK    5  A    between atoms: C_18  and  C_19 
ROOT
HETATM    1  C   UNL     1      41.124 -12.700   2.929  1.00  0.00    -0.013 A 
HETATM    2  C   UNL     1      42.269 -12.600   3.745  1.00  0.00     0.050 A 
HETATM    3  C   UNL     1      43.032 -13.727   4.064  1.00  0.00     0.102 A 
HETATM    4  C   UNL     1      42.668 -14.965   3.519  1.00  0.00     0.112 A 
HETATM    5  C   UNL     1      41.520 -15.099   2.741  1.00  0.00     0.041 A 
HETATM    6  C   UNL     1      40.760 -13.969   2.440  1.00  0.00     0.014 A 
ENDROOT
BRANCH   1   7
HETATM    7  C   UNL     1      40.323 -11.484   2.494  1.00  0.00     0.219 C 
HETATM    8  N   UNL     1      41.152 -10.426   1.949  1.00  0.00    -0.358 N 
HETATM    9  C   UNL     1      41.278 -10.291   0.613  1.00  0.00     0.088 A 
HETATM   10  H   UNL     1      41.871 -10.076   2.576  1.00  0.00     0.162 HD
HETATM   11  C   UNL     1      40.463 -10.932  -0.288  1.00  0.00     0.073 A 
HETATM   12  S   UNL     1      42.466  -9.338  -0.143  1.00  0.00    -0.074 SA
HETATM   13  C   UNL     1      40.823 -10.631  -1.641  1.00  0.00    -0.023 A 
HETATM   14  C   UNL     1      39.395 -11.781   0.206  1.00  0.00     0.256 C 
HETATM   15  C   UNL     1      41.909  -9.776  -1.690  1.00  0.00     0.018 A 
HETATM   16  C   UNL     1      40.173 -11.153  -2.889  1.00  0.00     0.068 C 
HETATM   17  C   UNL     1      42.529  -9.253  -2.939  1.00  0.00     0.281 C 
HETATM   18  N   UNL     1      42.091 -10.089  -4.136  1.00  0.00    -0.070 N 
HETATM   19  C   UNL     1      42.570  -9.511  -5.429  1.00  0.00     0.270 C 
HETATM   20  H   UNL     1      42.543 -11.007  -4.020  1.00  0.00     0.279 HD
HETATM   21  C   UNL     1      40.584 -10.337  -4.128  1.00  0.00     0.239 C 
HETATM   22  N   UNL     1      39.285 -11.856   1.565  1.00  0.00    -0.332 N 
HETATM   23  O   UNL     1      38.620 -12.368  -0.540  1.00  0.00    -0.267 OA
HETATM   24  H   UNL     1      38.585 -12.509   1.886  1.00  0.00     0.165 HD
ENDBRANCH   1   7
BRANCH   3  25
HETATM   25  O   UNL     1      44.152 -13.716   4.852  1.00  0.00    -0.353 OA
HETATM   26  C   UNL     1      43.956 -13.853   6.253  1.00  0.00     0.210 C 
ENDBRANCH   3  25
BRANCH   4  27
HETATM   27  O   UNL     1      43.475 -16.071   3.835  1.00  0.00    -0.272 OA
BRANCH  27  28
HETATM   28  C   UNL     1      42.841 -17.114   4.477  1.00  0.00     0.300 C 
HETATM   29  O   UNL     1      42.068 -17.090   5.418  1.00  0.00    -0.259 OA
BRANCH  28  30
HETATM   30  C   UNL     1      43.297 -18.353   3.837  1.00  0.00     0.061 A 
HETATM   31  C   UNL     1      44.270 -19.157   4.441  1.00  0.00     0.051 A 
HETATM   32 CL   UNL     1      44.991 -18.753   5.958  1.00  0.00    -0.083 Cl
HETATM   33  C   UNL     1      44.700 -20.322   3.801  1.00  0.00     0.048 A 
HETATM   34  C   UNL     1      44.162 -20.668   2.562  1.00  0.00     0.035 A 
HETATM   35 CL   UNL     1      44.694 -22.102   1.777  1.00  0.00    -0.084 Cl
HETATM   36  C   UNL     1      43.200 -19.861   1.953  1.00  0.00     0.025 A 
HETATM   37  C   UNL     1      42.767 -18.695   2.587  1.00  0.00     0.021 A 
ENDBRANCH  28  30
ENDBRANCH  27  28
ENDBRANCH   4  27
TORSDOF 5
ENDMDL
MODEL 7
REMARK VINA RESULT:      -8.0      4.585      7.065
REMARK  5 active torsions:
REMARK  status: ('A' for Active; 'I' for Inactive)
REMARK    1  A    between atoms: C_10  and  C_11 
REMARK    2  A    between atoms: C_13  and  O_14 
REMARK    3  A    between atoms: C_16  and  O_17 
REMARK    4  A    between atoms: O_17  and  C_18 
REMARK    5  A    between atoms: C_18  and  C_19 
ROOT
HETATM    1  C   UNL     1      40.890 -13.055   5.415  1.00  0.00    -0.013 A 
HETATM    2  C   UNL     1      42.206 -13.176   5.905  1.00  0.00     0.050 A 
HETATM    3  C   UNL     1      42.990 -14.295   5.608  1.00  0.00     0.102 A 
HETATM    4  C   UNL     1      42.461 -15.286   4.771  1.00  0.00     0.112 A 
HETATM    5  C   UNL     1      41.149 -15.210   4.304  1.00  0.00     0.041 A 
HETATM    6  C   UNL     1      40.374 -14.093   4.618  1.00  0.00     0.014 A 
ENDROOT
BRANCH   1   7
HETATM    7  C   UNL     1      40.044 -11.813   5.648  1.00  0.00     0.219 C 
HETATM    8  N   UNL     1      39.203 -11.913   6.825  1.00  0.00    -0.358 N 
HETATM    9  C   UNL     1      39.596 -11.343   7.982  1.00  0.00     0.088 A 
HETATM   10  H   UNL     1      38.555 -12.696   6.826  1.00  0.00     0.162 HD
HETATM   11  C   UNL     1      40.629 -10.441   8.064  1.00  0.00     0.073 A 
HETATM   12  S   UNL     1      38.894 -11.672   9.495  1.00  0.00    -0.074 SA
HETATM   13  C   UNL     1      40.851 -10.005   9.410  1.00  0.00    -0.023 A 
HETATM   14  C   UNL     1      41.327 -10.055   6.851  1.00  0.00     0.256 C 
HETATM   15  C   UNL     1      39.969 -10.614  10.283  1.00  0.00     0.018 A 
HETATM   16  C   UNL     1      41.894  -9.038   9.888  1.00  0.00     0.068 C 
HETATM   17  C   UNL     1      39.918 -10.373  11.752  1.00  0.00     0.281 C 
HETATM   18  N   UNL     1      41.204  -9.703  12.222  1.00  0.00    -0.070 N 
HETATM   19  C   UNL     1      41.136  -9.308  13.662  1.00  0.00     0.270 C 
HETATM   20  H   UNL     1      41.943 -10.413  12.130  1.00  0.00     0.279 HD
HETATM   21  C   UNL     1      41.596  -8.539  11.314  1.00  0.00     0.239 C 
HETATM   22  N   UNL     1      40.868 -10.631   5.701  1.00  0.00    -0.332 N 
HETATM   23  O   UNL     1      42.244  -9.243   6.848  1.00  0.00    -0.267 OA
HETATM   24  H   UNL     1      41.414 -10.407   4.882  1.00  0.00     0.165 HD
ENDBRANCH   1   7
BRANCH   3  25
HETATM   25  O   UNL     1      44.271 -14.492   6.047  1.00  0.00    -0.353 OA
HETATM   26  C   UNL     1      44.665 -13.795   7.221  1.00  0.00     0.210 C 
ENDBRANCH   3  25
BRANCH   4  27
HETATM   27  O   UNL     1      43.286 -16.383   4.467  1.00  0.00    -0.272 OA
BRANCH  27  28
HETATM   28  C   UNL     1      42.943 -17.577   5.067  1.00  0.00     0.300 C 
HETATM   29  O   UNL     1      42.403 -17.778   6.140  1.00  0.00    -0.259 OA
BRANCH  28  30
HETATM   30  C   UNL     1      43.391 -18.651   4.173  1.00  0.00     0.061 A 
HETATM   31  C   UNL     1      42.846 -18.791   2.891  1.00  0.00     0.051 A 
HETATM   32 CL   UNL     1      41.629 -17.729   2.283  1.00  0.00    -0.083 Cl
HETATM   33  C   UNL     1      43.277 -19.834   2.068  1.00  0.00     0.048 A 
HETATM   34  C   UNL     1      44.239 -20.730   2.534  1.00  0.00     0.035 A 
HETATM   35 CL   UNL     1      44.767 -22.013   1.518  1.00  0.00    -0.084 Cl
HETATM   36  C   UNL     1      44.774 -20.598   3.816  1.00  0.00     0.025 A 
HETATM   37  C   UNL     1      44.347 -19.557   4.644  1.00  0.00     0.021 A 
ENDBRANCH  28  30
ENDBRANCH  27  28
ENDBRANCH   4  27
TORSDOF 5
ENDMDL
MODEL 8
REMARK VINA RESULT:      -8.0      4.489      7.232
REMARK  5 active torsions:
REMARK  status: ('A' for Active; 'I' for Inactive)
REMARK    1  A    between atoms: C_10  and  C_11 
REMARK    2  A    between atoms: C_13  and  O_14 
REMARK    3  A    between atoms: C_16  and  O_17 
REMARK    4  A    between atoms: O_17  and  C_18 
REMARK    5  A    between atoms: C_18  and  C_19 
ROOT
HETATM    1  C   UNL     1      40.700 -12.007   4.823  1.00  0.00    -0.013 A 
HETATM    2  C   UNL     1      41.329 -11.883   3.567  1.00  0.00     0.050 A 
HETATM    3  C   UNL     1      42.033 -12.949   3.000  1.00  0.00     0.102 A 
HETATM    4  C   UNL     1      42.069 -14.172   3.682  1.00  0.00     0.112 A 
HETATM    5  C   UNL     1      41.489 -14.312   4.942  1.00  0.00     0.041 A 
HETATM    6  C   UNL     1      40.800 -13.236   5.502  1.00  0.00     0.014 A 
ENDROOT
BRANCH   1   7
HETATM    7  C   UNL     1      39.856 -10.897   5.427  1.00  0.00     0.219 C 
HETATM    8  N   UNL     1      39.123 -11.320   6.604  1.00  0.00    -0.358 N 
HETATM    9  C   UNL     1      39.605 -11.041   7.832  1.00  0.00     0.088 A 
HETATM   10  H   UNL     1      38.492 -12.103   6.460  1.00  0.00     0.162 HD
HETATM   11  C   UNL     1      40.625 -10.147   8.055  1.00  0.00     0.073 A 
HETATM   12  S   UNL     1      39.043 -11.763   9.266  1.00  0.00    -0.074 SA
HETATM   13  C   UNL     1      40.955 -10.051   9.445  1.00  0.00    -0.023 A 
HETATM   14  C   UNL     1      41.207  -9.445   6.927  1.00  0.00     0.256 C 
HETATM   15  C   UNL     1      40.164 -10.893  10.205  1.00  0.00     0.018 A 
HETATM   16  C   UNL     1      42.018  -9.194  10.067  1.00  0.00     0.068 C 
HETATM   17  C   UNL     1      40.237 -11.027  11.687  1.00  0.00     0.281 C 
HETATM   18  N   UNL     1      41.547 -10.445  12.206  1.00  0.00    -0.070 N 
HETATM   19  C   UNL     1      41.597 -10.424  13.700  1.00  0.00     0.270 C 
HETATM   20  H   UNL     1      42.287 -11.080  11.880  1.00  0.00     0.279 HD
HETATM   21  C   UNL     1      41.837  -9.077  11.591  1.00  0.00     0.239 C 
HETATM   22  N   UNL     1      40.660  -9.734   5.710  1.00  0.00    -0.332 N 
HETATM   23  O   UNL     1      42.106  -8.622   7.055  1.00  0.00    -0.267 OA
HETATM   24  H   UNL     1      41.128  -9.292   4.932  1.00  0.00     0.165 HD
ENDBRANCH   1   7
BRANCH   3  25
HETATM   25  O   UNL     1      42.674 -12.909   1.791  1.00  0.00    -0.353 OA
HETATM   26  C   UNL     1      41.991 -12.273   0.719  1.00  0.00     0.210 C 
ENDBRANCH   3  25
BRANCH   4  27
HETATM   27  O   UNL     1      42.759 -15.233   3.069  1.00  0.00    -0.272 OA
BRANCH  27  28
HETATM   28  C   UNL     1      42.013 -16.363   2.808  1.00  0.00     0.300 C 
HETATM   29  O   UNL     1      40.907 -16.463   2.307  1.00  0.00    -0.259 OA
BRANCH  28  30
HETATM   30  C   UNL     1      42.789 -17.511   3.292  1.00  0.00     0.061 A 
HETATM   31  C   UNL     1      43.600 -18.247   2.422  1.00  0.00     0.051 A 
HETATM   32 CL   UNL     1      43.743 -17.863   0.744  1.00  0.00    -0.083 Cl
HETATM   33  C   UNL     1      44.312 -19.347   2.905  1.00  0.00     0.048 A 
HETATM   34  C   UNL     1      44.202 -19.705   4.249  1.00  0.00     0.035 A 
HETATM   35 CL   UNL     1      45.080 -21.061   4.841  1.00  0.00    -0.084 Cl
HETATM   36  C   UNL     1      43.383 -18.979   5.115  1.00  0.00     0.025 A 
HETATM   37  C   UNL     1      42.668 -17.879   4.637  1.00  0.00     0.021 A 
ENDBRANCH  28  30
ENDBRANCH  27  28
ENDBRANCH   4  27
TORSDOF 5
ENDMDL
MODEL 9
REMARK VINA RESULT:      -7.8      3.001      3.858
REMARK  5 active torsions:
REMARK  status: ('A' for Active; 'I' for Inactive)
REMARK    1  A    between atoms: C_10  and  C_11 
REMARK    2  A    between atoms: C_13  and  O_14 
REMARK    3  A    between atoms: C_16  and  O_17 
REMARK    4  A    between atoms: O_17  and  C_18 
REMARK    5  A    between atoms: C_18  and  C_19 
ROOT
HETATM    1  C   UNL     1      41.292 -15.625  -0.181  1.00  0.00    -0.013 A 
HETATM    2  C   UNL     1      41.154 -14.577   0.753  1.00  0.00     0.050 A 
HETATM    3  C   UNL     1      41.222 -14.819   2.128  1.00  0.00     0.102 A 
HETATM    4  C   UNL     1      41.477 -16.122   2.573  1.00  0.00     0.112 A 
HETATM    5  C   UNL     1      41.579 -17.182   1.673  1.00  0.00     0.041 A 
HETATM    6  C   UNL     1      41.498 -16.930   0.304  1.00  0.00     0.014 A 
ENDROOT
BRANCH   1   7
HETATM    7  C   UNL     1      41.310 -15.383  -1.681  1.00  0.00     0.219 C 
HETATM    8  N   UNL     1      39.995 -15.478  -2.285  1.00  0.00    -0.358 N 
HETATM    9  C   UNL     1      39.291 -14.357  -2.542  1.00  0.00     0.088 A 
HETATM   10  H   UNL     1      39.522 -16.368  -2.151  1.00  0.00     0.162 HD
HETATM   11  C   UNL     1      39.842 -13.098  -2.510  1.00  0.00     0.073 A 
HETATM   12  S   UNL     1      37.632 -14.335  -2.917  1.00  0.00    -0.074 SA
HETATM   13  C   UNL     1      38.873 -12.084  -2.803  1.00  0.00    -0.023 A 
HETATM   14  C   UNL     1      41.254 -12.954  -2.209  1.00  0.00     0.256 C 
HETATM   15  C   UNL     1      37.627 -12.637  -3.034  1.00  0.00     0.018 A 
HETATM   16  C   UNL     1      39.099 -10.602  -2.848  1.00  0.00     0.068 C 
HETATM   17  C   UNL     1      36.401 -11.865  -3.380  1.00  0.00     0.281 C 
HETATM   18  N   UNL     1      36.593 -10.391  -3.044  1.00  0.00    -0.070 N 
HETATM   19  C   UNL     1      35.445  -9.555  -3.511  1.00  0.00     0.270 C 
HETATM   20  H   UNL     1      36.618 -10.337  -2.016  1.00  0.00     0.279 HD
HETATM   21  C   UNL     1      37.939  -9.870  -3.545  1.00  0.00     0.239 C 
HETATM   22  N   UNL     1      41.930 -14.120  -1.993  1.00  0.00    -0.332 N 
HETATM   23  O   UNL     1      41.814 -11.864  -2.182  1.00  0.00    -0.267 OA
HETATM   24  H   UNL     1      42.892 -13.992  -1.712  1.00  0.00     0.165 HD
ENDBRANCH   1   7
BRANCH   3  25
HETATM   25  O   UNL     1      41.093 -13.861   3.098  1.00  0.00    -0.353 OA
HETATM   26  C   UNL     1      39.772 -13.490   3.467  1.00  0.00     0.210 C 
ENDBRANCH   3  25
BRANCH   4  27
HETATM   27  O   UNL     1      41.570 -16.325   3.960  1.00  0.00    -0.272 OA
BRANCH  27  28
HETATM   28  C   UNL     1      42.836 -16.230   4.498  1.00  0.00     0.300 C 
HETATM   29  O   UNL     1      43.521 -15.243   4.699  1.00  0.00    -0.259 OA
BRANCH  28  30
HETATM   30  C   UNL     1      43.288 -17.598   4.778  1.00  0.00     0.061 A 
HETATM   31  C   UNL     1      43.100 -18.171   6.040  1.00  0.00     0.051 A 
HETATM   32 CL   UNL     1      42.336 -17.323   7.336  1.00  0.00    -0.083 Cl
HETATM   33  C   UNL     1      43.557 -19.468   6.285  1.00  0.00     0.048 A 
HETATM   34  C   UNL     1      44.203 -20.176   5.272  1.00  0.00     0.035 A 
HETATM   35 CL   UNL     1      44.765 -21.772   5.577  1.00  0.00    -0.084 Cl
HETATM   36  C   UNL     1      44.402 -19.600   4.016  1.00  0.00     0.025 A 
HETATM   37  C   UNL     1      43.948 -18.304   3.766  1.00  0.00     0.021 A 
ENDBRANCH  28  30
ENDBRANCH  27  28
ENDBRANCH   4  27
TORSDOF 5
ENDMDL
MODEL 10
REMARK VINA RESULT:      -7.7      2.724      3.893
REMARK  5 active torsions:
REMARK  status: ('A' for Active; 'I' for Inactive)
REMARK    1  A    between atoms: C_10  and  C_11 
REMARK    2  A    between atoms: C_13  and  O_14 
REMARK    3  A    between atoms: C_16  and  O_17 
REMARK    4  A    between atoms: O_17  and  C_18 
REMARK    5  A    between atoms: C_18  and  C_19 
ROOT
HETATM    1  C   UNL     1      41.869 -12.579   3.171  1.00  0.00    -0.013 A 
HETATM    2  C   UNL     1      42.217 -12.838   4.512  1.00  0.00     0.050 A 
HETATM    3  C   UNL     1      42.709 -14.086   4.905  1.00  0.00     0.102 A 
HETATM    4  C   UNL     1      42.897 -15.074   3.930  1.00  0.00     0.112 A 
HETATM    5  C   UNL     1      42.525 -14.858   2.604  1.00  0.00     0.041 A 
HETATM    6  C   UNL     1      42.025 -13.611   2.228  1.00  0.00     0.014 A 
ENDROOT
BRANCH   1   7
HETATM    7  C   UNL     1      41.414 -11.208   2.697  1.00  0.00     0.219 C 
HETATM    8  N   UNL     1      41.693 -10.974   1.293  1.00  0.00    -0.358 N 
HETATM    9  C   UNL     1      40.718 -11.144   0.377  1.00  0.00     0.088 A 
HETATM   10  H   UNL     1      42.671 -11.049   1.030  1.00  0.00     0.162 HD
HETATM   11  C   UNL     1      39.390 -11.277   0.706  1.00  0.00     0.073 A 
HETATM   12  S   UNL     1      40.989 -11.242  -1.299  1.00  0.00    -0.074 SA
HETATM   13  C   UNL     1      38.570 -11.464  -0.453  1.00  0.00    -0.023 A 
HETATM   14  C   UNL     1      39.000 -11.210   2.102  1.00  0.00     0.256 C 
HETATM   15  C   UNL     1      39.331 -11.471  -1.607  1.00  0.00     0.018 A 
HETATM   16  C   UNL     1      37.083 -11.657  -0.488  1.00  0.00     0.068 C 
HETATM   17  C   UNL     1      38.791 -11.629  -2.986  1.00  0.00     0.281 C 
HETATM   18  N   UNL     1      37.374 -12.189  -2.936  1.00  0.00    -0.070 N 
HETATM   19  C   UNL     1      36.738 -12.224  -4.289  1.00  0.00     0.270 C 
HETATM   20  H   UNL     1      37.465 -13.161  -2.612  1.00  0.00     0.279 HD
HETATM   21  C   UNL     1      36.516 -11.458  -1.905  1.00  0.00     0.239 C 
HETATM   22  N   UNL     1      40.017 -11.000   2.987  1.00  0.00    -0.332 N 
HETATM   23  O   UNL     1      37.833 -11.303   2.465  1.00  0.00    -0.267 OA
HETATM   24  H   UNL     1      39.733 -11.031   3.956  1.00  0.00     0.165 HD
ENDBRANCH   1   7
BRANCH   3  25
HETATM   25  O   UNL     1      43.064 -14.421   6.184  1.00  0.00    -0.353 OA
HETATM   26  C   UNL     1      44.325 -13.957   6.646  1.00  0.00     0.210 C 
ENDBRANCH   3  25
BRANCH   4  27
HETATM   27  O   UNL     1      43.422 -16.307   4.353  1.00  0.00    -0.272 OA
BRANCH  27  28
HETATM   28  C   UNL     1      42.515 -17.340   4.466  1.00  0.00     0.300 C 
HETATM   29  O   UNL     1      41.436 -17.366   5.032  1.00  0.00    -0.259 OA
BRANCH  28  30
HETATM   30  C   UNL     1      43.100 -18.502   3.789  1.00  0.00     0.061 A 
HETATM   31  C   UNL     1      42.729 -18.833   2.481  1.00  0.00     0.051 A 
HETATM   32 CL   UNL     1      41.574 -17.911   1.587  1.00  0.00    -0.083 Cl
HETATM   33  C   UNL     1      43.287 -19.956   1.866  1.00  0.00     0.048 A 
HETATM   34  C   UNL     1      44.204 -20.742   2.565  1.00  0.00     0.035 A 
HETATM   35 CL   UNL     1      44.888 -22.124   1.805  1.00  0.00    -0.084 Cl
HETATM   36  C   UNL     1      44.565 -20.420   3.874  1.00  0.00     0.025 A 
HETATM   37  C   UNL     1      44.010 -19.299   4.494  1.00  0.00     0.021 A 
ENDBRANCH  28  30
ENDBRANCH  27  28
ENDBRANCH   4  27
TORSDOF 5
ENDMDL
