MODEL 1
REMARK VINA RESULT:      -9.2      0.000      0.000
REMARK  9 active torsions:
REMARK  status: ('A' for Active; 'I' for Inactive)
REMARK       I    between atoms: C_2  and  N_3 
REMARK    1  A    between atoms: N_3  and  C_4 
REMARK    2  A    between atoms: C_4  and  C_5 
REMARK    3  A    between atoms: C_5  and  N_6 
REMARK       I    between atoms: N_6  and  C_7 
REMARK    4  A    between atoms: C_7  and  C_8 
REMARK    5  A    between atoms: C_8  and  C_9 
REMARK    6  A    between atoms: C_13  and  C_14 
REMARK    7  A    between atoms: C_14  and  O_15 
REMARK    8  A    between atoms: C_17  and  O_18 
REMARK    9  A    between atoms: C_25  and  C_26 
ROOT
HETATM    1  C   UNL     1      41.733 -13.819   3.271  1.00  0.00     0.056 C 
HETATM    2  C   UNL     1      40.518 -12.941   2.724  1.00  0.00    -0.030 C 
HETATM    3  C   UNL     1      39.281 -13.118   3.666  1.00  0.00     0.016 C 
HETATM    4  C   UNL     1      40.046 -13.363   1.266  1.00  0.00     0.012 C 
HETATM    5  C   UNL     1      40.856 -12.789   0.027  1.00  0.00     0.008 C 
HETATM    6  C   UNL     1      39.833 -12.648  -1.146  1.00  0.00     0.020 C 
HETATM    7  C   UNL     1      41.396 -11.351   0.317  1.00  0.00     0.128 C 
HETATM    8  C   UNL     1      40.666 -10.675   1.473  1.00  0.00     0.033 C 
HETATM    9  C   UNL     1      40.907 -11.430   2.778  1.00  0.00     0.013 C 
HETATM   10  C   UNL     1      39.704 -14.874   1.173  1.00  0.00     0.054 C 
HETATM   11  C   UNL     1      40.699 -15.702   1.897  1.00  0.00     0.010 A 
HETATM   12  C   UNL     1      41.582 -15.270   2.861  1.00  0.00     0.054 A 
HETATM   13  N   UNL     1      42.400 -16.266   3.379  1.00  0.00    -0.244 NA
HETATM   14  C   UNL     1      42.202 -17.405   2.731  1.00  0.00     0.108 A 
HETATM   15  S   UNL     1      40.886 -17.365   1.612  1.00  0.00    -0.072 SA
ENDROOT
BRANCH   1  16
HETATM   16  C   UNL     1      41.928 -13.649   4.790  1.00  0.00     0.114 C 
BRANCH  16  17
HETATM   17  C   UNL     1      43.345 -13.881   5.279  1.00  0.00     0.218 C 
HETATM   18  N   UNL     1      43.420 -14.282   6.585  1.00  0.00    -0.359 N 
HETATM   19  H   UNL     1      42.615 -14.803   6.939  1.00  0.00     0.162 HD
HETATM   20  O   UNL     1      44.326 -13.638   4.581  1.00  0.00    -0.274 OA
BRANCH  18  21
HETATM   21  C   UNL     1      44.663 -14.342   7.322  1.00  0.00     0.142 C 
BRANCH  21  22
HETATM   22  C   UNL     1      45.170 -12.980   7.796  1.00  0.00     0.142 C 
BRANCH  22  23
HETATM   23  N   UNL     1      44.476 -12.529   8.994  1.00  0.00    -0.360 N 
HETATM   24  C   UNL     1      44.854 -11.389   9.662  1.00  0.00     0.213 C 
HETATM   25  C   UNL     1      44.099 -11.131  10.938  1.00  0.00     0.117 C 
HETATM   26  O   UNL     1      45.743 -10.636   9.275  1.00  0.00    -0.274 OA
HETATM   27  H   UNL     1      43.809 -13.161   9.417  1.00  0.00     0.162 HD
ENDBRANCH  22  23
ENDBRANCH  21  22
ENDBRANCH  18  21
ENDBRANCH  16  17
ENDBRANCH   1  16
BRANCH   5  28
HETATM   28  C   UNL     1      41.974 -13.714  -0.521  1.00  0.00     0.176 C 
BRANCH  28  29
HETATM   29  O   UNL     1      42.479 -13.297  -1.774  1.00  0.00    -0.400 OA
HETATM   30  H   UNL     1      43.103 -12.566  -1.569  1.00  0.00     0.209 HD
ENDBRANCH  28  29
ENDBRANCH   5  28
BRANCH  14  31
HETATM   31  C   UNL     1      42.991 -18.635   2.927  1.00  0.00    -0.000 A 
HETATM   32  C   UNL     1      43.706 -18.819   4.120  1.00  0.00     0.014 A 
HETATM   33  C   UNL     1      44.499 -19.952   4.319  1.00  0.00     0.001 A 
HETATM   34  C   UNL     1      44.588 -20.926   3.329  1.00  0.00     0.000 A 
HETATM   35  C   UNL     1      43.888 -20.766   2.138  1.00  0.00     0.001 A 
HETATM   36  C   UNL     1      43.100 -19.627   1.937  1.00  0.00     0.014 A 
ENDBRANCH  14  31
BRANCH   7  37
HETATM   37  O   UNL     1      42.797 -11.369   0.616  1.00  0.00    -0.395 OA
HETATM   38  H   UNL     1      43.122 -12.271   0.436  1.00  0.00     0.210 HD
ENDBRANCH   7  37
TORSDOF 9
ENDMDL
MODEL 2
REMARK VINA RESULT:      -8.2      2.346      2.982
REMARK  9 active torsions:
REMARK  status: ('A' for Active; 'I' for Inactive)
REMARK       I    between atoms: C_2  and  N_3 
REMARK    1  A    between atoms: N_3  and  C_4 
REMARK    2  A    between atoms: C_4  and  C_5 
REMARK    3  A    between atoms: C_5  and  N_6 
REMARK       I    between atoms: N_6  and  C_7 
REMARK    4  A    between atoms: C_7  and  C_8 
REMARK    5  A    between atoms: C_8  and  C_9 
REMARK    6  A    between atoms: C_13  and  C_14 
REMARK    7  A    between atoms: C_14  and  O_15 
REMARK    8  A    between atoms: C_17  and  O_18 
REMARK    9  A    between atoms: C_25  and  C_26 
ROOT
HETATM    1  C   UNL     1      40.057 -13.313   2.268  1.00  0.00     0.056 C 
HETATM    2  C   UNL     1      39.200 -12.581   1.138  1.00  0.00    -0.030 C 
HETATM    3  C   UNL     1      37.773 -13.222   1.069  1.00  0.00     0.016 C 
HETATM    4  C   UNL     1      39.831 -12.716  -0.314  1.00  0.00     0.012 C 
HETATM    5  C   UNL     1      40.990 -11.709  -0.718  1.00  0.00     0.008 C 
HETATM    6  C   UNL     1      40.871 -11.487  -2.260  1.00  0.00     0.020 C 
HETATM    7  C   UNL     1      40.785 -10.310  -0.053  1.00  0.00     0.128 C 
HETATM    8  C   UNL     1      39.352 -10.094   0.424  1.00  0.00     0.033 C 
HETATM    9  C   UNL     1      38.998 -11.084   1.530  1.00  0.00     0.013 C 
HETATM   10  C   UNL     1      40.092 -14.196  -0.707  1.00  0.00     0.054 C 
HETATM   11  C   UNL     1      40.665 -14.965   0.424  1.00  0.00     0.010 A 
HETATM   12  C   UNL     1      40.628 -14.619   1.756  1.00  0.00     0.054 A 
HETATM   13  N   UNL     1      41.242 -15.533   2.604  1.00  0.00    -0.244 NA
HETATM   14  C   UNL     1      41.822 -16.493   1.900  1.00  0.00     0.108 A 
HETATM   15  S   UNL     1      41.482 -16.438   0.207  1.00  0.00    -0.072 SA
ENDROOT
BRANCH   1  16
HETATM   16  C   UNL     1      39.259 -13.486   3.574  1.00  0.00     0.114 C 
BRANCH  16  17
HETATM   17  C   UNL     1      40.099 -13.481   4.838  1.00  0.00     0.218 C 
HETATM   18  N   UNL     1      41.297 -12.834   4.702  1.00  0.00    -0.359 N 
HETATM   19  H   UNL     1      41.321 -12.080   4.012  1.00  0.00     0.162 HD
HETATM   20  O   UNL     1      39.760 -14.085   5.851  1.00  0.00    -0.274 OA
BRANCH  18  21
HETATM   21  C   UNL     1      42.346 -12.898   5.695  1.00  0.00     0.142 C 
BRANCH  21  22
HETATM   22  C   UNL     1      43.206 -14.160   5.608  1.00  0.00     0.142 C 
BRANCH  22  23
HETATM   23  N   UNL     1      42.728 -15.205   6.502  1.00  0.00    -0.360 N 
HETATM   24  C   UNL     1      43.566 -16.183   6.984  1.00  0.00     0.213 C 
HETATM   25  C   UNL     1      42.884 -17.243   7.806  1.00  0.00     0.117 C 
HETATM   26  O   UNL     1      44.772 -16.216   6.761  1.00  0.00    -0.274 OA
HETATM   27  H   UNL     1      41.729 -15.290   6.634  1.00  0.00     0.162 HD
ENDBRANCH  22  23
ENDBRANCH  21  22
ENDBRANCH  18  21
ENDBRANCH  16  17
ENDBRANCH   1  16
BRANCH   5  28
HETATM   28  C   UNL     1      42.433 -12.235  -0.496  1.00  0.00     0.176 C 
BRANCH  28  29
HETATM   29  O   UNL     1      43.429 -11.302  -0.867  1.00  0.00    -0.400 OA
HETATM   30  H   UNL     1      44.264 -11.819  -0.901  1.00  0.00     0.209 HD
ENDBRANCH  28  29
ENDBRANCH   5  28
BRANCH  14  31
HETATM   31  C   UNL     1      42.674 -17.556   2.465  1.00  0.00    -0.000 A 
HETATM   32  C   UNL     1      43.414 -18.384   1.607  1.00  0.00     0.014 A 
HETATM   33  C   UNL     1      44.196 -19.428   2.107  1.00  0.00     0.001 A 
HETATM   34  C   UNL     1      44.256 -19.662   3.478  1.00  0.00     0.000 A 
HETATM   35  C   UNL     1      43.531 -18.854   4.349  1.00  0.00     0.001 A 
HETATM   36  C   UNL     1      42.744 -17.813   3.845  1.00  0.00     0.014 A 
ENDBRANCH  14  31
BRANCH   7  37
HETATM   37  O   UNL     1      41.665 -10.127   1.063  1.00  0.00    -0.395 OA
HETATM   38  H   UNL     1      42.530  -9.848   0.710  1.00  0.00     0.210 HD
ENDBRANCH   7  37
TORSDOF 9
ENDMDL
MODEL 3
REMARK VINA RESULT:      -8.2      4.404      8.052
REMARK  9 active torsions:
REMARK  status: ('A' for Active; 'I' for Inactive)
REMARK       I    between atoms: C_2  and  N_3 
REMARK    1  A    between atoms: N_3  and  C_4 
REMARK    2  A    between atoms: C_4  and  C_5 
REMARK    3  A    between atoms: C_5  and  N_6 
REMARK       I    between atoms: N_6  and  C_7 
REMARK    4  A    between atoms: C_7  and  C_8 
REMARK    5  A    between atoms: C_8  and  C_9 
REMARK    6  A    between atoms: C_13  and  C_14 
REMARK    7  A    between atoms: C_14  and  O_15 
REMARK    8  A    between atoms: C_17  and  O_18 
REMARK    9  A    between atoms: C_25  and  C_26 
ROOT
HETATM    1  C   UNL     1      41.030 -15.261  -0.445  1.00  0.00     0.056 C 
HETATM    2  C   UNL     1      40.836 -13.678  -0.366  1.00  0.00    -0.030 C 
HETATM    3  C   UNL     1      42.095 -12.967  -0.965  1.00  0.00     0.016 C 
HETATM    4  C   UNL     1      40.673 -13.140   1.121  1.00  0.00     0.012 C 
HETATM    5  C   UNL     1      39.235 -13.224   1.789  1.00  0.00     0.008 C 
HETATM    6  C   UNL     1      39.131 -12.018   2.776  1.00  0.00     0.020 C 
HETATM    7  C   UNL     1      38.103 -13.027   0.730  1.00  0.00     0.128 C 
HETATM    8  C   UNL     1      38.609 -12.365  -0.549  1.00  0.00     0.033 C 
HETATM    9  C   UNL     1      39.623 -13.261  -1.255  1.00  0.00     0.013 C 
HETATM   10  C   UNL     1      41.842 -13.587   2.039  1.00  0.00     0.054 C 
HETATM   11  C   UNL     1      42.209 -15.004   1.802  1.00  0.00     0.010 A 
HETATM   12  C   UNL     1      41.898 -15.759   0.692  1.00  0.00     0.054 A 
HETATM   13  N   UNL     1      42.377 -17.062   0.731  1.00  0.00    -0.244 NA
HETATM   14  C   UNL     1      42.943 -17.307   1.904  1.00  0.00     0.108 A 
HETATM   15  S   UNL     1      43.096 -15.920   2.923  1.00  0.00    -0.072 SA
ENDROOT
BRANCH   1  16
HETATM   16  C   UNL     1      41.547 -15.708  -1.826  1.00  0.00     0.114 C 
BRANCH  16  17
HETATM   17  C   UNL     1      40.649 -15.336  -2.991  1.00  0.00     0.218 C 
HETATM   18  N   UNL     1      39.407 -15.909  -2.937  1.00  0.00    -0.359 N 
HETATM   19  H   UNL     1      39.051 -16.115  -2.001  1.00  0.00     0.162 HD
HETATM   20  O   UNL     1      41.048 -14.657  -3.933  1.00  0.00    -0.274 OA
BRANCH  18  21
HETATM   21  C   UNL     1      38.476 -15.879  -4.042  1.00  0.00     0.142 C 
BRANCH  21  22
HETATM   22  C   UNL     1      37.144 -15.203  -3.712  1.00  0.00     0.142 C 
BRANCH  22  23
HETATM   23  N   UNL     1      36.920 -14.019  -4.530  1.00  0.00    -0.360 N 
HETATM   24  C   UNL     1      35.785 -13.873  -5.293  1.00  0.00     0.213 C 
HETATM   25  C   UNL     1      35.767 -12.641  -6.158  1.00  0.00     0.117 C 
HETATM   26  O   UNL     1      34.857 -14.676  -5.295  1.00  0.00    -0.274 OA
HETATM   27  H   UNL     1      37.692 -13.377  -4.651  1.00  0.00     0.162 HD
ENDBRANCH  22  23
ENDBRANCH  21  22
ENDBRANCH  18  21
ENDBRANCH  16  17
ENDBRANCH   1  16
BRANCH   5  28
HETATM   28  C   UNL     1      38.981 -14.482   2.660  1.00  0.00     0.176 C 
BRANCH  28  29
HETATM   29  O   UNL     1      38.775 -15.656   1.899  1.00  0.00    -0.400 OA
HETATM   30  H   UNL     1      38.747 -15.353   0.964  1.00  0.00     0.209 HD
ENDBRANCH  28  29
ENDBRANCH   5  28
BRANCH  14  31
HETATM   31  C   UNL     1      43.440 -18.625   2.342  1.00  0.00    -0.000 A 
HETATM   32  C   UNL     1      44.088 -18.747   3.580  1.00  0.00     0.014 A 
HETATM   33  C   UNL     1      44.611 -19.972   4.004  1.00  0.00     0.001 A 
HETATM   34  C   UNL     1      44.489 -21.100   3.199  1.00  0.00     0.000 A 
HETATM   35  C   UNL     1      43.849 -21.004   1.967  1.00  0.00     0.001 A 
HETATM   36  C   UNL     1      43.334 -19.775   1.541  1.00  0.00     0.014 A 
ENDBRANCH  14  31
BRANCH   7  37
HETATM   37  O   UNL     1      37.490 -14.274   0.380  1.00  0.00    -0.395 OA
HETATM   38  H   UNL     1      37.285 -14.741   1.212  1.00  0.00     0.210 HD
ENDBRANCH   7  37
TORSDOF 9
ENDMDL
MODEL 4
REMARK VINA RESULT:      -7.6      4.494      7.180
REMARK  9 active torsions:
REMARK  status: ('A' for Active; 'I' for Inactive)
REMARK       I    between atoms: C_2  and  N_3 
REMARK    1  A    between atoms: N_3  and  C_4 
REMARK    2  A    between atoms: C_4  and  C_5 
REMARK    3  A    between atoms: C_5  and  N_6 
REMARK       I    between atoms: N_6  and  C_7 
REMARK    4  A    between atoms: C_7  and  C_8 
REMARK    5  A    between atoms: C_8  and  C_9 
REMARK    6  A    between atoms: C_13  and  C_14 
REMARK    7  A    between atoms: C_14  and  O_15 
REMARK    8  A    between atoms: C_17  and  O_18 
REMARK    9  A    between atoms: C_25  and  C_26 
ROOT
HETATM    1  C   UNL     1      38.846 -13.067   0.008  1.00  0.00     0.056 C 
HETATM    2  C   UNL     1      39.010 -13.027  -1.580  1.00  0.00    -0.030 C 
HETATM    3  C   UNL     1      38.096 -14.122  -2.226  1.00  0.00     0.016 C 
HETATM    4  C   UNL     1      40.493 -13.327  -2.065  1.00  0.00     0.012 C 
HETATM    5  C   UNL     1      41.536 -12.130  -2.052  1.00  0.00     0.008 C 
HETATM    6  C   UNL     1      42.538 -12.400  -3.221  1.00  0.00     0.020 C 
HETATM    7  C   UNL     1      40.841 -10.767  -2.372  1.00  0.00     0.128 C 
HETATM    8  C   UNL     1      39.487 -10.947  -3.051  1.00  0.00     0.033 C 
HETATM    9  C   UNL     1      38.506 -11.651  -2.117  1.00  0.00     0.013 C 
HETATM   10  C   UNL     1      41.037 -14.666  -1.499  1.00  0.00     0.054 C 
HETATM   11  C   UNL     1      40.676 -14.840  -0.071  1.00  0.00     0.010 A 
HETATM   12  C   UNL     1      39.683 -14.175   0.612  1.00  0.00     0.054 A 
HETATM   13  N   UNL     1      39.559 -14.542   1.946  1.00  0.00    -0.244 NA
HETATM   14  C   UNL     1      40.520 -15.391   2.279  1.00  0.00     0.108 A 
HETATM   15  S   UNL     1      41.484 -15.929   0.951  1.00  0.00    -0.072 SA
ENDROOT
BRANCH   1  16
HETATM   16  C   UNL     1      37.367 -13.142   0.432  1.00  0.00     0.114 C 
BRANCH  16  17
HETATM   17  C   UNL     1      36.810 -11.861   1.023  1.00  0.00     0.218 C 
HETATM   18  N   UNL     1      35.513 -11.606   0.666  1.00  0.00    -0.359 N 
HETATM   19  H   UNL     1      34.936 -12.426   0.467  1.00  0.00     0.162 HD
HETATM   20  O   UNL     1      37.501 -11.089   1.681  1.00  0.00    -0.274 OA
BRANCH  18  21
HETATM   21  C   UNL     1      34.857 -10.344   0.923  1.00  0.00     0.142 C 
BRANCH  21  22
HETATM   22  C   UNL     1      33.483 -10.480   1.580  1.00  0.00     0.142 C 
BRANCH  22  23
HETATM   23  N   UNL     1      33.506 -10.068   2.977  1.00  0.00    -0.360 N 
HETATM   24  C   UNL     1      32.455 -10.329   3.824  1.00  0.00     0.213 C 
HETATM   25  C   UNL     1      32.599  -9.740   5.201  1.00  0.00     0.117 C 
HETATM   26  O   UNL     1      31.463 -10.976   3.500  1.00  0.00    -0.274 OA
HETATM   27  H   UNL     1      34.245  -9.443   3.271  1.00  0.00     0.162 HD
ENDBRANCH  22  23
ENDBRANCH  21  22
ENDBRANCH  18  21
ENDBRANCH  16  17
ENDBRANCH   1  16
BRANCH   5  28
HETATM   28  C   UNL     1      42.417 -12.030  -0.779  1.00  0.00     0.176 C 
BRANCH  28  29
HETATM   29  O   UNL     1      43.460 -11.083  -0.896  1.00  0.00    -0.400 OA
HETATM   30  H   UNL     1      43.177 -10.321  -0.344  1.00  0.00     0.209 HD
ENDBRANCH  28  29
ENDBRANCH   5  28
BRANCH  14  31
HETATM   31  C   UNL     1      40.773 -15.885   3.645  1.00  0.00    -0.000 A 
HETATM   32  C   UNL     1      41.280 -17.180   3.834  1.00  0.00     0.014 A 
HETATM   33  C   UNL     1      41.489 -17.694   5.116  1.00  0.00     0.001 A 
HETATM   34  C   UNL     1      41.198 -16.920   6.236  1.00  0.00     0.000 A 
HETATM   35  C   UNL     1      40.695 -15.633   6.074  1.00  0.00     0.001 A 
HETATM   36  C   UNL     1      40.480 -15.122   4.790  1.00  0.00     0.014 A 
ENDBRANCH  14  31
BRANCH   7  37
HETATM   37  O   UNL     1      40.652  -9.985  -1.187  1.00  0.00    -0.395 OA
HETATM   38  H   UNL     1      39.697  -9.985  -0.987  1.00  0.00     0.210 HD
ENDBRANCH   7  37
TORSDOF 9
ENDMDL
MODEL 5
REMARK VINA RESULT:      -7.6      1.538      1.983
REMARK  9 active torsions:
REMARK  status: ('A' for Active; 'I' for Inactive)
REMARK       I    between atoms: C_2  and  N_3 
REMARK    1  A    between atoms: N_3  and  C_4 
REMARK    2  A    between atoms: C_4  and  C_5 
REMARK    3  A    between atoms: C_5  and  N_6 
REMARK       I    between atoms: N_6  and  C_7 
REMARK    4  A    between atoms: C_7  and  C_8 
REMARK    5  A    between atoms: C_8  and  C_9 
REMARK    6  A    between atoms: C_13  and  C_14 
REMARK    7  A    between atoms: C_14  and  O_15 
REMARK    8  A    between atoms: C_17  and  O_18 
REMARK    9  A    between atoms: C_25  and  C_26 
ROOT
HETATM    1  C   UNL     1      40.888 -13.405   2.597  1.00  0.00     0.056 C 
HETATM    2  C   UNL     1      39.842 -12.644   1.664  1.00  0.00    -0.030 C 
HETATM    3  C   UNL     1      38.386 -13.051   2.072  1.00  0.00     0.016 C 
HETATM    4  C   UNL     1      39.999 -13.001   0.124  1.00  0.00     0.012 C 
HETATM    5  C   UNL     1      41.111 -12.230  -0.709  1.00  0.00     0.008 C 
HETATM    6  C   UNL     1      40.577 -12.123  -2.173  1.00  0.00     0.020 C 
HETATM    7  C   UNL     1      41.292 -10.765  -0.196  1.00  0.00     0.128 C 
HETATM    8  C   UNL     1      40.100 -10.283   0.626  1.00  0.00     0.033 C 
HETATM    9  C   UNL     1      39.958 -11.106   1.904  1.00  0.00     0.013 C 
HETATM   10  C   UNL     1      39.940 -14.530  -0.135  1.00  0.00     0.054 C 
HETATM   11  C   UNL     1      40.713 -15.284   0.882  1.00  0.00     0.010 A 
HETATM   12  C   UNL     1      41.111 -14.825   2.118  1.00  0.00     0.054 A 
HETATM   13  N   UNL     1      41.821 -15.750   2.873  1.00  0.00    -0.244 NA
HETATM   14  C   UNL     1      42.041 -16.847   2.164  1.00  0.00     0.108 A 
HETATM   15  S   UNL     1      41.233 -16.882   0.637  1.00  0.00    -0.072 SA
ENDROOT
BRANCH   1  16
HETATM   16  C   UNL     1      40.490 -13.337   4.084  1.00  0.00     0.114 C 
BRANCH  16  17
HETATM   17  C   UNL     1      41.450 -12.559   4.964  1.00  0.00     0.218 C 
HETATM   18  N   UNL     1      40.870 -11.507   5.619  1.00  0.00    -0.359 N 
HETATM   19  H   UNL     1      39.875 -11.607   5.830  1.00  0.00     0.162 HD
HETATM   20  O   UNL     1      42.652 -12.808   5.001  1.00  0.00    -0.274 OA
BRANCH  18  21
HETATM   21  C   UNL     1      41.631 -10.501   6.326  1.00  0.00     0.142 C 
BRANCH  21  22
HETATM   22  C   UNL     1      41.836 -10.807   7.810  1.00  0.00     0.142 C 
BRANCH  22  23
HETATM   23  N   UNL     1      42.906 -11.772   8.022  1.00  0.00    -0.360 N 
HETATM   24  C   UNL     1      43.971 -11.500   8.848  1.00  0.00     0.213 C 
HETATM   25  C   UNL     1      45.037 -12.562   8.866  1.00  0.00     0.117 C 
HETATM   26  O   UNL     1      44.072 -10.474   9.514  1.00  0.00    -0.274 OA
HETATM   27  H   UNL     1      42.932 -12.586   7.421  1.00  0.00     0.162 HD
ENDBRANCH  22  23
ENDBRANCH  21  22
ENDBRANCH  18  21
ENDBRANCH  16  17
ENDBRANCH   1  16
BRANCH   5  28
HETATM   28  C   UNL     1      42.475 -12.960  -0.828  1.00  0.00     0.176 C 
BRANCH  28  29
HETATM   29  O   UNL     1      43.340 -12.373  -1.780  1.00  0.00    -0.400 OA
HETATM   30  H   UNL     1      42.957 -11.487  -1.962  1.00  0.00     0.209 HD
ENDBRANCH  28  29
ENDBRANCH   5  28
BRANCH  14  31
HETATM   31  C   UNL     1      42.875 -17.981   2.602  1.00  0.00    -0.000 A 
HETATM   32  C   UNL     1      43.050 -19.085   1.754  1.00  0.00     0.014 A 
HETATM   33  C   UNL     1      43.797 -20.195   2.157  1.00  0.00     0.001 A 
HETATM   34  C   UNL     1      44.388 -20.220   3.416  1.00  0.00     0.000 A 
HETATM   35  C   UNL     1      44.230 -19.137   4.275  1.00  0.00     0.001 A 
HETATM   36  C   UNL     1      43.476 -18.029   3.873  1.00  0.00     0.014 A 
ENDBRANCH  14  31
BRANCH   7  37
HETATM   37  O   UNL     1      42.474 -10.632   0.602  1.00  0.00    -0.395 OA
HETATM   38  H   UNL     1      43.215 -11.010   0.092  1.00  0.00     0.210 HD
ENDBRANCH   7  37
TORSDOF 9
ENDMDL
MODEL 6
REMARK VINA RESULT:      -7.6      4.681      8.347
REMARK  9 active torsions:
REMARK  status: ('A' for Active; 'I' for Inactive)
REMARK       I    between atoms: C_2  and  N_3 
REMARK    1  A    between atoms: N_3  and  C_4 
REMARK    2  A    between atoms: C_4  and  C_5 
REMARK    3  A    between atoms: C_5  and  N_6 
REMARK       I    between atoms: N_6  and  C_7 
REMARK    4  A    between atoms: C_7  and  C_8 
REMARK    5  A    between atoms: C_8  and  C_9 
REMARK    6  A    between atoms: C_13  and  C_14 
REMARK    7  A    between atoms: C_14  and  O_15 
REMARK    8  A    between atoms: C_17  and  O_18 
REMARK    9  A    between atoms: C_25  and  C_26 
ROOT
HETATM    1  C   UNL     1      40.842 -13.022  -1.304  1.00  0.00     0.056 C 
HETATM    2  C   UNL     1      40.732 -11.430  -1.317  1.00  0.00    -0.030 C 
HETATM    3  C   UNL     1      42.104 -10.816  -1.754  1.00  0.00     0.016 C 
HETATM    4  C   UNL     1      40.391 -10.813   0.108  1.00  0.00     0.012 C 
HETATM    5  C   UNL     1      38.869 -10.790   0.563  1.00  0.00     0.008 C 
HETATM    6  C   UNL     1      38.697  -9.534   1.476  1.00  0.00     0.020 C 
HETATM    7  C   UNL     1      37.915 -10.583  -0.657  1.00  0.00     0.128 C 
HETATM    8  C   UNL     1      38.636 -10.011  -1.873  1.00  0.00     0.033 C 
HETATM    9  C   UNL     1      39.686 -10.992  -2.388  1.00  0.00     0.013 C 
HETATM   10  C   UNL     1      41.388 -11.278   1.204  1.00  0.00     0.054 C 
HETATM   11  C   UNL     1      41.701 -12.722   1.078  1.00  0.00     0.010 A 
HETATM   12  C   UNL     1      41.507 -13.511  -0.034  1.00  0.00     0.054 A 
HETATM   13  N   UNL     1      41.897 -14.834   0.126  1.00  0.00    -0.244 NA
HETATM   14  C   UNL     1      42.275 -15.052   1.377  1.00  0.00     0.108 A 
HETATM   15  S   UNL     1      42.362 -13.629   2.352  1.00  0.00    -0.072 SA
ENDROOT
BRANCH   1  16
HETATM   16  C   UNL     1      41.523 -13.562  -2.576  1.00  0.00     0.114 C 
BRANCH  16  17
HETATM   17  C   UNL     1      40.802 -14.721  -3.239  1.00  0.00     0.218 C 
HETATM   18  N   UNL     1      39.552 -14.404  -3.699  1.00  0.00    -0.359 N 
HETATM   19  H   UNL     1      39.412 -13.429  -3.972  1.00  0.00     0.162 HD
HETATM   20  O   UNL     1      41.274 -15.854  -3.269  1.00  0.00    -0.274 OA
BRANCH  18  21
HETATM   21  C   UNL     1      38.605 -15.396  -4.157  1.00  0.00     0.142 C 
BRANCH  21  22
HETATM   22  C   UNL     1      37.146 -15.040  -3.868  1.00  0.00     0.142 C 
BRANCH  22  23
HETATM   23  N   UNL     1      36.755 -13.791  -4.506  1.00  0.00    -0.360 N 
HETATM   24  C   UNL     1      35.679 -13.722  -5.359  1.00  0.00     0.213 C 
HETATM   25  C   UNL     1      35.484 -12.380  -6.013  1.00  0.00     0.117 C 
HETATM   26  O   UNL     1      34.934 -14.668  -5.593  1.00  0.00    -0.274 OA
HETATM   27  H   UNL     1      37.391 -13.008  -4.435  1.00  0.00     0.162 HD
ENDBRANCH  22  23
ENDBRANCH  21  22
ENDBRANCH  18  21
ENDBRANCH  16  17
ENDBRANCH   1  16
BRANCH   5  28
HETATM   28  C   UNL     1      38.420 -11.989   1.437  1.00  0.00     0.176 C 
BRANCH  28  29
HETATM   29  O   UNL     1      37.053 -11.937   1.795  1.00  0.00    -0.400 OA
HETATM   30  H   UNL     1      36.984 -12.464   2.622  1.00  0.00     0.209 HD
ENDBRANCH  28  29
ENDBRANCH   5  28
BRANCH  14  31
HETATM   31  C   UNL     1      42.625 -16.372   1.934  1.00  0.00    -0.000 A 
HETATM   32  C   UNL     1      42.025 -16.804   3.127  1.00  0.00     0.014 A 
HETATM   33  C   UNL     1      42.368 -18.030   3.705  1.00  0.00     0.001 A 
HETATM   34  C   UNL     1      43.315 -18.848   3.098  1.00  0.00     0.000 A 
HETATM   35  C   UNL     1      43.923 -18.441   1.915  1.00  0.00     0.001 A 
HETATM   36  C   UNL     1      43.584 -17.212   1.341  1.00  0.00     0.014 A 
ENDBRANCH  14  31
BRANCH   7  37
HETATM   37  O   UNL     1      37.285 -11.812  -1.042  1.00  0.00    -0.395 OA
HETATM   38  H   UNL     1      36.824 -12.162  -0.257  1.00  0.00     0.210 HD
ENDBRANCH   7  37
TORSDOF 9
ENDMDL
MODEL 7
REMARK VINA RESULT:      -7.6      3.153      6.819
REMARK  9 active torsions:
REMARK  status: ('A' for Active; 'I' for Inactive)
REMARK       I    between atoms: C_2  and  N_3 
REMARK    1  A    between atoms: N_3  and  C_4 
REMARK    2  A    between atoms: C_4  and  C_5 
REMARK    3  A    between atoms: C_5  and  N_6 
REMARK       I    between atoms: N_6  and  C_7 
REMARK    4  A    between atoms: C_7  and  C_8 
REMARK    5  A    between atoms: C_8  and  C_9 
REMARK    6  A    between atoms: C_13  and  C_14 
REMARK    7  A    between atoms: C_14  and  O_15 
REMARK    8  A    between atoms: C_17  and  O_18 
REMARK    9  A    between atoms: C_25  and  C_26 
ROOT
HETATM    1  C   UNL     1      41.850 -15.950   2.602  1.00  0.00     0.056 C 
HETATM    2  C   UNL     1      41.770 -15.977   4.196  1.00  0.00    -0.030 C 
HETATM    3  C   UNL     1      40.778 -17.100   4.649  1.00  0.00     0.016 C 
HETATM    4  C   UNL     1      41.234 -14.617   4.820  1.00  0.00     0.012 C 
HETATM    5  C   UNL     1      42.270 -13.430   5.017  1.00  0.00     0.008 C 
HETATM    6  C   UNL     1      41.791 -12.624   6.267  1.00  0.00     0.020 C 
HETATM    7  C   UNL     1      43.696 -13.971   5.361  1.00  0.00     0.128 C 
HETATM    8  C   UNL     1      43.668 -15.410   5.867  1.00  0.00     0.033 C 
HETATM    9  C   UNL     1      43.168 -16.355   4.777  1.00  0.00     0.013 C 
HETATM   10  C   UNL     1      39.868 -14.192   4.218  1.00  0.00     0.054 C 
HETATM   11  C   UNL     1      39.833 -14.396   2.750  1.00  0.00     0.010 A 
HETATM   12  C   UNL     1      40.673 -15.201   2.012  1.00  0.00     0.054 A 
HETATM   13  N   UNL     1      40.409 -15.208   0.648  1.00  0.00    -0.244 NA
HETATM   14  C   UNL     1      39.454 -14.336   0.361  1.00  0.00     0.108 A 
HETATM   15  S   UNL     1      38.705 -13.621   1.745  1.00  0.00    -0.072 SA
ENDROOT
BRANCH   1  16
HETATM   16  C   UNL     1      42.010 -17.363   2.010  1.00  0.00     0.114 C 
BRANCH  16  17
HETATM   17  C   UNL     1      43.428 -17.902   2.028  1.00  0.00     0.218 C 
HETATM   18  N   UNL     1      43.536 -19.155   2.567  1.00  0.00    -0.359 N 
HETATM   19  H   UNL     1      42.712 -19.753   2.473  1.00  0.00     0.162 HD
HETATM   20  O   UNL     1      44.390 -17.225   1.674  1.00  0.00    -0.274 OA
BRANCH  18  21
HETATM   21  C   UNL     1      44.804 -19.769   2.892  1.00  0.00     0.142 C 
BRANCH  21  22
HETATM   22  C   UNL     1      44.816 -20.495   4.238  1.00  0.00     0.142 C 
BRANCH  22  23
HETATM   23  N   UNL     1      44.588 -19.582   5.349  1.00  0.00    -0.360 N 
HETATM   24  C   UNL     1      43.999 -20.001   6.519  1.00  0.00     0.213 C 
HETATM   25  C   UNL     1      43.741 -18.905   7.518  1.00  0.00     0.117 C 
HETATM   26  O   UNL     1      43.688 -21.166   6.745  1.00  0.00    -0.274 OA
HETATM   27  H   UNL     1      44.725 -18.594   5.182  1.00  0.00     0.162 HD
ENDBRANCH  22  23
ENDBRANCH  21  22
ENDBRANCH  18  21
ENDBRANCH  16  17
ENDBRANCH   1  16
BRANCH   5  28
HETATM   28  C   UNL     1      42.321 -12.395   3.863  1.00  0.00     0.176 C 
BRANCH  28  29
HETATM   29  O   UNL     1      41.731 -11.155   4.200  1.00  0.00    -0.400 OA
HETATM   30  H   UNL     1      40.779 -11.256   3.980  1.00  0.00     0.209 HD
ENDBRANCH  28  29
ENDBRANCH   5  28
BRANCH  14  31
HETATM   31  C   UNL     1      39.013 -13.986  -1.001  1.00  0.00    -0.000 A 
HETATM   32  C   UNL     1      39.736 -14.456  -2.108  1.00  0.00     0.014 A 
HETATM   33  C   UNL     1      39.372 -14.106  -3.411  1.00  0.00     0.001 A 
HETATM   34  C   UNL     1      38.273 -13.282  -3.632  1.00  0.00     0.000 A 
HETATM   35  C   UNL     1      37.540 -12.803  -2.551  1.00  0.00     0.001 A 
HETATM   36  C   UNL     1      37.910 -13.149  -1.247  1.00  0.00     0.014 A 
ENDBRANCH  14  31
BRANCH   7  37
HETATM   37  O   UNL     1      44.567 -13.908   4.225  1.00  0.00    -0.395 OA
HETATM   38  H   UNL     1      44.812 -12.973   4.097  1.00  0.00     0.210 HD
ENDBRANCH   7  37
TORSDOF 9
ENDMDL
MODEL 8
REMARK VINA RESULT:      -7.5      2.955      7.179
REMARK  9 active torsions:
REMARK  status: ('A' for Active; 'I' for Inactive)
REMARK       I    between atoms: C_2  and  N_3 
REMARK    1  A    between atoms: N_3  and  C_4 
REMARK    2  A    between atoms: C_4  and  C_5 
REMARK    3  A    between atoms: C_5  and  N_6 
REMARK       I    between atoms: N_6  and  C_7 
REMARK    4  A    between atoms: C_7  and  C_8 
REMARK    5  A    between atoms: C_8  and  C_9 
REMARK    6  A    between atoms: C_13  and  C_14 
REMARK    7  A    between atoms: C_14  and  O_15 
REMARK    8  A    between atoms: C_17  and  O_18 
REMARK    9  A    between atoms: C_25  and  C_26 
ROOT
HETATM    1  C   UNL     1      41.795 -15.904   3.680  1.00  0.00     0.056 C 
HETATM    2  C   UNL     1      41.523 -15.610   5.225  1.00  0.00    -0.030 C 
HETATM    3  C   UNL     1      40.392 -16.559   5.745  1.00  0.00     0.016 C 
HETATM    4  C   UNL     1      41.035 -14.124   5.505  1.00  0.00     0.012 C 
HETATM    5  C   UNL     1      42.138 -12.986   5.611  1.00  0.00     0.008 C 
HETATM    6  C   UNL     1      41.584 -11.921   6.610  1.00  0.00     0.020 C 
HETATM    7  C   UNL     1      43.461 -13.534   6.238  1.00  0.00     0.128 C 
HETATM    8  C   UNL     1      43.250 -14.840   6.998  1.00  0.00     0.033 C 
HETATM    9  C   UNL     1      42.804 -15.950   6.049  1.00  0.00     0.013 C 
HETATM   10  C   UNL     1      39.792 -13.743   4.655  1.00  0.00     0.054 C 
HETATM   11  C   UNL     1      39.916 -14.232   3.261  1.00  0.00     0.010 A 
HETATM   12  C   UNL     1      40.766 -15.216   2.807  1.00  0.00     0.054 A 
HETATM   13  N   UNL     1      40.667 -15.478   1.446  1.00  0.00    -0.244 NA
HETATM   14  C   UNL     1      39.831 -14.623   0.875  1.00  0.00     0.108 A 
HETATM   15  S   UNL     1      38.987 -13.605   1.986  1.00  0.00    -0.072 SA
ENDROOT
BRANCH   1  16
HETATM   16  C   UNL     1      41.904 -17.414   3.392  1.00  0.00     0.114 C 
BRANCH  16  17
HETATM   17  C   UNL     1      43.303 -17.985   3.517  1.00  0.00     0.218 C 
HETATM   18  N   UNL     1      43.480 -18.776   4.620  1.00  0.00    -0.359 N 
HETATM   19  H   UNL     1      42.647 -19.261   4.960  1.00  0.00     0.162 HD
HETATM   20  O   UNL     1      44.206 -17.680   2.743  1.00  0.00    -0.274 OA
BRANCH  18  21
HETATM   21  C   UNL     1      44.778 -19.238   5.060  1.00  0.00     0.142 C 
BRANCH  21  22
HETATM   22  C   UNL     1      45.209 -20.565   4.436  1.00  0.00     0.142 C 
BRANCH  22  23
HETATM   23  N   UNL     1      44.612 -20.766   3.123  1.00  0.00    -0.360 N 
HETATM   24  C   UNL     1      44.441 -22.023   2.592  1.00  0.00     0.213 C 
HETATM   25  C   UNL     1      43.910 -22.041   1.183  1.00  0.00     0.117 C 
HETATM   26  O   UNL     1      44.707 -23.059   3.194  1.00  0.00    -0.274 OA
HETATM   27  H   UNL     1      44.473 -19.952   2.539  1.00  0.00     0.162 HD
ENDBRANCH  22  23
ENDBRANCH  21  22
ENDBRANCH  18  21
ENDBRANCH  16  17
ENDBRANCH   1  16
BRANCH   5  28
HETATM   28  C   UNL     1      42.415 -12.206   4.300  1.00  0.00     0.176 C 
BRANCH  28  29
HETATM   29  O   UNL     1      43.176 -12.942   3.362  1.00  0.00    -0.400 OA
HETATM   30  H   UNL     1      44.042 -12.480   3.315  1.00  0.00     0.209 HD
ENDBRANCH  28  29
ENDBRANCH   5  28
BRANCH  14  31
HETATM   31  C   UNL     1      39.588 -14.524  -0.576  1.00  0.00    -0.000 A 
HETATM   32  C   UNL     1      38.365 -14.018  -1.043  1.00  0.00     0.014 A 
HETATM   33  C   UNL     1      38.085 -13.952  -2.410  1.00  0.00     0.001 A 
HETATM   34  C   UNL     1      39.027 -14.389  -3.338  1.00  0.00     0.000 A 
HETATM   35  C   UNL     1      40.246 -14.894  -2.899  1.00  0.00     0.001 A 
HETATM   36  C   UNL     1      40.522 -14.965  -1.530  1.00  0.00     0.014 A 
ENDBRANCH  14  31
BRANCH   7  37
HETATM   37  O   UNL     1      44.464 -13.751   5.238  1.00  0.00    -0.395 OA
HETATM   38  H   UNL     1      44.695 -12.880   4.863  1.00  0.00     0.210 HD
ENDBRANCH   7  37
TORSDOF 9
ENDMDL
MODEL 9
REMARK VINA RESULT:      -7.3      3.086      6.487
REMARK  9 active torsions:
REMARK  status: ('A' for Active; 'I' for Inactive)
REMARK       I    between atoms: C_2  and  N_3 
REMARK    1  A    between atoms: N_3  and  C_4 
REMARK    2  A    between atoms: C_4  and  C_5 
REMARK    3  A    between atoms: C_5  and  N_6 
REMARK       I    between atoms: N_6  and  C_7 
REMARK    4  A    between atoms: C_7  and  C_8 
REMARK    5  A    between atoms: C_8  and  C_9 
REMARK    6  A    between atoms: C_13  and  C_14 
REMARK    7  A    between atoms: C_14  and  O_15 
REMARK    8  A    between atoms: C_17  and  O_18 
REMARK    9  A    between atoms: C_25  and  C_26 
ROOT
HETATM    1  C   UNL     1      41.203 -13.979   3.939  1.00  0.00     0.056 C 
HETATM    2  C   UNL     1      42.553 -14.828   3.885  1.00  0.00    -0.030 C 
HETATM    3  C   UNL     1      43.776 -13.856   3.777  1.00  0.00     0.016 C 
HETATM    4  C   UNL     1      42.633 -15.801   2.632  1.00  0.00     0.012 C 
HETATM    5  C   UNL     1      41.900 -17.207   2.734  1.00  0.00     0.008 C 
HETATM    6  C   UNL     1      42.725 -18.204   1.858  1.00  0.00     0.020 C 
HETATM    7  C   UNL     1      41.941 -17.764   4.194  1.00  0.00     0.128 C 
HETATM    8  C   UNL     1      43.020 -17.099   5.043  1.00  0.00     0.033 C 
HETATM    9  C   UNL     1      42.724 -15.613   5.223  1.00  0.00     0.013 C 
HETATM   10  C   UNL     1      42.412 -15.052   1.290  1.00  0.00     0.054 C 
HETATM   11  C   UNL     1      41.309 -14.066   1.393  1.00  0.00     0.010 A 
HETATM   12  C   UNL     1      40.780 -13.542   2.551  1.00  0.00     0.054 A 
HETATM   13  N   UNL     1      39.753 -12.629   2.352  1.00  0.00    -0.244 NA
HETATM   14  C   UNL     1      39.447 -12.557   1.065  1.00  0.00     0.108 A 
HETATM   15  S   UNL     1      40.517 -13.434   0.030  1.00  0.00    -0.072 SA
ENDROOT
BRANCH   1  16
HETATM   16  C   UNL     1      41.303 -12.801   4.927  1.00  0.00     0.114 C 
BRANCH  16  17
HETATM   17  C   UNL     1      40.146 -12.690   5.902  1.00  0.00     0.218 C 
HETATM   18  N   UNL     1      40.384 -11.838   6.947  1.00  0.00    -0.359 N 
HETATM   19  H   UNL     1      41.030 -11.069   6.757  1.00  0.00     0.162 HD
HETATM   20  O   UNL     1      39.135 -13.379   5.799  1.00  0.00    -0.274 OA
BRANCH  18  21
HETATM   21  C   UNL     1      39.524 -11.750   8.105  1.00  0.00     0.142 C 
BRANCH  21  22
HETATM   22  C   UNL     1      39.922 -10.652   9.093  1.00  0.00     0.142 C 
BRANCH  22  23
HETATM   23  N   UNL     1      41.080 -11.034   9.890  1.00  0.00    -0.360 N 
HETATM   24  C   UNL     1      42.361 -10.728   9.496  1.00  0.00     0.213 C 
HETATM   25  C   UNL     1      43.440 -11.291  10.381  1.00  0.00     0.117 C 
HETATM   26  O   UNL     1      42.626 -10.062   8.499  1.00  0.00    -0.274 OA
HETATM   27  H   UNL     1      40.931 -11.672  10.661  1.00  0.00     0.162 HD
ENDBRANCH  22  23
ENDBRANCH  21  22
ENDBRANCH  18  21
ENDBRANCH  16  17
ENDBRANCH   1  16
BRANCH   5  28
HETATM   28  C   UNL     1      40.464 -17.251   2.151  1.00  0.00     0.176 C 
BRANCH  28  29
HETATM   29  O   UNL     1      40.408 -17.791   0.846  1.00  0.00    -0.400 OA
HETATM   30  H   UNL     1      39.529 -18.226   0.785  1.00  0.00     0.209 HD
ENDBRANCH  28  29
ENDBRANCH   5  28
BRANCH  14  31
HETATM   31  C   UNL     1      38.319 -11.788   0.508  1.00  0.00    -0.000 A 
HETATM   32  C   UNL     1      37.003 -12.149   0.837  1.00  0.00     0.014 A 
HETATM   33  C   UNL     1      35.910 -11.471   0.291  1.00  0.00     0.001 A 
HETATM   34  C   UNL     1      36.113 -10.414  -0.592  1.00  0.00     0.000 A 
HETATM   35  C   UNL     1      37.408 -10.038  -0.932  1.00  0.00     0.001 A 
HETATM   36  C   UNL     1      38.501 -10.722  -0.391  1.00  0.00     0.014 A 
ENDBRANCH  14  31
BRANCH   7  37
HETATM   37  O   UNL     1      40.680 -17.595   4.853  1.00  0.00    -0.395 OA
HETATM   38  H   UNL     1      40.177 -16.924   4.354  1.00  0.00     0.210 HD
ENDBRANCH   7  37
TORSDOF 9
ENDMDL
MODEL 10
REMARK VINA RESULT:      -7.3      3.609      5.135
REMARK  9 active torsions:
REMARK  status: ('A' for Active; 'I' for Inactive)
REMARK       I    between atoms: C_2  and  N_3 
REMARK    1  A    between atoms: N_3  and  C_4 
REMARK    2  A    between atoms: C_4  and  C_5 
REMARK    3  A    between atoms: C_5  and  N_6 
REMARK       I    between atoms: N_6  and  C_7 
REMARK    4  A    between atoms: C_7  and  C_8 
REMARK    5  A    between atoms: C_8  and  C_9 
REMARK    6  A    between atoms: C_13  and  C_14 
REMARK    7  A    between atoms: C_14  and  O_15 
REMARK    8  A    between atoms: C_17  and  O_18 
REMARK    9  A    between atoms: C_25  and  C_26 
ROOT
HETATM    1  C   UNL     1      39.136 -13.188  -0.134  1.00  0.00     0.056 C 
HETATM    2  C   UNL     1      39.100 -12.891  -1.702  1.00  0.00    -0.030 C 
HETATM    3  C   UNL     1      38.060 -13.839  -2.389  1.00  0.00     0.016 C 
HETATM    4  C   UNL     1      40.493 -13.148  -2.422  1.00  0.00     0.012 C 
HETATM    5  C   UNL     1      41.587 -11.997  -2.356  1.00  0.00     0.008 C 
HETATM    6  C   UNL     1      42.418 -12.098  -3.675  1.00  0.00     0.020 C 
HETATM    7  C   UNL     1      40.924 -10.582  -2.359  1.00  0.00     0.128 C 
HETATM    8  C   UNL     1      39.488 -10.611  -2.872  1.00  0.00     0.033 C 
HETATM    9  C   UNL     1      38.599 -11.432  -1.941  1.00  0.00     0.013 C 
HETATM   10  C   UNL     1      41.039 -14.576  -2.155  1.00  0.00     0.054 C 
HETATM   11  C   UNL     1      40.853 -14.974  -0.738  1.00  0.00     0.010 A 
HETATM   12  C   UNL     1      39.988 -14.403   0.169  1.00  0.00     0.054 A 
HETATM   13  N   UNL     1      40.016 -14.982   1.431  1.00  0.00    -0.244 NA
HETATM   14  C   UNL     1      40.969 -15.900   1.493  1.00  0.00     0.108 A 
HETATM   15  S   UNL     1      41.730 -16.238  -0.020  1.00  0.00    -0.072 SA
ENDROOT
BRANCH   1  16
HETATM   16  C   UNL     1      37.720 -13.292   0.464  1.00  0.00     0.114 C 
BRANCH  16  17
HETATM   17  C   UNL     1      37.220 -12.026   1.135  1.00  0.00     0.218 C 
HETATM   18  N   UNL     1      38.079 -11.522   2.074  1.00  0.00    -0.359 N 
HETATM   19  H   UNL     1      39.071 -11.720   1.923  1.00  0.00     0.162 HD
HETATM   20  O   UNL     1      36.105 -11.564   0.911  1.00  0.00    -0.274 OA
BRANCH  18  21
HETATM   21  C   UNL     1      37.715 -10.464   2.990  1.00  0.00     0.142 C 
BRANCH  21  22
HETATM   22  C   UNL     1      38.582 -10.406   4.248  1.00  0.00     0.142 C 
BRANCH  22  23
HETATM   23  N   UNL     1      39.128 -11.712   4.591  1.00  0.00    -0.360 N 
HETATM   24  C   UNL     1      39.350 -12.082   5.897  1.00  0.00     0.213 C 
HETATM   25  C   UNL     1      40.017 -13.421   6.063  1.00  0.00     0.117 C 
HETATM   26  O   UNL     1      39.048 -11.387   6.862  1.00  0.00    -0.274 OA
HETATM   27  H   UNL     1      39.493 -12.282   3.839  1.00  0.00     0.162 HD
ENDBRANCH  22  23
ENDBRANCH  21  22
ENDBRANCH  18  21
ENDBRANCH  16  17
ENDBRANCH   1  16
BRANCH   5  28
HETATM   28  C   UNL     1      42.625 -12.134  -1.212  1.00  0.00     0.176 C 
BRANCH  28  29
HETATM   29  O   UNL     1      43.535 -11.052  -1.153  1.00  0.00    -0.400 OA
HETATM   30  H   UNL     1      43.128 -10.409  -0.532  1.00  0.00     0.209 HD
ENDBRANCH  28  29
ENDBRANCH   5  28
BRANCH  14  31
HETATM   31  C   UNL     1      41.368 -16.619   2.717  1.00  0.00    -0.000 A 
HETATM   32  C   UNL     1      42.257 -17.702   2.628  1.00  0.00     0.014 A 
HETATM   33  C   UNL     1      42.620 -18.433   3.763  1.00  0.00     0.001 A 
HETATM   34  C   UNL     1      42.104 -18.091   5.009  1.00  0.00     0.000 A 
HETATM   35  C   UNL     1      41.222 -17.022   5.122  1.00  0.00     0.001 A 
HETATM   36  C   UNL     1      40.854 -16.295   3.985  1.00  0.00     0.014 A 
ENDBRANCH  14  31
BRANCH   7  37
HETATM   37  O   UNL     1      40.924 -10.002  -1.049  1.00  0.00    -0.395 OA
HETATM   38  H   UNL     1      41.211  -9.074  -1.141  1.00  0.00     0.210 HD
ENDBRANCH   7  37
TORSDOF 9
ENDMDL
