MODEL 1
REMARK VINA RESULT:      -7.9      0.000      0.000
REMARK  8 active torsions:
REMARK  status: ('A' for Active; 'I' for Inactive)
REMARK    1  A    between atoms: C_2  and  C_3 
REMARK    2  A    between atoms: C_3  and  N_4 
REMARK    3  A    between atoms: N_4  and  C_5 
REMARK    4  A    between atoms: C_7  and  N_8 
REMARK    5  A    between atoms: N_8  and  C_9 
REMARK    6  A    between atoms: C_9  and  C_10 
REMARK    7  A    between atoms: C_10  and  C_11 
REMARK    8  A    between atoms: C_12  and  O_13 
ROOT
HETATM    1  C   UNL     1      43.779 -18.435   3.366  1.00  0.00     0.119 A 
HETATM    2  N   UNL     1      44.173 -17.906   4.542  1.00  0.00    -0.207 NA
HETATM    3  C   UNL     1      44.755 -18.723   5.427  1.00  0.00     0.181 A 
HETATM    4  N   UNL     1      44.937 -20.021   5.212  1.00  0.00    -0.330 N 
HETATM    5  H   UNL     1      45.316 -20.565   5.975  1.00  0.00     0.168 HD
HETATM    6  C   UNL     1      44.595 -20.588   4.052  1.00  0.00     0.048 A 
HETATM    7  C   UNL     1      43.997 -19.794   3.054  1.00  0.00     0.031 A 
HETATM    8  C   UNL     1      44.834 -21.954   3.838  1.00  0.00     0.030 A 
HETATM    9  C   UNL     1      44.494 -22.542   2.621  1.00  0.00     0.002 A 
HETATM   10  C   UNL     1      43.916 -21.772   1.615  1.00  0.00     0.001 A 
HETATM   11  C   UNL     1      43.669 -20.414   1.825  1.00  0.00     0.017 A 
ENDROOT
BRANCH   3  12
HETATM   12  N   UNL     1      45.101 -18.196   6.658  1.00  0.00    -0.262 NA
HETATM   13  H   UNL     1      46.047 -18.541   6.853  1.00  0.00     0.130 HD
BRANCH  12  14
HETATM   14  C   UNL     1      44.189 -18.428   7.786  1.00  0.00     0.100 C 
BRANCH  14  15
HETATM   15  C   UNL     1      43.415 -17.165   8.186  1.00  0.00     0.056 C 
BRANCH  15  16
HETATM   16  C   UNL     1      42.716 -16.360   7.106  1.00  0.00    -0.024 A 
HETATM   17  C   UNL     1      43.394 -15.249   6.553  1.00  0.00     0.074 A 
HETATM   18  C   UNL     1      42.791 -14.489   5.545  1.00  0.00     0.037 A 
HETATM   19  C   UNL     1      41.515 -14.814   5.087  1.00  0.00     0.003 A 
HETATM   20  C   UNL     1      40.833 -15.894   5.634  1.00  0.00     0.001 A 
HETATM   21  C   UNL     1      41.427 -16.662   6.638  1.00  0.00     0.010 A 
BRANCH  17  22
HETATM   22  O   UNL     1      44.643 -15.002   7.065  1.00  0.00    -0.355 OA
HETATM   23  C   UNL     1      44.920 -13.671   7.487  1.00  0.00     0.210 C 
ENDBRANCH  17  22
ENDBRANCH  15  16
ENDBRANCH  14  15
ENDBRANCH  12  14
ENDBRANCH   3  12
BRANCH   1  24
HETATM   24  N   UNL     1      43.179 -17.601   2.413  1.00  0.00    -0.277 NA
HETATM   25  H   UNL     1      43.503 -17.833   1.475  1.00  0.00     0.129 HD
BRANCH  24  26
HETATM   26  C   UNL     1      41.720 -17.490   2.457  1.00  0.00     0.093 C 
BRANCH  26  27
HETATM   27  C   UNL     1      41.253 -16.357   1.541  1.00  0.00     0.010 C 
HETATM   28  C   UNL     1      39.875 -15.827   1.910  1.00  0.00     0.006 C 
ENDBRANCH  26  27
ENDBRANCH  24  26
ENDBRANCH   1  24
TORSDOF 8
ENDMDL
MODEL 2
REMARK VINA RESULT:      -7.6      1.974      6.415
REMARK  8 active torsions:
REMARK  status: ('A' for Active; 'I' for Inactive)
REMARK    1  A    between atoms: C_2  and  C_3 
REMARK    2  A    between atoms: C_3  and  N_4 
REMARK    3  A    between atoms: N_4  and  C_5 
REMARK    4  A    between atoms: C_7  and  N_8 
REMARK    5  A    between atoms: N_8  and  C_9 
REMARK    6  A    between atoms: C_9  and  C_10 
REMARK    7  A    between atoms: C_10  and  C_11 
REMARK    8  A    between atoms: C_12  and  O_13 
ROOT
HETATM    1  C   UNL     1      43.968 -14.884   6.955  1.00  0.00     0.119 A 
HETATM    2  N   UNL     1      44.180 -16.088   7.523  1.00  0.00    -0.207 NA
HETATM    3  C   UNL     1      43.271 -17.046   7.306  1.00  0.00     0.181 A 
HETATM    4  N   UNL     1      42.170 -16.858   6.586  1.00  0.00    -0.330 N 
HETATM    5  H   UNL     1      41.510 -17.622   6.547  1.00  0.00     0.168 HD
HETATM    6  C   UNL     1      41.930 -15.695   5.976  1.00  0.00     0.048 A 
HETATM    7  C   UNL     1      42.848 -14.638   6.131  1.00  0.00     0.031 A 
HETATM    8  C   UNL     1      40.778 -15.537   5.190  1.00  0.00     0.030 A 
HETATM    9  C   UNL     1      40.535 -14.329   4.538  1.00  0.00     0.002 A 
HETATM   10  C   UNL     1      41.438 -13.277   4.666  1.00  0.00     0.001 A 
HETATM   11  C   UNL     1      42.582 -13.426   5.452  1.00  0.00     0.017 A 
ENDROOT
BRANCH   3  12
HETATM   12  N   UNL     1      43.454 -18.261   7.940  1.00  0.00    -0.262 NA
HETATM   13  H   UNL     1      44.165 -18.095   8.660  1.00  0.00     0.130 HD
BRANCH  12  14
HETATM   14  C   UNL     1      43.776 -19.429   7.110  1.00  0.00     0.100 C 
BRANCH  14  15
HETATM   15  C   UNL     1      44.712 -19.080   5.944  1.00  0.00     0.056 C 
BRANCH  15  16
HETATM   16  C   UNL     1      44.462 -19.712   4.587  1.00  0.00    -0.024 A 
HETATM   17  C   UNL     1      43.941 -18.898   3.554  1.00  0.00     0.074 A 
HETATM   18  C   UNL     1      43.709 -19.438   2.285  1.00  0.00     0.037 A 
HETATM   19  C   UNL     1      43.978 -20.782   2.032  1.00  0.00     0.003 A 
HETATM   20  C   UNL     1      44.476 -21.595   3.043  1.00  0.00     0.001 A 
HETATM   21  C   UNL     1      44.715 -21.066   4.313  1.00  0.00     0.010 A 
BRANCH  17  22
HETATM   22  O   UNL     1      43.704 -17.589   3.894  1.00  0.00    -0.355 OA
HETATM   23  C   UNL     1      43.543 -16.661   2.827  1.00  0.00     0.210 C 
ENDBRANCH  17  22
ENDBRANCH  15  16
ENDBRANCH  14  15
ENDBRANCH  12  14
ENDBRANCH   3  12
BRANCH   1  24
HETATM   24  N   UNL     1      44.909 -13.864   7.152  1.00  0.00    -0.277 NA
HETATM   25  H   UNL     1      45.019 -13.305   6.308  1.00  0.00     0.129 HD
BRANCH  24  26
HETATM   26  C   UNL     1      44.726 -13.014   8.330  1.00  0.00     0.093 C 
BRANCH  26  27
HETATM   27  C   UNL     1      45.999 -12.211   8.600  1.00  0.00     0.010 C 
HETATM   28  C   UNL     1      45.780 -11.062   9.574  1.00  0.00     0.006 C 
ENDBRANCH  26  27
ENDBRANCH  24  26
ENDBRANCH   1  24
TORSDOF 8
ENDMDL
MODEL 3
REMARK VINA RESULT:      -7.4      2.157      4.549
REMARK  8 active torsions:
REMARK  status: ('A' for Active; 'I' for Inactive)
REMARK    1  A    between atoms: C_2  and  C_3 
REMARK    2  A    between atoms: C_3  and  N_4 
REMARK    3  A    between atoms: N_4  and  C_5 
REMARK    4  A    between atoms: C_7  and  N_8 
REMARK    5  A    between atoms: N_8  and  C_9 
REMARK    6  A    between atoms: C_9  and  C_10 
REMARK    7  A    between atoms: C_10  and  C_11 
REMARK    8  A    between atoms: C_12  and  O_13 
ROOT
HETATM    1  C   UNL     1      44.229 -18.499   4.206  1.00  0.00     0.119 A 
HETATM    2  N   UNL     1      43.896 -17.691   3.181  1.00  0.00    -0.207 NA
HETATM    3  C   UNL     1      43.736 -18.249   1.975  1.00  0.00     0.181 A 
HETATM    4  N   UNL     1      43.913 -19.545   1.742  1.00  0.00    -0.330 N 
HETATM    5  H   UNL     1      43.843 -19.854   0.782  1.00  0.00     0.168 HD
HETATM    6  C   UNL     1      44.211 -20.394   2.729  1.00  0.00     0.048 A 
HETATM    7  C   UNL     1      44.374 -19.893   4.036  1.00  0.00     0.031 A 
HETATM    8  C   UNL     1      44.354 -21.764   2.461  1.00  0.00     0.030 A 
HETATM    9  C   UNL     1      44.647 -22.653   3.494  1.00  0.00     0.002 A 
HETATM   10  C   UNL     1      44.797 -22.181   4.795  1.00  0.00     0.001 A 
HETATM   11  C   UNL     1      44.662 -20.818   5.067  1.00  0.00     0.017 A 
ENDROOT
BRANCH   3  12
HETATM   12  N   UNL     1      43.458 -17.412   0.910  1.00  0.00    -0.262 NA
HETATM   13  H   UNL     1      44.076 -16.601   1.026  1.00  0.00     0.130 HD
BRANCH  12  14
HETATM   14  C   UNL     1      42.062 -17.013   0.695  1.00  0.00     0.100 C 
BRANCH  14  15
HETATM   15  C   UNL     1      41.869 -15.491   0.755  1.00  0.00     0.056 C 
BRANCH  15  16
HETATM   16  C   UNL     1      41.618 -14.836   2.100  1.00  0.00    -0.024 A 
HETATM   17  C   UNL     1      40.288 -14.770   2.576  1.00  0.00     0.074 A 
HETATM   18  C   UNL     1      40.014 -14.187   3.818  1.00  0.00     0.037 A 
HETATM   19  C   UNL     1      41.047 -13.658   4.590  1.00  0.00     0.003 A 
HETATM   20  C   UNL     1      42.356 -13.704   4.126  1.00  0.00     0.001 A 
HETATM   21  C   UNL     1      42.642 -14.286   2.890  1.00  0.00     0.010 A 
BRANCH  17  22
HETATM   22  O   UNL     1      39.336 -15.313   1.749  1.00  0.00    -0.355 OA
HETATM   23  C   UNL     1      38.301 -14.448   1.295  1.00  0.00     0.210 C 
ENDBRANCH  17  22
ENDBRANCH  15  16
ENDBRANCH  14  15
ENDBRANCH  12  14
ENDBRANCH   3  12
BRANCH   1  24
HETATM   24  N   UNL     1      44.390 -17.946   5.484  1.00  0.00    -0.277 NA
HETATM   25  H   UNL     1      45.376 -17.797   5.691  1.00  0.00     0.129 HD
BRANCH  24  26
HETATM   26  C   UNL     1      43.596 -16.755   5.793  1.00  0.00     0.093 C 
BRANCH  26  27
HETATM   27  C   UNL     1      42.289 -17.160   6.477  1.00  0.00     0.010 C 
HETATM   28  C   UNL     1      41.129 -17.302   5.502  1.00  0.00     0.006 C 
ENDBRANCH  26  27
ENDBRANCH  24  26
ENDBRANCH   1  24
TORSDOF 8
ENDMDL
MODEL 4
REMARK VINA RESULT:      -7.3      2.656      5.772
REMARK  8 active torsions:
REMARK  status: ('A' for Active; 'I' for Inactive)
REMARK    1  A    between atoms: C_2  and  C_3 
REMARK    2  A    between atoms: C_3  and  N_4 
REMARK    3  A    between atoms: N_4  and  C_5 
REMARK    4  A    between atoms: C_7  and  N_8 
REMARK    5  A    between atoms: N_8  and  C_9 
REMARK    6  A    between atoms: C_9  and  C_10 
REMARK    7  A    between atoms: C_10  and  C_11 
REMARK    8  A    between atoms: C_12  and  O_13 
ROOT
HETATM    1  C   UNL     1      44.229 -18.483   4.244  1.00  0.00     0.119 A 
HETATM    2  N   UNL     1      43.899 -17.662   3.227  1.00  0.00    -0.207 NA
HETATM    3  C   UNL     1      43.737 -18.206   2.016  1.00  0.00     0.181 A 
HETATM    4  N   UNL     1      43.910 -19.500   1.768  1.00  0.00    -0.330 N 
HETATM    5  H   UNL     1      43.839 -19.798   0.805  1.00  0.00     0.168 HD
HETATM    6  C   UNL     1      44.205 -20.361   2.746  1.00  0.00     0.048 A 
HETATM    7  C   UNL     1      44.369 -19.875   4.058  1.00  0.00     0.031 A 
HETATM    8  C   UNL     1      44.343 -21.728   2.463  1.00  0.00     0.030 A 
HETATM    9  C   UNL     1      44.633 -22.630   3.486  1.00  0.00     0.002 A 
HETATM   10  C   UNL     1      44.785 -22.172   4.792  1.00  0.00     0.001 A 
HETATM   11  C   UNL     1      44.655 -20.812   5.079  1.00  0.00     0.017 A 
ENDROOT
BRANCH   3  12
HETATM   12  N   UNL     1      43.462 -17.356   0.959  1.00  0.00    -0.262 NA
HETATM   13  H   UNL     1      44.061 -16.536   1.100  1.00  0.00     0.130 HD
BRANCH  12  14
HETATM   14  C   UNL     1      42.062 -16.980   0.726  1.00  0.00     0.100 C 
BRANCH  14  15
HETATM   15  C   UNL     1      41.861 -15.459   0.685  1.00  0.00     0.056 C 
BRANCH  15  16
HETATM   16  C   UNL     1      40.461 -14.909   0.483  1.00  0.00    -0.024 A 
HETATM   17  C   UNL     1      40.132 -14.358  -0.777  1.00  0.00     0.074 A 
HETATM   18  C   UNL     1      38.849 -13.853  -1.010  1.00  0.00     0.037 A 
HETATM   19  C   UNL     1      37.889 -13.879   0.001  1.00  0.00     0.003 A 
HETATM   20  C   UNL     1      38.205 -14.405   1.247  1.00  0.00     0.001 A 
HETATM   21  C   UNL     1      39.482 -14.915   1.490  1.00  0.00     0.010 A 
BRANCH  17  22
HETATM   22  O   UNL     1      41.140 -14.371  -1.710  1.00  0.00    -0.355 OA
HETATM   23  C   UNL     1      40.995 -15.265  -2.809  1.00  0.00     0.210 C 
ENDBRANCH  17  22
ENDBRANCH  15  16
ENDBRANCH  14  15
ENDBRANCH  12  14
ENDBRANCH   3  12
BRANCH   1  24
HETATM   24  N   UNL     1      44.391 -17.944   5.528  1.00  0.00    -0.277 NA
HETATM   25  H   UNL     1      45.264 -17.421   5.592  1.00  0.00     0.129 HD
BRANCH  24  26
HETATM   26  C   UNL     1      43.270 -17.173   6.068  1.00  0.00     0.093 C 
BRANCH  26  27
HETATM   27  C   UNL     1      43.166 -17.389   7.579  1.00  0.00     0.010 C 
HETATM   28  C   UNL     1      44.081 -18.496   8.083  1.00  0.00     0.006 C 
ENDBRANCH  26  27
ENDBRANCH  24  26
ENDBRANCH   1  24
TORSDOF 8
ENDMDL
MODEL 5
REMARK VINA RESULT:      -7.2      2.911      6.250
REMARK  8 active torsions:
REMARK  status: ('A' for Active; 'I' for Inactive)
REMARK    1  A    between atoms: C_2  and  C_3 
REMARK    2  A    between atoms: C_3  and  N_4 
REMARK    3  A    between atoms: N_4  and  C_5 
REMARK    4  A    between atoms: C_7  and  N_8 
REMARK    5  A    between atoms: N_8  and  C_9 
REMARK    6  A    between atoms: C_9  and  C_10 
REMARK    7  A    between atoms: C_10  and  C_11 
REMARK    8  A    between atoms: C_12  and  O_13 
ROOT
HETATM    1  C   UNL     1      44.015 -18.265   4.048  1.00  0.00     0.119 A 
HETATM    2  N   UNL     1      43.643 -17.474   3.023  1.00  0.00    -0.207 NA
HETATM    3  C   UNL     1      43.505 -18.040   1.818  1.00  0.00     0.181 A 
HETATM    4  N   UNL     1      43.741 -19.327   1.585  1.00  0.00    -0.330 N 
HETATM    5  H   UNL     1      43.683 -19.639   0.626  1.00  0.00     0.168 HD
HETATM    6  C   UNL     1      44.081 -20.160   2.572  1.00  0.00     0.048 A 
HETATM    7  C   UNL     1      44.224 -19.651   3.878  1.00  0.00     0.031 A 
HETATM    8  C   UNL     1      44.286 -21.522   2.305  1.00  0.00     0.030 A 
HETATM    9  C   UNL     1      44.623 -22.396   3.337  1.00  0.00     0.002 A 
HETATM   10  C   UNL     1      44.755 -21.916   4.637  1.00  0.00     0.001 A 
HETATM   11  C   UNL     1      44.558 -20.561   4.909  1.00  0.00     0.017 A 
ENDROOT
BRANCH   3  12
HETATM   12  N   UNL     1      43.186 -17.217   0.753  1.00  0.00    -0.262 NA
HETATM   13  H   UNL     1      43.833 -16.423   0.812  1.00  0.00     0.130 HD
BRANCH  12  14
HETATM   14  C   UNL     1      41.791 -16.779   0.616  1.00  0.00     0.100 C 
BRANCH  14  15
HETATM   15  C   UNL     1      41.675 -15.345   0.082  1.00  0.00     0.056 C 
BRANCH  15  16
HETATM   16  C   UNL     1      40.754 -15.072  -1.093  1.00  0.00    -0.024 A 
HETATM   17  C   UNL     1      39.613 -14.265  -0.877  1.00  0.00     0.074 A 
HETATM   18  C   UNL     1      38.746 -13.977  -1.936  1.00  0.00     0.037 A 
HETATM   19  C   UNL     1      38.995 -14.491  -3.208  1.00  0.00     0.003 A 
HETATM   20  C   UNL     1      40.105 -15.296  -3.429  1.00  0.00     0.001 A 
HETATM   21  C   UNL     1      40.979 -15.587  -2.380  1.00  0.00     0.010 A 
BRANCH  17  22
HETATM   22  O   UNL     1      39.446 -13.806   0.406  1.00  0.00    -0.355 OA
HETATM   23  C   UNL     1      38.268 -14.214   1.093  1.00  0.00     0.210 C 
ENDBRANCH  17  22
ENDBRANCH  15  16
ENDBRANCH  14  15
ENDBRANCH  12  14
ENDBRANCH   3  12
BRANCH   1  24
HETATM   24  N   UNL     1      44.154 -17.704   5.325  1.00  0.00    -0.277 NA
HETATM   25  H   UNL     1      44.696 -16.842   5.283  1.00  0.00     0.129 HD
BRANCH  24  26
HETATM   26  C   UNL     1      42.928 -17.523   6.104  1.00  0.00     0.093 C 
BRANCH  26  27
HETATM   27  C   UNL     1      43.260 -17.468   7.597  1.00  0.00     0.010 C 
HETATM   28  C   UNL     1      44.147 -18.620   8.048  1.00  0.00     0.006 C 
ENDBRANCH  26  27
ENDBRANCH  24  26
ENDBRANCH   1  24
TORSDOF 8
ENDMDL
MODEL 6
REMARK VINA RESULT:      -7.2      2.665      6.891
REMARK  8 active torsions:
REMARK  status: ('A' for Active; 'I' for Inactive)
REMARK    1  A    between atoms: C_2  and  C_3 
REMARK    2  A    between atoms: C_3  and  N_4 
REMARK    3  A    between atoms: N_4  and  C_5 
REMARK    4  A    between atoms: C_7  and  N_8 
REMARK    5  A    between atoms: N_8  and  C_9 
REMARK    6  A    between atoms: C_9  and  C_10 
REMARK    7  A    between atoms: C_10  and  C_11 
REMARK    8  A    between atoms: C_12  and  O_13 
ROOT
HETATM    1  C   UNL     1      40.317 -15.252   1.939  1.00  0.00     0.119 A 
HETATM    2  N   UNL     1      41.475 -15.933   2.039  1.00  0.00    -0.207 NA
HETATM    3  C   UNL     1      42.191 -16.112   0.923  1.00  0.00     0.181 A 
HETATM    4  N   UNL     1      41.802 -15.676  -0.271  1.00  0.00    -0.330 N 
HETATM    5  H   UNL     1      42.376 -15.929  -1.063  1.00  0.00     0.168 HD
HETATM    6  C   UNL     1      40.679 -14.967  -0.419  1.00  0.00     0.048 A 
HETATM    7  C   UNL     1      39.878 -14.712   0.710  1.00  0.00     0.031 A 
HETATM    8  C   UNL     1      40.313 -14.485  -1.685  1.00  0.00     0.030 A 
HETATM    9  C   UNL     1      39.151 -13.731  -1.838  1.00  0.00     0.002 A 
HETATM   10  C   UNL     1      38.353 -13.454  -0.732  1.00  0.00     0.001 A 
HETATM   11  C   UNL     1      38.708 -13.936   0.529  1.00  0.00     0.017 A 
ENDROOT
BRANCH   3  12
HETATM   12  N   UNL     1      43.347 -16.867   1.013  1.00  0.00    -0.262 NA
HETATM   13  H   UNL     1      43.784 -16.817   0.086  1.00  0.00     0.130 HD
BRANCH  12  14
HETATM   14  C   UNL     1      43.229 -18.250   1.491  1.00  0.00     0.100 C 
BRANCH  14  15
HETATM   15  C   UNL     1      44.109 -18.525   2.718  1.00  0.00     0.056 C 
BRANCH  15  16
HETATM   16  C   UNL     1      44.331 -19.961   3.155  1.00  0.00    -0.024 A 
HETATM   17  C   UNL     1      44.673 -20.206   4.505  1.00  0.00     0.074 A 
HETATM   18  C   UNL     1      44.872 -21.516   4.953  1.00  0.00     0.037 A 
HETATM   19  C   UNL     1      44.745 -22.588   4.071  1.00  0.00     0.003 A 
HETATM   20  C   UNL     1      44.424 -22.358   2.738  1.00  0.00     0.001 A 
HETATM   21  C   UNL     1      44.220 -21.055   2.281  1.00  0.00     0.010 A 
BRANCH  17  22
HETATM   22  O   UNL     1      44.778 -19.091   5.301  1.00  0.00    -0.355 OA
HETATM   23  C   UNL     1      44.084 -19.114   6.543  1.00  0.00     0.210 C 
ENDBRANCH  17  22
ENDBRANCH  15  16
ENDBRANCH  14  15
ENDBRANCH  12  14
ENDBRANCH   3  12
BRANCH   1  24
HETATM   24  N   UNL     1      39.552 -15.036   3.093  1.00  0.00    -0.277 NA
HETATM   25  H   UNL     1      39.513 -15.880   3.663  1.00  0.00     0.129 HD
BRANCH  24  26
HETATM   26  C   UNL     1      39.893 -13.865   3.902  1.00  0.00     0.093 C 
BRANCH  26  27
HETATM   27  C   UNL     1      39.944 -14.247   5.383  1.00  0.00     0.010 C 
HETATM   28  C   UNL     1      40.551 -15.623   5.618  1.00  0.00     0.006 C 
ENDBRANCH  26  27
ENDBRANCH  24  26
ENDBRANCH   1  24
TORSDOF 8
ENDMDL
MODEL 7
REMARK VINA RESULT:      -7.2      1.805      4.483
REMARK  8 active torsions:
REMARK  status: ('A' for Active; 'I' for Inactive)
REMARK    1  A    between atoms: C_2  and  C_3 
REMARK    2  A    between atoms: C_3  and  N_4 
REMARK    3  A    between atoms: N_4  and  C_5 
REMARK    4  A    between atoms: C_7  and  N_8 
REMARK    5  A    between atoms: N_8  and  C_9 
REMARK    6  A    between atoms: C_9  and  C_10 
REMARK    7  A    between atoms: C_10  and  C_11 
REMARK    8  A    between atoms: C_12  and  O_13 
ROOT
HETATM    1  C   UNL     1      44.117 -18.350   4.368  1.00  0.00     0.119 A 
HETATM    2  N   UNL     1      43.561 -17.348   3.659  1.00  0.00    -0.207 NA
HETATM    3  C   UNL     1      43.129 -17.625   2.423  1.00  0.00     0.181 A 
HETATM    4  N   UNL     1      43.247 -18.823   1.861  1.00  0.00    -0.330 N 
HETATM    5  H   UNL     1      42.960 -18.909   0.896  1.00  0.00     0.168 HD
HETATM    6  C   UNL     1      43.761 -19.858   2.531  1.00  0.00     0.048 A 
HETATM    7  C   UNL     1      44.218 -19.659   3.849  1.00  0.00     0.031 A 
HETATM    8  C   UNL     1      43.838 -21.121   1.926  1.00  0.00     0.030 A 
HETATM    9  C   UNL     1      44.357 -22.206   2.632  1.00  0.00     0.002 A 
HETATM   10  C   UNL     1      44.801 -22.034   3.940  1.00  0.00     0.001 A 
HETATM   11  C   UNL     1      44.733 -20.778   4.545  1.00  0.00     0.017 A 
ENDROOT
BRANCH   3  12
HETATM   12  N   UNL     1      42.617 -16.583   1.671  1.00  0.00    -0.262 NA
HETATM   13  H   UNL     1      42.610 -15.768   2.294  1.00  0.00     0.130 HD
BRANCH  12  14
HETATM   14  C   UNL     1      41.320 -16.783   1.013  1.00  0.00     0.100 C 
BRANCH  14  15
HETATM   15  C   UNL     1      40.136 -16.507   1.950  1.00  0.00     0.056 C 
BRANCH  15  16
HETATM   16  C   UNL     1      39.620 -15.086   2.082  1.00  0.00    -0.024 A 
HETATM   17  C   UNL     1      40.169 -14.264   3.092  1.00  0.00     0.074 A 
HETATM   18  C   UNL     1      39.732 -12.944   3.238  1.00  0.00     0.037 A 
HETATM   19  C   UNL     1      38.745 -12.432   2.397  1.00  0.00     0.003 A 
HETATM   20  C   UNL     1      38.188 -13.236   1.409  1.00  0.00     0.001 A 
HETATM   21  C   UNL     1      38.619 -14.554   1.252  1.00  0.00     0.010 A 
BRANCH  17  22
HETATM   22  O   UNL     1      41.132 -14.851   3.875  1.00  0.00    -0.355 OA
HETATM   23  C   UNL     1      42.189 -14.017   4.338  1.00  0.00     0.210 C 
ENDBRANCH  17  22
ENDBRANCH  15  16
ENDBRANCH  14  15
ENDBRANCH  12  14
ENDBRANCH   3  12
BRANCH   1  24
HETATM   24  N   UNL     1      44.566 -18.094   5.671  1.00  0.00    -0.277 NA
HETATM   25  H   UNL     1      45.583 -18.094   5.709  1.00  0.00     0.129 HD
BRANCH  24  26
HETATM   26  C   UNL     1      44.010 -16.918   6.341  1.00  0.00     0.093 C 
BRANCH  26  27
HETATM   27  C   UNL     1      42.836 -17.329   7.233  1.00  0.00     0.010 C 
HETATM   28  C   UNL     1      41.486 -16.925   6.659  1.00  0.00     0.006 C 
ENDBRANCH  26  27
ENDBRANCH  24  26
ENDBRANCH   1  24
TORSDOF 8
ENDMDL
MODEL 8
REMARK VINA RESULT:      -7.2      4.430      7.735
REMARK  8 active torsions:
REMARK  status: ('A' for Active; 'I' for Inactive)
REMARK    1  A    between atoms: C_2  and  C_3 
REMARK    2  A    between atoms: C_3  and  N_4 
REMARK    3  A    between atoms: N_4  and  C_5 
REMARK    4  A    between atoms: C_7  and  N_8 
REMARK    5  A    between atoms: N_8  and  C_9 
REMARK    6  A    between atoms: C_9  and  C_10 
REMARK    7  A    between atoms: C_10  and  C_11 
REMARK    8  A    between atoms: C_12  and  O_13 
ROOT
HETATM    1  C   UNL     1      41.191 -14.599  -2.486  1.00  0.00     0.119 A 
HETATM    2  N   UNL     1      41.062 -15.322  -1.356  1.00  0.00    -0.207 NA
HETATM    3  C   UNL     1      41.489 -14.771  -0.214  1.00  0.00     0.181 A 
HETATM    4  N   UNL     1      42.051 -13.569  -0.149  1.00  0.00    -0.330 N 
HETATM    5  H   UNL     1      42.410 -13.277   0.750  1.00  0.00     0.168 HD
HETATM    6  C   UNL     1      42.173 -12.799  -1.233  1.00  0.00     0.048 A 
HETATM    7  C   UNL     1      41.727 -13.292  -2.475  1.00  0.00     0.031 A 
HETATM    8  C   UNL     1      42.735 -11.518  -1.128  1.00  0.00     0.030 A 
HETATM    9  C   UNL     1      42.846 -10.707  -2.257  1.00  0.00     0.002 A 
HETATM   10  C   UNL     1      42.397 -11.169  -3.491  1.00  0.00     0.001 A 
HETATM   11  C   UNL     1      41.843 -12.446  -3.602  1.00  0.00     0.017 A 
ENDROOT
BRANCH   3  12
HETATM   12  N   UNL     1      41.417 -15.537   0.936  1.00  0.00    -0.262 NA
HETATM   13  H   UNL     1      42.085 -15.117   1.592  1.00  0.00     0.130 HD
BRANCH  12  14
HETATM   14  C   UNL     1      41.609 -16.987   0.810  1.00  0.00     0.100 C 
BRANCH  14  15
HETATM   15  C   UNL     1      43.086 -17.394   0.898  1.00  0.00     0.056 C 
BRANCH  15  16
HETATM   16  C   UNL     1      43.546 -18.241   2.070  1.00  0.00    -0.024 A 
HETATM   17  C   UNL     1      43.730 -17.610   3.322  1.00  0.00     0.074 A 
HETATM   18  C   UNL     1      44.138 -18.356   4.432  1.00  0.00     0.037 A 
HETATM   19  C   UNL     1      44.377 -19.725   4.310  1.00  0.00     0.003 A 
HETATM   20  C   UNL     1      44.214 -20.353   3.081  1.00  0.00     0.001 A 
HETATM   21  C   UNL     1      43.803 -19.618   1.968  1.00  0.00     0.010 A 
BRANCH  17  22
HETATM   22  O   UNL     1      43.474 -16.261   3.349  1.00  0.00    -0.355 OA
HETATM   23  C   UNL     1      42.723 -15.764   4.451  1.00  0.00     0.210 C 
ENDBRANCH  17  22
ENDBRANCH  15  16
ENDBRANCH  14  15
ENDBRANCH  12  14
ENDBRANCH   3  12
BRANCH   1  24
HETATM   24  N   UNL     1      40.740 -15.143  -3.697  1.00  0.00    -0.277 NA
HETATM   25  H   UNL     1      41.524 -15.349  -4.314  1.00  0.00     0.129 HD
BRANCH  24  26
HETATM   26  C   UNL     1      39.822 -16.279  -3.609  1.00  0.00     0.093 C 
BRANCH  26  27
HETATM   27  C   UNL     1      38.507 -15.946  -4.317  1.00  0.00     0.010 C 
HETATM   28  C   UNL     1      37.580 -15.083  -3.471  1.00  0.00     0.006 C 
ENDBRANCH  26  27
ENDBRANCH  24  26
ENDBRANCH   1  24
TORSDOF 8
ENDMDL
MODEL 9
REMARK VINA RESULT:      -7.0      3.352      6.252
REMARK  8 active torsions:
REMARK  status: ('A' for Active; 'I' for Inactive)
REMARK    1  A    between atoms: C_2  and  C_3 
REMARK    2  A    between atoms: C_3  and  N_4 
REMARK    3  A    between atoms: N_4  and  C_5 
REMARK    4  A    between atoms: C_7  and  N_8 
REMARK    5  A    between atoms: N_8  and  C_9 
REMARK    6  A    between atoms: C_9  and  C_10 
REMARK    7  A    between atoms: C_10  and  C_11 
REMARK    8  A    between atoms: C_12  and  O_13 
ROOT
HETATM    1  C   UNL     1      41.867 -17.483   4.365  1.00  0.00     0.119 A 
HETATM    2  N   UNL     1      40.981 -16.888   3.541  1.00  0.00    -0.207 NA
HETATM    3  C   UNL     1      41.034 -17.201   2.241  1.00  0.00     0.181 A 
HETATM    4  N   UNL     1      41.926 -18.042   1.729  1.00  0.00    -0.330 N 
HETATM    5  H   UNL     1      41.931 -18.152   0.724  1.00  0.00     0.168 HD
HETATM    6  C   UNL     1      42.803 -18.683   2.506  1.00  0.00     0.048 A 
HETATM    7  C   UNL     1      42.801 -18.430   3.892  1.00  0.00     0.031 A 
HETATM    8  C   UNL     1      43.708 -19.595   1.943  1.00  0.00     0.030 A 
HETATM    9  C   UNL     1      44.612 -20.277   2.756  1.00  0.00     0.002 A 
HETATM   10  C   UNL     1      44.616 -20.053   4.130  1.00  0.00     0.001 A 
HETATM   11  C   UNL     1      43.723 -19.142   4.695  1.00  0.00     0.017 A 
ENDROOT
BRANCH   3  12
HETATM   12  N   UNL     1      40.169 -16.543   1.385  1.00  0.00    -0.262 NA
HETATM   13  H   UNL     1      40.300 -16.982   0.467  1.00  0.00     0.130 HD
BRANCH  12  14
HETATM   14  C   UNL     1      40.256 -15.079   1.311  1.00  0.00     0.100 C 
BRANCH  14  15
HETATM   15  C   UNL     1      41.560 -14.600   0.659  1.00  0.00     0.056 C 
BRANCH  15  16
HETATM   16  C   UNL     1      41.545 -14.203  -0.806  1.00  0.00    -0.024 A 
HETATM   17  C   UNL     1      42.065 -12.937  -1.163  1.00  0.00     0.074 A 
HETATM   18  C   UNL     1      42.083 -12.538  -2.503  1.00  0.00     0.037 A 
HETATM   19  C   UNL     1      41.579 -13.379  -3.495  1.00  0.00     0.003 A 
HETATM   20  C   UNL     1      41.052 -14.619  -3.154  1.00  0.00     0.001 A 
HETATM   21  C   UNL     1      41.033 -15.029  -1.820  1.00  0.00     0.010 A 
BRANCH  17  22
HETATM   22  O   UNL     1      42.536 -12.175  -0.122  1.00  0.00    -0.355 OA
HETATM   23  C   UNL     1      42.511 -10.762  -0.289  1.00  0.00     0.210 C 
ENDBRANCH  17  22
ENDBRANCH  15  16
ENDBRANCH  14  15
ENDBRANCH  12  14
ENDBRANCH   3  12
BRANCH   1  24
HETATM   24  N   UNL     1      41.827 -17.186   5.734  1.00  0.00    -0.277 NA
HETATM   25  H   UNL     1      42.523 -17.729   6.242  1.00  0.00     0.129 HD
BRANCH  24  26
HETATM   26  C   UNL     1      41.884 -15.771   6.105  1.00  0.00     0.093 C 
BRANCH  26  27
HETATM   27  C   UNL     1      43.303 -15.234   5.905  1.00  0.00     0.010 C 
HETATM   28  C   UNL     1      44.339 -15.970   6.744  1.00  0.00     0.006 C 
ENDBRANCH  26  27
ENDBRANCH  24  26
ENDBRANCH   1  24
TORSDOF 8
ENDMDL
MODEL 10
REMARK VINA RESULT:      -7.0      1.935      2.685
REMARK  8 active torsions:
REMARK  status: ('A' for Active; 'I' for Inactive)
REMARK    1  A    between atoms: C_2  and  C_3 
REMARK    2  A    between atoms: C_3  and  N_4 
REMARK    3  A    between atoms: N_4  and  C_5 
REMARK    4  A    between atoms: C_7  and  N_8 
REMARK    5  A    between atoms: N_8  and  C_9 
REMARK    6  A    between atoms: C_9  and  C_10 
REMARK    7  A    between atoms: C_10  and  C_11 
REMARK    8  A    between atoms: C_12  and  O_13 
ROOT
HETATM    1  C   UNL     1      43.789 -18.587   2.732  1.00  0.00     0.119 A 
HETATM    2  N   UNL     1      43.834 -17.584   3.632  1.00  0.00    -0.207 NA
HETATM    3  C   UNL     1      44.157 -17.894   4.893  1.00  0.00     0.181 A 
HETATM    4  N   UNL     1      44.408 -19.134   5.298  1.00  0.00    -0.330 N 
HETATM    5  H   UNL     1      44.566 -19.272   6.286  1.00  0.00     0.168 HD
HETATM    6  C   UNL     1      44.409 -20.158   4.440  1.00  0.00     0.048 A 
HETATM    7  C   UNL     1      44.102 -19.917   3.087  1.00  0.00     0.031 A 
HETATM    8  C   UNL     1      44.715 -21.452   4.889  1.00  0.00     0.030 A 
HETATM    9  C   UNL     1      44.734 -22.519   3.991  1.00  0.00     0.002 A 
HETATM   10  C   UNL     1      44.449 -22.299   2.647  1.00  0.00     0.001 A 
HETATM   11  C   UNL     1      44.137 -21.015   2.196  1.00  0.00     0.017 A 
ENDROOT
BRANCH   3  12
HETATM   12  N   UNL     1      44.141 -16.877   5.830  1.00  0.00    -0.262 NA
HETATM   13  H   UNL     1      44.292 -17.332   6.737  1.00  0.00     0.130 HD
BRANCH  12  14
HETATM   14  C   UNL     1      42.977 -15.982   5.853  1.00  0.00     0.100 C 
BRANCH  14  15
HETATM   15  C   UNL     1      43.363 -14.510   5.658  1.00  0.00     0.056 C 
BRANCH  15  16
HETATM   16  C   UNL     1      42.743 -13.733   4.511  1.00  0.00    -0.024 A 
HETATM   17  C   UNL     1      41.860 -12.672   4.819  1.00  0.00     0.074 A 
HETATM   18  C   UNL     1      41.278 -11.922   3.792  1.00  0.00     0.037 A 
HETATM   19  C   UNL     1      41.555 -12.222   2.459  1.00  0.00     0.003 A 
HETATM   20  C   UNL     1      42.409 -13.271   2.144  1.00  0.00     0.001 A 
HETATM   21  C   UNL     1      42.999 -14.024   3.161  1.00  0.00     0.010 A 
BRANCH  17  22
HETATM   22  O   UNL     1      41.644 -12.451   6.157  1.00  0.00    -0.355 OA
HETATM   23  C   UNL     1      40.430 -11.803   6.519  1.00  0.00     0.210 C 
ENDBRANCH  17  22
ENDBRANCH  15  16
ENDBRANCH  14  15
ENDBRANCH  12  14
ENDBRANCH   3  12
BRANCH   1  24
HETATM   24  N   UNL     1      43.468 -18.291   1.400  1.00  0.00    -0.277 NA
HETATM   25  H   UNL     1      42.926 -19.047   0.984  1.00  0.00     0.129 HD
BRANCH  24  26
HETATM   26  C   UNL     1      42.848 -16.990   1.143  1.00  0.00     0.093 C 
BRANCH  26  27
HETATM   27  C   UNL     1      41.344 -17.161   0.919  1.00  0.00     0.010 C 
HETATM   28  C   UNL     1      40.514 -16.739   2.123  1.00  0.00     0.006 C 
ENDBRANCH  26  27
ENDBRANCH  24  26
ENDBRANCH   1  24
TORSDOF 8
ENDMDL
