MODEL 1
REMARK VINA RESULT:      -8.6      0.000      0.000
REMARK  6 active torsions:
REMARK  status: ('A' for Active; 'I' for Inactive)
REMARK    1  A    between atoms: O_2  and  C_3 
REMARK    2  A    between atoms: C_4  and  C_5 
REMARK    3  A    between atoms: C_5  and  N_6 
REMARK    4  A    between atoms: N_6  and  C_7 
REMARK    5  A    between atoms: C_9  and  N_10 
REMARK    6  A    between atoms: N_10  and  C_11 
ROOT
HETATM    1  C   UNL     1      44.541 -18.373   5.320  1.00  0.00     0.181 A 
HETATM    2  N   UNL     1      43.982 -17.678   4.324  1.00  0.00    -0.207 NA
HETATM    3  C   UNL     1      43.679 -18.331   3.190  1.00  0.00     0.119 A 
HETATM    4  C   UNL     1      43.940 -19.711   3.041  1.00  0.00     0.031 A 
HETATM    5  C   UNL     1      44.538 -20.369   4.136  1.00  0.00     0.048 A 
HETATM    6  N   UNL     1      44.809 -19.673   5.248  1.00  0.00    -0.330 N 
HETATM    7  H   UNL     1      45.170 -20.119   6.082  1.00  0.00     0.168 HD
HETATM    8  C   UNL     1      43.627 -20.478   1.896  1.00  0.00     0.017 A 
HETATM    9  C   UNL     1      43.922 -21.843   1.841  1.00  0.00     0.001 A 
HETATM   10  C   UNL     1      44.525 -22.471   2.926  1.00  0.00     0.002 A 
HETATM   11  C   UNL     1      44.830 -21.741   4.075  1.00  0.00     0.030 A 
ENDROOT
BRANCH   1  12
HETATM   12  N   UNL     1      44.744 -17.696   6.504  1.00  0.00    -0.258 NA
HETATM   13  H   UNL     1      45.457 -18.223   7.012  1.00  0.00     0.130 HD
BRANCH  12  14
HETATM   14  C   UNL     1      43.586 -17.420   7.351  1.00  0.00     0.136 C 
BRANCH  14  15
HETATM   15  C   UNL     1      42.730 -16.315   6.769  1.00  0.00    -0.012 A 
HETATM   16  C   UNL     1      43.313 -15.062   6.490  1.00  0.00     0.075 A 
HETATM   17  C   UNL     1      42.549 -14.052   5.894  1.00  0.00     0.037 A 
HETATM   18  C   UNL     1      41.218 -14.285   5.546  1.00  0.00     0.003 A 
HETATM   19  C   UNL     1      40.641 -15.524   5.792  1.00  0.00     0.001 A 
HETATM   20  C   UNL     1      41.391 -16.534   6.393  1.00  0.00     0.011 A 
BRANCH  16  21
HETATM   21  O   UNL     1      44.628 -14.918   6.854  1.00  0.00    -0.355 OA
HETATM   22  C   UNL     1      44.987 -13.664   7.434  1.00  0.00     0.210 C 
ENDBRANCH  16  21
ENDBRANCH  14  15
ENDBRANCH  12  14
ENDBRANCH   1  12
BRANCH   3  23
HETATM   23  N   UNL     1      43.020 -17.632   2.169  1.00  0.00    -0.272 NA
HETATM   24  H   UNL     1      43.690 -17.275   1.489  1.00  0.00     0.129 HD
BRANCH  23  25
HETATM   25  C   UNL     1      42.060 -16.600   2.563  1.00  0.00     0.061 C 
HETATM   26  C   UNL     1      42.229 -15.361   1.685  1.00  0.00     0.020 C 
HETATM   27  C   UNL     1      40.922 -14.613   1.893  1.00  0.00     0.002 C 
HETATM   28  C   UNL     1      39.861 -15.703   1.986  1.00  0.00     0.002 C 
HETATM   29  C   UNL     1      40.607 -17.003   2.291  1.00  0.00     0.020 C 
ENDBRANCH  23  25
ENDBRANCH   3  23
TORSDOF 6
ENDMDL
MODEL 2
REMARK VINA RESULT:      -8.1      2.363      6.001
REMARK  6 active torsions:
REMARK  status: ('A' for Active; 'I' for Inactive)
REMARK    1  A    between atoms: O_2  and  C_3 
REMARK    2  A    between atoms: C_4  and  C_5 
REMARK    3  A    between atoms: C_5  and  N_6 
REMARK    4  A    between atoms: N_6  and  C_7 
REMARK    5  A    between atoms: C_9  and  N_10 
REMARK    6  A    between atoms: N_10  and  C_11 
ROOT
HETATM    1  C   UNL     1      41.913 -17.933   2.061  1.00  0.00     0.181 A 
HETATM    2  N   UNL     1      41.417 -17.239   1.031  1.00  0.00    -0.207 NA
HETATM    3  C   UNL     1      40.763 -16.095   1.296  1.00  0.00     0.119 A 
HETATM    4  C   UNL     1      40.598 -15.630   2.619  1.00  0.00     0.031 A 
HETATM    5  C   UNL     1      41.146 -16.424   3.648  1.00  0.00     0.048 A 
HETATM    6  N   UNL     1      41.798 -17.550   3.328  1.00  0.00    -0.330 N 
HETATM    7  H   UNL     1      42.269 -18.111   4.027  1.00  0.00     0.168 HD
HETATM    8  C   UNL     1      39.952 -14.426   2.983  1.00  0.00     0.017 A 
HETATM    9  C   UNL     1      39.839 -14.046   4.322  1.00  0.00     0.001 A 
HETATM   10  C   UNL     1      40.373 -14.851   5.324  1.00  0.00     0.002 A 
HETATM   11  C   UNL     1      41.030 -16.035   4.992  1.00  0.00     0.030 A 
ENDROOT
BRANCH   1  12
HETATM   12  N   UNL     1      42.665 -19.045   1.746  1.00  0.00    -0.258 NA
HETATM   13  H   UNL     1      42.161 -19.845   2.135  1.00  0.00     0.130 HD
BRANCH  12  14
HETATM   14  C   UNL     1      44.071 -19.064   2.139  1.00  0.00     0.136 C 
BRANCH  14  15
HETATM   15  C   UNL     1      44.374 -20.239   3.045  1.00  0.00    -0.012 A 
HETATM   16  C   UNL     1      44.520 -20.026   4.431  1.00  0.00     0.075 A 
HETATM   17  C   UNL     1      44.736 -21.112   5.287  1.00  0.00     0.037 A 
HETATM   18  C   UNL     1      44.781 -22.412   4.782  1.00  0.00     0.003 A 
HETATM   19  C   UNL     1      44.611 -22.637   3.422  1.00  0.00     0.001 A 
HETATM   20  C   UNL     1      44.404 -21.560   2.560  1.00  0.00     0.011 A 
BRANCH  16  21
HETATM   21  O   UNL     1      44.453 -18.720   4.847  1.00  0.00    -0.355 OA
HETATM   22  C   UNL     1      44.891 -18.461   6.180  1.00  0.00     0.210 C 
ENDBRANCH  16  21
ENDBRANCH  14  15
ENDBRANCH  12  14
ENDBRANCH   1  12
BRANCH   3  23
HETATM   23  N   UNL     1      40.308 -15.318   0.222  1.00  0.00    -0.272 NA
HETATM   24  H   UNL     1      39.416 -15.670  -0.122  1.00  0.00     0.129 HD
BRANCH  23  25
HETATM   25  C   UNL     1      41.241 -15.066  -0.877  1.00  0.00     0.061 C 
HETATM   26  C   UNL     1      40.519 -15.183  -2.218  1.00  0.00     0.020 C 
HETATM   27  C   UNL     1      41.456 -14.466  -3.176  1.00  0.00     0.002 C 
HETATM   28  C   UNL     1      42.009 -13.293  -2.374  1.00  0.00     0.002 C 
HETATM   29  C   UNL     1      41.754 -13.622  -0.902  1.00  0.00     0.020 C 
ENDBRANCH  23  25
ENDBRANCH   3  23
TORSDOF 6
ENDMDL
MODEL 3
REMARK VINA RESULT:      -7.7      2.495      6.380
REMARK  6 active torsions:
REMARK  status: ('A' for Active; 'I' for Inactive)
REMARK    1  A    between atoms: O_2  and  C_3 
REMARK    2  A    between atoms: C_4  and  C_5 
REMARK    3  A    between atoms: C_5  and  N_6 
REMARK    4  A    between atoms: N_6  and  C_7 
REMARK    5  A    between atoms: C_9  and  N_10 
REMARK    6  A    between atoms: N_10  and  C_11 
ROOT
HETATM    1  C   UNL     1      42.610 -16.576   1.358  1.00  0.00     0.181 A 
HETATM    2  N   UNL     1      41.860 -16.229   2.409  1.00  0.00    -0.207 NA
HETATM    3  C   UNL     1      40.768 -15.478   2.186  1.00  0.00     0.119 A 
HETATM    4  C   UNL     1      40.414 -15.062   0.884  1.00  0.00     0.031 A 
HETATM    5  C   UNL     1      41.262 -15.465  -0.169  1.00  0.00     0.048 A 
HETATM    6  N   UNL     1      42.331 -16.223   0.108  1.00  0.00    -0.330 N 
HETATM    7  H   UNL     1      42.925 -16.595  -0.623  1.00  0.00     0.168 HD
HETATM    8  C   UNL     1      39.269 -14.298   0.558  1.00  0.00     0.017 A 
HETATM    9  C   UNL     1      38.998 -13.934  -0.763  1.00  0.00     0.001 A 
HETATM   10  C   UNL     1      39.855 -14.329  -1.786  1.00  0.00     0.002 A 
HETATM   11  C   UNL     1      40.982 -15.097  -1.494  1.00  0.00     0.030 A 
ENDROOT
BRANCH   1  12
HETATM   12  N   UNL     1      43.663 -17.430   1.611  1.00  0.00    -0.258 NA
HETATM   13  H   UNL     1      43.592 -18.178   0.917  1.00  0.00     0.130 HD
BRANCH  12  14
HETATM   14  C   UNL     1      43.807 -17.972   2.960  1.00  0.00     0.136 C 
BRANCH  14  15
HETATM   15  C   UNL     1      44.064 -19.463   2.929  1.00  0.00    -0.012 A 
HETATM   16  C   UNL     1      44.602 -20.097   4.067  1.00  0.00     0.075 A 
HETATM   17  C   UNL     1      44.786 -21.485   4.076  1.00  0.00     0.037 A 
HETATM   18  C   UNL     1      44.412 -22.253   2.972  1.00  0.00     0.003 A 
HETATM   19  C   UNL     1      43.856 -21.643   1.855  1.00  0.00     0.001 A 
HETATM   20  C   UNL     1      43.677 -20.260   1.835  1.00  0.00     0.011 A 
BRANCH  16  21
HETATM   21  O   UNL     1      44.934 -19.272   5.112  1.00  0.00    -0.355 OA
HETATM   22  C   UNL     1      44.214 -19.474   6.328  1.00  0.00     0.210 C 
ENDBRANCH  16  21
ENDBRANCH  14  15
ENDBRANCH  12  14
ENDBRANCH   1  12
BRANCH   3  23
HETATM   23  N   UNL     1      39.930 -15.175   3.267  1.00  0.00    -0.272 NA
HETATM   24  H   UNL     1      38.969 -15.048   2.952  1.00  0.00     0.129 HD
BRANCH  23  25
HETATM   25  C   UNL     1      40.343 -14.092   4.162  1.00  0.00     0.061 C 
HETATM   26  C   UNL     1      39.540 -12.827   3.864  1.00  0.00     0.020 C 
HETATM   27  C   UNL     1      39.738 -11.992   5.117  1.00  0.00     0.002 C 
HETATM   28  C   UNL     1      39.732 -12.999   6.261  1.00  0.00     0.002 C 
HETATM   29  C   UNL     1      39.994 -14.367   5.628  1.00  0.00     0.020 C 
ENDBRANCH  23  25
ENDBRANCH   3  23
TORSDOF 6
ENDMDL
MODEL 4
REMARK VINA RESULT:      -7.7      2.968      6.112
REMARK  6 active torsions:
REMARK  status: ('A' for Active; 'I' for Inactive)
REMARK    1  A    between atoms: O_2  and  C_3 
REMARK    2  A    between atoms: C_4  and  C_5 
REMARK    3  A    between atoms: C_5  and  N_6 
REMARK    4  A    between atoms: N_6  and  C_7 
REMARK    5  A    between atoms: C_9  and  N_10 
REMARK    6  A    between atoms: N_10  and  C_11 
ROOT
HETATM    1  C   UNL     1      41.502 -17.373   1.805  1.00  0.00     0.181 A 
HETATM    2  N   UNL     1      41.513 -16.865   3.041  1.00  0.00    -0.207 NA
HETATM    3  C   UNL     1      42.279 -17.467   3.966  1.00  0.00     0.119 A 
HETATM    4  C   UNL     1      43.053 -18.606   3.653  1.00  0.00     0.031 A 
HETATM    5  C   UNL     1      42.981 -19.084   2.328  1.00  0.00     0.048 A 
HETATM    6  N   UNL     1      42.211 -18.438   1.443  1.00  0.00    -0.330 N 
HETATM    7  H   UNL     1      42.186 -18.701   0.465  1.00  0.00     0.168 HD
HETATM    8  C   UNL     1      43.906 -19.282   4.556  1.00  0.00     0.017 A 
HETATM    9  C   UNL     1      44.638 -20.402   4.155  1.00  0.00     0.001 A 
HETATM   10  C   UNL     1      44.542 -20.867   2.846  1.00  0.00     0.002 A 
HETATM   11  C   UNL     1      43.720 -20.209   1.931  1.00  0.00     0.030 A 
ENDROOT
BRANCH   1  12
HETATM   12  N   UNL     1      40.788 -16.671   0.858  1.00  0.00    -0.258 NA
HETATM   13  H   UNL     1      40.374 -17.371   0.239  1.00  0.00     0.130 HD
BRANCH  12  14
HETATM   14  C   UNL     1      41.481 -15.636   0.095  1.00  0.00     0.136 C 
BRANCH  14  15
HETATM   15  C   UNL     1      40.643 -15.159  -1.073  1.00  0.00    -0.012 A 
HETATM   16  C   UNL     1      39.566 -14.279  -0.839  1.00  0.00     0.075 A 
HETATM   17  C   UNL     1      38.823 -13.781  -1.916  1.00  0.00     0.037 A 
HETATM   18  C   UNL     1      39.158 -14.126  -3.225  1.00  0.00     0.003 A 
HETATM   19  C   UNL     1      40.234 -14.970  -3.469  1.00  0.00     0.001 A 
HETATM   20  C   UNL     1      40.975 -15.479  -2.403  1.00  0.00     0.011 A 
BRANCH  16  21
HETATM   21  O   UNL     1      39.309 -13.983   0.475  1.00  0.00    -0.355 OA
HETATM   22  C   UNL     1      37.957 -14.140   0.904  1.00  0.00     0.210 C 
ENDBRANCH  16  21
ENDBRANCH  14  15
ENDBRANCH  12  14
ENDBRANCH   1  12
BRANCH   3  23
HETATM   23  N   UNL     1      42.361 -16.898   5.244  1.00  0.00    -0.272 NA
HETATM   24  H   UNL     1      41.434 -16.650   5.586  1.00  0.00     0.129 HD
BRANCH  23  25
HETATM   25  C   UNL     1      43.312 -15.802   5.439  1.00  0.00     0.061 C 
HETATM   26  C   UNL     1      42.564 -14.507   5.752  1.00  0.00     0.020 C 
HETATM   27  C   UNL     1      43.643 -13.627   6.361  1.00  0.00     0.002 C 
HETATM   28  C   UNL     1      44.497 -14.578   7.191  1.00  0.00     0.002 C 
HETATM   29  C   UNL     1      44.187 -15.987   6.682  1.00  0.00     0.020 C 
ENDBRANCH  23  25
ENDBRANCH   3  23
TORSDOF 6
ENDMDL
MODEL 5
REMARK VINA RESULT:      -7.7      2.522      6.506
REMARK  6 active torsions:
REMARK  status: ('A' for Active; 'I' for Inactive)
REMARK    1  A    between atoms: O_2  and  C_3 
REMARK    2  A    between atoms: C_4  and  C_5 
REMARK    3  A    between atoms: C_5  and  N_6 
REMARK    4  A    between atoms: N_6  and  C_7 
REMARK    5  A    between atoms: C_9  and  N_10 
REMARK    6  A    between atoms: N_10  and  C_11 
ROOT
HETATM    1  C   UNL     1      41.197 -16.784   3.187  1.00  0.00     0.181 A 
HETATM    2  N   UNL     1      40.841 -16.582   1.914  1.00  0.00    -0.207 NA
HETATM    3  C   UNL     1      40.208 -15.438   1.608  1.00  0.00     0.119 A 
HETATM    4  C   UNL     1      39.918 -14.469   2.594  1.00  0.00     0.031 A 
HETATM    5  C   UNL     1      40.320 -14.762   3.914  1.00  0.00     0.048 A 
HETATM    6  N   UNL     1      40.960 -15.912   4.162  1.00  0.00    -0.330 N 
HETATM    7  H   UNL     1      41.331 -16.130   5.079  1.00  0.00     0.168 HD
HETATM    8  C   UNL     1      39.282 -13.230   2.353  1.00  0.00     0.017 A 
HETATM    9  C   UNL     1      39.039 -12.331   3.395  1.00  0.00     0.001 A 
HETATM   10  C   UNL     1      39.431 -12.644   4.693  1.00  0.00     0.002 A 
HETATM   11  C   UNL     1      40.075 -13.853   4.955  1.00  0.00     0.030 A 
ENDROOT
BRANCH   1  12
HETATM   12  N   UNL     1      41.935 -17.919   3.446  1.00  0.00    -0.258 NA
HETATM   13  H   UNL     1      41.994 -17.991   4.464  1.00  0.00     0.130 HD
BRANCH  12  14
HETATM   14  C   UNL     1      43.254 -18.043   2.830  1.00  0.00     0.136 C 
BRANCH  14  15
HETATM   15  C   UNL     1      43.739 -19.477   2.852  1.00  0.00    -0.012 A 
HETATM   16  C   UNL     1      44.375 -19.976   4.007  1.00  0.00     0.075 A 
HETATM   17  C   UNL     1      44.771 -21.317   4.065  1.00  0.00     0.037 A 
HETATM   18  C   UNL     1      44.516 -22.175   2.995  1.00  0.00     0.003 A 
HETATM   19  C   UNL     1      43.866 -21.702   1.862  1.00  0.00     0.001 A 
HETATM   20  C   UNL     1      43.475 -20.365   1.792  1.00  0.00     0.011 A 
BRANCH  16  21
HETATM   21  O   UNL     1      44.580 -19.070   5.017  1.00  0.00    -0.355 OA
HETATM   22  C   UNL     1      44.114 -19.452   6.311  1.00  0.00     0.210 C 
ENDBRANCH  16  21
ENDBRANCH  14  15
ENDBRANCH  12  14
ENDBRANCH   1  12
BRANCH   3  23
HETATM   23  N   UNL     1      39.901 -15.179   0.265  1.00  0.00    -0.272 NA
HETATM   24  H   UNL     1      39.245 -15.871  -0.093  1.00  0.00     0.129 HD
BRANCH  23  25
HETATM   25  C   UNL     1      41.017 -14.976  -0.659  1.00  0.00     0.061 C 
HETATM   26  C   UNL     1      40.530 -15.077  -2.104  1.00  0.00     0.020 C 
HETATM   27  C   UNL     1      41.646 -14.409  -2.889  1.00  0.00     0.002 C 
HETATM   28  C   UNL     1      42.103 -13.252  -2.009  1.00  0.00     0.002 C 
HETATM   29  C   UNL     1      41.588 -13.556  -0.601  1.00  0.00     0.020 C 
ENDBRANCH  23  25
ENDBRANCH   3  23
TORSDOF 6
ENDMDL
MODEL 6
REMARK VINA RESULT:      -7.7      2.060      4.549
REMARK  6 active torsions:
REMARK  status: ('A' for Active; 'I' for Inactive)
REMARK    1  A    between atoms: O_2  and  C_3 
REMARK    2  A    between atoms: C_4  and  C_5 
REMARK    3  A    between atoms: C_5  and  N_6 
REMARK    4  A    between atoms: N_6  and  C_7 
REMARK    5  A    between atoms: C_9  and  N_10 
REMARK    6  A    between atoms: N_10  and  C_11 
ROOT
HETATM    1  C   UNL     1      43.323 -17.879   1.658  1.00  0.00     0.181 A 
HETATM    2  N   UNL     1      43.541 -17.341   2.862  1.00  0.00    -0.207 NA
HETATM    3  C   UNL     1      43.952 -18.152   3.852  1.00  0.00     0.119 A 
HETATM    4  C   UNL     1      44.148 -19.534   3.638  1.00  0.00     0.031 A 
HETATM    5  C   UNL     1      43.889 -20.023   2.340  1.00  0.00     0.048 A 
HETATM    6  N   UNL     1      43.494 -19.168   1.387  1.00  0.00    -0.330 N 
HETATM    7  H   UNL     1      43.368 -19.462   0.426  1.00  0.00     0.168 HD
HETATM    8  C   UNL     1      44.605 -20.451   4.613  1.00  0.00     0.017 A 
HETATM    9  C   UNL     1      44.773 -21.803   4.307  1.00  0.00     0.001 A 
HETATM   10  C   UNL     1      44.498 -22.269   3.025  1.00  0.00     0.002 A 
HETATM   11  C   UNL     1      44.063 -21.383   2.039  1.00  0.00     0.030 A 
ENDROOT
BRANCH   1  12
HETATM   12  N   UNL     1      43.003 -17.002   0.642  1.00  0.00    -0.258 NA
HETATM   13  H   UNL     1      43.472 -16.122   0.871  1.00  0.00     0.130 HD
BRANCH  12  14
HETATM   14  C   UNL     1      41.592 -16.784   0.335  1.00  0.00     0.136 C 
BRANCH  14  15
HETATM   15  C   UNL     1      41.033 -15.614   1.116  1.00  0.00    -0.012 A 
HETATM   16  C   UNL     1      41.195 -14.306   0.616  1.00  0.00     0.075 A 
HETATM   17  C   UNL     1      40.628 -13.221   1.295  1.00  0.00     0.037 A 
HETATM   18  C   UNL     1      39.878 -13.427   2.454  1.00  0.00     0.003 A 
HETATM   19  C   UNL     1      39.689 -14.714   2.942  1.00  0.00     0.001 A 
HETATM   20  C   UNL     1      40.257 -15.800   2.276  1.00  0.00     0.011 A 
BRANCH  16  21
HETATM   21  O   UNL     1      41.937 -14.190  -0.532  1.00  0.00    -0.355 OA
HETATM   22  C   UNL     1      41.307 -13.524  -1.626  1.00  0.00     0.210 C 
ENDBRANCH  16  21
ENDBRANCH  14  15
ENDBRANCH  12  14
ENDBRANCH   1  12
BRANCH   3  23
HETATM   23  N   UNL     1      44.260 -17.589   5.097  1.00  0.00    -0.272 NA
HETATM   24  H   UNL     1      44.882 -18.201   5.623  1.00  0.00     0.129 HD
BRANCH  23  25
HETATM   25  C   UNL     1      43.147 -17.123   5.925  1.00  0.00     0.061 C 
HETATM   26  C   UNL     1      42.802 -15.676   5.578  1.00  0.00     0.020 C 
HETATM   27  C   UNL     1      41.404 -15.509   6.151  1.00  0.00     0.002 C 
HETATM   28  C   UNL     1      40.718 -16.847   5.899  1.00  0.00     0.002 C 
HETATM   29  C   UNL     1      41.835 -17.856   5.627  1.00  0.00     0.020 C 
ENDBRANCH  23  25
ENDBRANCH   3  23
TORSDOF 6
ENDMDL
MODEL 7
REMARK VINA RESULT:      -7.5      2.527      4.113
REMARK  6 active torsions:
REMARK  status: ('A' for Active; 'I' for Inactive)
REMARK    1  A    between atoms: O_2  and  C_3 
REMARK    2  A    between atoms: C_4  and  C_5 
REMARK    3  A    between atoms: C_5  and  N_6 
REMARK    4  A    between atoms: N_6  and  C_7 
REMARK    5  A    between atoms: C_9  and  N_10 
REMARK    6  A    between atoms: N_10  and  C_11 
ROOT
HETATM    1  C   UNL     1      44.020 -15.289   6.829  1.00  0.00     0.181 A 
HETATM    2  N   UNL     1      43.512 -14.787   5.699  1.00  0.00    -0.207 NA
HETATM    3  C   UNL     1      43.325 -15.623   4.664  1.00  0.00     0.119 A 
HETATM    4  C   UNL     1      43.652 -16.994   4.756  1.00  0.00     0.031 A 
HETATM    5  C   UNL     1      44.190 -17.442   5.980  1.00  0.00     0.048 A 
HETATM    6  N   UNL     1      44.344 -16.568   6.984  1.00  0.00    -0.330 N 
HETATM    7  H   UNL     1      44.657 -16.860   7.902  1.00  0.00     0.168 HD
HETATM    8  C   UNL     1      43.461 -17.945   3.727  1.00  0.00     0.017 A 
HETATM    9  C   UNL     1      43.813 -19.284   3.911  1.00  0.00     0.001 A 
HETATM   10  C   UNL     1      44.355 -19.704   5.122  1.00  0.00     0.002 A 
HETATM   11  C   UNL     1      44.540 -18.789   6.159  1.00  0.00     0.030 A 
ENDROOT
BRANCH   1  12
HETATM   12  N   UNL     1      44.102 -14.426   7.902  1.00  0.00    -0.258 NA
HETATM   13  H   UNL     1      43.146 -14.117   8.090  1.00  0.00     0.130 HD
BRANCH  12  14
HETATM   14  C   UNL     1      45.016 -13.289   7.808  1.00  0.00     0.136 C 
BRANCH  14  15
HETATM   15  C   UNL     1      44.692 -12.236   8.846  1.00  0.00    -0.012 A 
HETATM   16  C   UNL     1      43.504 -11.486   8.725  1.00  0.00     0.075 A 
HETATM   17  C   UNL     1      43.161 -10.554   9.711  1.00  0.00     0.037 A 
HETATM   18  C   UNL     1      43.974 -10.380  10.832  1.00  0.00     0.003 A 
HETATM   19  C   UNL     1      45.133 -11.133  10.975  1.00  0.00     0.001 A 
HETATM   20  C   UNL     1      45.487 -12.057   9.994  1.00  0.00     0.011 A 
BRANCH  16  21
HETATM   21  O   UNL     1      42.757 -11.724   7.599  1.00  0.00    -0.355 OA
HETATM   22  C   UNL     1      41.681 -10.819   7.354  1.00  0.00     0.210 C 
ENDBRANCH  16  21
ENDBRANCH  14  15
ENDBRANCH  12  14
ENDBRANCH   1  12
BRANCH   3  23
HETATM   23  N   UNL     1      42.720 -15.127   3.501  1.00  0.00    -0.272 NA
HETATM   24  H   UNL     1      43.179 -14.271   3.196  1.00  0.00     0.129 HD
BRANCH  23  25
HETATM   25  C   UNL     1      41.264 -14.978   3.504  1.00  0.00     0.061 C 
HETATM   26  C   UNL     1      40.871 -13.630   2.903  1.00  0.00     0.020 C 
HETATM   27  C   UNL     1      39.403 -13.821   2.560  1.00  0.00     0.002 C 
HETATM   28  C   UNL     1      39.302 -15.262   2.075  1.00  0.00     0.002 C 
HETATM   29  C   UNL     1      40.561 -15.972   2.574  1.00  0.00     0.020 C 
ENDBRANCH  23  25
ENDBRANCH   3  23
TORSDOF 6
ENDMDL
MODEL 8
REMARK VINA RESULT:      -7.5      2.765      5.739
REMARK  6 active torsions:
REMARK  status: ('A' for Active; 'I' for Inactive)
REMARK    1  A    between atoms: O_2  and  C_3 
REMARK    2  A    between atoms: C_4  and  C_5 
REMARK    3  A    between atoms: C_5  and  N_6 
REMARK    4  A    between atoms: N_6  and  C_7 
REMARK    5  A    between atoms: C_9  and  N_10 
REMARK    6  A    between atoms: N_10  and  C_11 
ROOT
HETATM    1  C   UNL     1      41.716 -17.534   1.880  1.00  0.00     0.181 A 
HETATM    2  N   UNL     1      41.745 -17.043   3.123  1.00  0.00    -0.207 NA
HETATM    3  C   UNL     1      42.483 -17.689   4.041  1.00  0.00     0.119 A 
HETATM    4  C   UNL     1      43.210 -18.855   3.714  1.00  0.00     0.031 A 
HETATM    5  C   UNL     1      43.121 -19.311   2.383  1.00  0.00     0.048 A 
HETATM    6  N   UNL     1      42.380 -18.622   1.505  1.00  0.00    -0.330 N 
HETATM    7  H   UNL     1      42.346 -18.871   0.524  1.00  0.00     0.168 HD
HETATM    8  C   UNL     1      44.033 -19.577   4.610  1.00  0.00     0.017 A 
HETATM    9  C   UNL     1      44.718 -20.721   4.194  1.00  0.00     0.001 A 
HETATM   10  C   UNL     1      44.606 -21.164   2.879  1.00  0.00     0.002 A 
HETATM   11  C   UNL     1      43.814 -20.460   1.971  1.00  0.00     0.030 A 
ENDROOT
BRANCH   1  12
HETATM   12  N   UNL     1      41.032 -16.790   0.941  1.00  0.00    -0.258 NA
HETATM   13  H   UNL     1      41.312 -17.160   0.030  1.00  0.00     0.130 HD
BRANCH  12  14
HETATM   14  C   UNL     1      41.162 -15.336   0.983  1.00  0.00     0.136 C 
BRANCH  14  15
HETATM   15  C   UNL     1      39.920 -14.657   0.445  1.00  0.00    -0.012 A 
HETATM   16  C   UNL     1      39.834 -14.361  -0.931  1.00  0.00     0.075 A 
HETATM   17  C   UNL     1      38.666 -13.792  -1.453  1.00  0.00     0.037 A 
HETATM   18  C   UNL     1      37.572 -13.541  -0.625  1.00  0.00     0.003 A 
HETATM   19  C   UNL     1      37.635 -13.853   0.727  1.00  0.00     0.001 A 
HETATM   20  C   UNL     1      38.797 -14.412   1.257  1.00  0.00     0.011 A 
BRANCH  16  21
HETATM   21  O   UNL     1      40.949 -14.648  -1.677  1.00  0.00    -0.355 OA
HETATM   22  C   UNL     1      40.776 -15.594  -2.731  1.00  0.00     0.210 C 
ENDBRANCH  16  21
ENDBRANCH  14  15
ENDBRANCH  12  14
ENDBRANCH   1  12
BRANCH   3  23
HETATM   23  N   UNL     1      42.586 -17.141   5.326  1.00  0.00    -0.272 NA
HETATM   24  H   UNL     1      41.662 -16.998   5.730  1.00  0.00     0.129 HD
BRANCH  23  25
HETATM   25  C   UNL     1      43.428 -15.955   5.493  1.00  0.00     0.061 C 
HETATM   26  C   UNL     1      42.562 -14.732   5.792  1.00  0.00     0.020 C 
HETATM   27  C   UNL     1      43.557 -13.742   6.375  1.00  0.00     0.002 C 
HETATM   28  C   UNL     1      44.506 -14.592   7.212  1.00  0.00     0.002 C 
HETATM   29  C   UNL     1      44.328 -16.033   6.730  1.00  0.00     0.020 C 
ENDBRANCH  23  25
ENDBRANCH   3  23
TORSDOF 6
ENDMDL
MODEL 9
REMARK VINA RESULT:      -7.4      3.132      6.965
REMARK  6 active torsions:
REMARK  status: ('A' for Active; 'I' for Inactive)
REMARK    1  A    between atoms: O_2  and  C_3 
REMARK    2  A    between atoms: C_4  and  C_5 
REMARK    3  A    between atoms: C_5  and  N_6 
REMARK    4  A    between atoms: N_6  and  C_7 
REMARK    5  A    between atoms: C_9  and  N_10 
REMARK    6  A    between atoms: N_10  and  C_11 
ROOT
HETATM    1  C   UNL     1      41.192 -16.436   2.188  1.00  0.00     0.181 A 
HETATM    2  N   UNL     1      42.269 -17.210   2.023  1.00  0.00    -0.207 NA
HETATM    3  C   UNL     1      42.879 -17.689   3.121  1.00  0.00     0.119 A 
HETATM    4  C   UNL     1      42.404 -17.387   4.417  1.00  0.00     0.031 A 
HETATM    5  C   UNL     1      41.266 -16.558   4.504  1.00  0.00     0.048 A 
HETATM    6  N   UNL     1      40.691 -16.119   3.377  1.00  0.00    -0.330 N 
HETATM    7  H   UNL     1      39.832 -15.583   3.390  1.00  0.00     0.168 HD
HETATM    8  C   UNL     1      42.966 -17.871   5.620  1.00  0.00     0.017 A 
HETATM    9  C   UNL     1      42.425 -17.520   6.860  1.00  0.00     0.001 A 
HETATM   10  C   UNL     1      41.311 -16.689   6.925  1.00  0.00     0.002 A 
HETATM   11  C   UNL     1      40.727 -16.211   5.752  1.00  0.00     0.030 A 
ENDROOT
BRANCH   1  12
HETATM   12  N   UNL     1      40.533 -16.048   1.040  1.00  0.00    -0.258 NA
HETATM   13  H   UNL     1      40.302 -16.911   0.542  1.00  0.00     0.130 HD
BRANCH  12  14
HETATM   14  C   UNL     1      41.188 -15.087   0.156  1.00  0.00     0.136 C 
BRANCH  14  15
HETATM   15  C   UNL     1      40.379 -14.857  -1.102  1.00  0.00    -0.012 A 
HETATM   16  C   UNL     1      39.227 -14.046  -1.047  1.00  0.00     0.075 A 
HETATM   17  C   UNL     1      38.506 -13.773  -2.215  1.00  0.00     0.037 A 
HETATM   18  C   UNL     1      38.935 -14.276  -3.444  1.00  0.00     0.003 A 
HETATM   19  C   UNL     1      40.084 -15.055  -3.515  1.00  0.00     0.001 A 
HETATM   20  C   UNL     1      40.804 -15.339  -2.355  1.00  0.00     0.011 A 
BRANCH  16  21
HETATM   21  O   UNL     1      38.879 -13.583   0.197  1.00  0.00    -0.355 OA
HETATM   22  C   UNL     1      37.580 -13.947   0.663  1.00  0.00     0.210 C 
ENDBRANCH  16  21
ENDBRANCH  14  15
ENDBRANCH  12  14
ENDBRANCH   1  12
BRANCH   3  23
HETATM   23  N   UNL     1      43.960 -18.565   2.961  1.00  0.00    -0.272 NA
HETATM   24  H   UNL     1      44.527 -18.292   2.160  1.00  0.00     0.129 HD
BRANCH  23  25
HETATM   25  C   UNL     1      43.674 -20.001   2.946  1.00  0.00     0.061 C 
HETATM   26  C   UNL     1      43.770 -20.542   1.521  1.00  0.00     0.020 C 
HETATM   27  C   UNL     1      43.909 -22.040   1.732  1.00  0.00     0.002 C 
HETATM   28  C   UNL     1      44.781 -22.179   2.974  1.00  0.00     0.002 C 
HETATM   29  C   UNL     1      44.731 -20.826   3.685  1.00  0.00     0.020 C 
ENDBRANCH  23  25
ENDBRANCH   3  23
TORSDOF 6
ENDMDL
MODEL 10
REMARK VINA RESULT:      -7.2      2.059      5.812
REMARK  6 active torsions:
REMARK  status: ('A' for Active; 'I' for Inactive)
REMARK    1  A    between atoms: O_2  and  C_3 
REMARK    2  A    between atoms: C_4  and  C_5 
REMARK    3  A    between atoms: C_5  and  N_6 
REMARK    4  A    between atoms: N_6  and  C_7 
REMARK    5  A    between atoms: C_9  and  N_10 
REMARK    6  A    between atoms: N_10  and  C_11 
ROOT
HETATM    1  C   UNL     1      40.785 -16.706   2.877  1.00  0.00     0.181 A 
HETATM    2  N   UNL     1      41.769 -17.458   2.373  1.00  0.00    -0.207 NA
HETATM    3  C   UNL     1      42.818 -17.740   3.163  1.00  0.00     0.119 A 
HETATM    4  C   UNL     1      42.890 -17.262   4.490  1.00  0.00     0.031 A 
HETATM    5  C   UNL     1      41.814 -16.470   4.943  1.00  0.00     0.048 A 
HETATM    6  N   UNL     1      40.788 -16.229   4.117  1.00  0.00    -0.330 N 
HETATM    7  H   UNL     1      39.962 -15.729   4.424  1.00  0.00     0.168 HD
HETATM    8  C   UNL     1      43.941 -17.535   5.396  1.00  0.00     0.017 A 
HETATM    9  C   UNL     1      43.924 -17.019   6.694  1.00  0.00     0.001 A 
HETATM   10  C   UNL     1      42.861 -16.228   7.118  1.00  0.00     0.002 A 
HETATM   11  C   UNL     1      41.803 -15.956   6.250  1.00  0.00     0.030 A 
ENDROOT
BRANCH   1  12
HETATM   12  N   UNL     1      39.679 -16.523   2.074  1.00  0.00    -0.258 NA
HETATM   13  H   UNL     1      39.915 -16.938   1.170  1.00  0.00     0.130 HD
BRANCH  12  14
HETATM   14  C   UNL     1      39.158 -15.168   1.913  1.00  0.00     0.136 C 
BRANCH  14  15
HETATM   15  C   UNL     1      40.119 -14.297   1.133  1.00  0.00    -0.012 A 
HETATM   16  C   UNL     1      40.903 -13.346   1.816  1.00  0.00     0.075 A 
HETATM   17  C   UNL     1      41.842 -12.579   1.116  1.00  0.00     0.037 A 
HETATM   18  C   UNL     1      42.028 -12.769  -0.254  1.00  0.00     0.003 A 
HETATM   19  C   UNL     1      41.281 -13.722  -0.933  1.00  0.00     0.001 A 
HETATM   20  C   UNL     1      40.337 -14.485  -0.246  1.00  0.00     0.011 A 
BRANCH  16  21
HETATM   21  O   UNL     1      40.665 -13.228   3.162  1.00  0.00    -0.355 OA
HETATM   22  C   UNL     1      41.180 -12.055   3.793  1.00  0.00     0.210 C 
ENDBRANCH  16  21
ENDBRANCH  14  15
ENDBRANCH  12  14
ENDBRANCH   1  12
BRANCH   3  23
HETATM   23  N   UNL     1      43.818 -18.592   2.674  1.00  0.00    -0.272 NA
HETATM   24  H   UNL     1      44.094 -18.316   1.733  1.00  0.00     0.129 HD
BRANCH  23  25
HETATM   25  C   UNL     1      43.582 -20.034   2.759  1.00  0.00     0.061 C 
HETATM   26  C   UNL     1      43.874 -20.695   1.413  1.00  0.00     0.020 C 
HETATM   27  C   UNL     1      44.034 -22.161   1.779  1.00  0.00     0.002 C 
HETATM   28  C   UNL     1      44.748 -22.150   3.126  1.00  0.00     0.002 C 
HETATM   29  C   UNL     1      44.565 -20.743   3.696  1.00  0.00     0.020 C 
ENDBRANCH  23  25
ENDBRANCH   3  23
TORSDOF 6
ENDMDL
