MODEL 1
REMARK VINA RESULT:     -10.6      0.000      0.000
REMARK  4 active torsions:
REMARK  status: ('A' for Active; 'I' for Inactive)
REMARK    1  A    between atoms: C_2  and  C_3 
REMARK    2  A    between atoms: N_16  and  C_17 
REMARK    3  A    between atoms: C_17  and  C_18 
REMARK       I    between atoms: C_18  and  N_19 
REMARK    4  A    between atoms: N_19  and  C_20 
ROOT
HETATM    1  C   UNL     1      43.431 -15.366   6.333  1.00  0.00     0.054 C 
HETATM    2  C   UNL     1      43.135 -15.800   4.895  1.00  0.00     0.140 A 
HETATM    3  N   UNL     1      43.715 -14.839   3.980  1.00  0.00    -0.321 N 
HETATM    4  C   UNL     1      42.776 -14.155   3.251  1.00  0.00     0.326 A 
HETATM    5  O   UNL     1      43.050 -13.286   2.442  1.00  0.00    -0.247 OA
HETATM    6  N   UNL     1      41.543 -14.601   3.602  1.00  0.00    -0.259 N 
HETATM    7  C   UNL     1      41.639 -15.560   4.570  1.00  0.00     0.261 A 
HETATM    8  O   UNL     1      40.686 -16.123   5.093  1.00  0.00    -0.270 OA
HETATM    9  H   UNL     1      44.701 -14.635   3.885  1.00  0.00     0.165 HD
ENDROOT
BRANCH   6  10
HETATM   10  C   UNL     1      40.309 -14.093   3.039  1.00  0.00     0.240 C 
BRANCH  10  11
HETATM   11  C   UNL     1      39.967 -14.775   1.715  1.00  0.00     0.240 C 
HETATM   12  N   UNL     1      40.491 -14.150   0.603  1.00  0.00    -0.324 N 
HETATM   13  H   UNL     1      41.194 -13.421   0.732  1.00  0.00     0.169 HD
HETATM   14  O   UNL     1      39.392 -15.862   1.709  1.00  0.00    -0.271 OA
BRANCH  12  15
HETATM   15  C   UNL     1      40.288 -14.479  -0.760  1.00  0.00     0.064 A 
HETATM   16  C   UNL     1      39.265 -13.778  -1.418  1.00  0.00     0.093 A 
HETATM   17  C   UNL     1      39.011 -14.074  -2.775  1.00  0.00    -0.005 A 
HETATM   18  N   UNL     1      38.552 -12.842  -0.747  1.00  0.00    -0.258 NA
HETATM   19  C   UNL     1      37.996 -13.363  -3.429  1.00  0.00     0.015 A 
HETATM   20  C   UNL     1      39.763 -15.056  -3.440  1.00  0.00     0.014 A 
HETATM   21  C   UNL     1      37.269 -12.402  -2.741  1.00  0.00     0.020 A 
HETATM   22  C   UNL     1      37.580 -12.182  -1.412  1.00  0.00     0.117 A 
HETATM   23  C   UNL     1      40.765 -15.748  -2.766  1.00  0.00     0.003 A 
HETATM   24  C   UNL     1      41.028 -15.460  -1.428  1.00  0.00     0.032 A 
ENDBRANCH  12  15
ENDBRANCH  10  11
ENDBRANCH   6  10
BRANCH   2  25
HETATM   25  C   UNL     1      43.557 -17.238   4.611  1.00  0.00    -0.020 A 
HETATM   26  C   UNL     1      43.212 -17.905   3.421  1.00  0.00     0.022 A 
HETATM   27  C   UNL     1      43.619 -19.230   3.169  1.00  0.00    -0.025 A 
HETATM   28  C   UNL     1      44.388 -19.915   4.132  1.00  0.00    -0.026 A 
HETATM   29  C   UNL     1      43.275 -19.886   1.974  1.00  0.00     0.012 A 
HETATM   30  C   UNL     1      44.726 -19.262   5.323  1.00  0.00     0.013 A 
HETATM   31  C   UNL     1      44.795 -21.235   3.879  1.00  0.00     0.012 A 
HETATM   32  C   UNL     1      44.315 -17.946   5.558  1.00  0.00     0.011 A 
HETATM   33  C   UNL     1      44.448 -21.871   2.687  1.00  0.00     0.001 A 
HETATM   34  C   UNL     1      43.688 -21.198   1.735  1.00  0.00     0.001 A 
ENDBRANCH   2  25
TORSDOF 4
ENDMDL
MODEL 2
REMARK VINA RESULT:     -10.5      1.211      1.844
REMARK  4 active torsions:
REMARK  status: ('A' for Active; 'I' for Inactive)
REMARK    1  A    between atoms: C_2  and  C_3 
REMARK    2  A    between atoms: N_16  and  C_17 
REMARK    3  A    between atoms: C_17  and  C_18 
REMARK       I    between atoms: C_18  and  N_19 
REMARK    4  A    between atoms: N_19  and  C_20 
ROOT
HETATM    1  C   UNL     1      43.659 -15.286   6.327  1.00  0.00     0.054 C 
HETATM    2  C   UNL     1      43.214 -15.749   4.937  1.00  0.00     0.140 A 
HETATM    3  N   UNL     1      43.690 -14.806   3.947  1.00  0.00    -0.321 N 
HETATM    4  C   UNL     1      42.676 -14.139   3.309  1.00  0.00     0.326 A 
HETATM    5  O   UNL     1      42.859 -13.286   2.458  1.00  0.00    -0.247 OA
HETATM    6  N   UNL     1      41.489 -14.580   3.798  1.00  0.00    -0.259 N 
HETATM    7  C   UNL     1      41.691 -15.518   4.769  1.00  0.00     0.261 A 
HETATM    8  O   UNL     1      40.801 -16.072   5.401  1.00  0.00    -0.270 OA
HETATM    9  H   UNL     1      44.659 -14.603   3.744  1.00  0.00     0.165 HD
ENDROOT
BRANCH   6  10
HETATM   10  C   UNL     1      40.201 -14.084   3.359  1.00  0.00     0.240 C 
BRANCH  10  11
HETATM   11  C   UNL     1      39.879 -14.527   1.932  1.00  0.00     0.240 C 
HETATM   12  N   UNL     1      39.904 -13.509   1.003  1.00  0.00    -0.324 N 
HETATM   13  H   UNL     1      40.298 -12.605   1.271  1.00  0.00     0.169 HD
HETATM   14  O   UNL     1      39.758 -15.722   1.667  1.00  0.00    -0.271 OA
BRANCH  12  15
HETATM   15  C   UNL     1      39.571 -13.574  -0.372  1.00  0.00     0.064 A 
HETATM   16  C   UNL     1      40.591 -13.219  -1.271  1.00  0.00     0.093 A 
HETATM   17  C   UNL     1      40.310 -13.254  -2.655  1.00  0.00    -0.005 A 
HETATM   18  N   UNL     1      41.807 -12.858  -0.800  1.00  0.00    -0.258 NA
HETATM   19  C   UNL     1      41.334 -12.911  -3.547  1.00  0.00     0.015 A 
HETATM   20  C   UNL     1      39.035 -13.627  -3.111  1.00  0.00     0.014 A 
HETATM   21  C   UNL     1      42.582 -12.544  -3.061  1.00  0.00     0.020 A 
HETATM   22  C   UNL     1      42.766 -12.530  -1.692  1.00  0.00     0.117 A 
HETATM   23  C   UNL     1      38.035 -13.963  -2.203  1.00  0.00     0.003 A 
HETATM   24  C   UNL     1      38.302 -13.937  -0.836  1.00  0.00     0.032 A 
ENDBRANCH  12  15
ENDBRANCH  10  11
ENDBRANCH   6  10
BRANCH   2  25
HETATM   25  C   UNL     1      43.609 -17.192   4.639  1.00  0.00    -0.020 A 
HETATM   26  C   UNL     1      43.227 -17.850   3.455  1.00  0.00     0.022 A 
HETATM   27  C   UNL     1      43.609 -19.179   3.189  1.00  0.00    -0.025 A 
HETATM   28  C   UNL     1      44.391 -19.879   4.132  1.00  0.00    -0.026 A 
HETATM   29  C   UNL     1      43.228 -19.826   2.001  1.00  0.00     0.012 A 
HETATM   30  C   UNL     1      44.766 -19.234   5.316  1.00  0.00     0.013 A 
HETATM   31  C   UNL     1      44.773 -21.203   3.865  1.00  0.00     0.012 A 
HETATM   32  C   UNL     1      44.380 -17.914   5.566  1.00  0.00     0.011 A 
HETATM   33  C   UNL     1      44.389 -21.830   2.680  1.00  0.00     0.001 A 
HETATM   34  C   UNL     1      43.616 -21.143   1.748  1.00  0.00     0.001 A 
ENDBRANCH   2  25
TORSDOF 4
ENDMDL
MODEL 3
REMARK VINA RESULT:     -10.3      4.766      7.706
REMARK  4 active torsions:
REMARK  status: ('A' for Active; 'I' for Inactive)
REMARK    1  A    between atoms: C_2  and  C_3 
REMARK    2  A    between atoms: N_16  and  C_17 
REMARK    3  A    between atoms: C_17  and  C_18 
REMARK       I    between atoms: C_18  and  N_19 
REMARK    4  A    between atoms: N_19  and  C_20 
ROOT
HETATM    1  C   UNL     1      43.289 -17.043   8.177  1.00  0.00     0.054 C 
HETATM    2  C   UNL     1      43.446 -16.765   6.679  1.00  0.00     0.140 A 
HETATM    3  N   UNL     1      44.439 -15.729   6.490  1.00  0.00    -0.321 N 
HETATM    4  C   UNL     1      43.919 -14.575   5.963  1.00  0.00     0.326 A 
HETATM    5  O   UNL     1      44.578 -13.574   5.747  1.00  0.00    -0.247 OA
HETATM    6  N   UNL     1      42.589 -14.752   5.755  1.00  0.00    -0.259 N 
HETATM    7  C   UNL     1      42.205 -16.000   6.154  1.00  0.00     0.261 A 
HETATM    8  O   UNL     1      41.059 -16.427   6.106  1.00  0.00    -0.270 OA
HETATM    9  H   UNL     1      45.416 -15.795   6.743  1.00  0.00     0.165 HD
ENDROOT
BRANCH   6  10
HETATM   10  C   UNL     1      41.713 -13.732   5.216  1.00  0.00     0.240 C 
BRANCH  10  11
HETATM   11  C   UNL     1      41.178 -12.808   6.309  1.00  0.00     0.240 C 
HETATM   12  N   UNL     1      42.122 -11.959   6.847  1.00  0.00    -0.324 N 
HETATM   13  H   UNL     1      43.026 -11.867   6.380  1.00  0.00     0.169 HD
HETATM   14  O   UNL     1      39.972 -12.767   6.550  1.00  0.00    -0.271 OA
BRANCH  12  15
HETATM   15  C   UNL     1      41.967 -11.052   7.923  1.00  0.00     0.064 A 
HETATM   16  C   UNL     1      42.985 -11.064   8.891  1.00  0.00     0.093 A 
HETATM   17  C   UNL     1      42.876 -10.188   9.993  1.00  0.00    -0.005 A 
HETATM   18  N   UNL     1      44.038 -11.903   8.749  1.00  0.00    -0.258 NA
HETATM   19  C   UNL     1      43.900 -10.196  10.950  1.00  0.00     0.015 A 
HETATM   20  C   UNL     1      41.767  -9.335  10.115  1.00  0.00     0.014 A 
HETATM   21  C   UNL     1      44.980 -11.055  10.801  1.00  0.00     0.020 A 
HETATM   22  C   UNL     1      45.002 -11.884   9.695  1.00  0.00     0.117 A 
HETATM   23  C   UNL     1      40.764  -9.347   9.150  1.00  0.00     0.003 A 
HETATM   24  C   UNL     1      40.863 -10.203   8.056  1.00  0.00     0.032 A 
ENDBRANCH  12  15
ENDBRANCH  10  11
ENDBRANCH   6  10
BRANCH   2  25
HETATM   25  C   UNL     1      43.724 -18.027   5.869  1.00  0.00    -0.020 A 
HETATM   26  C   UNL     1      43.504 -18.095   4.480  1.00  0.00     0.022 A 
HETATM   27  C   UNL     1      43.776 -19.264   3.743  1.00  0.00    -0.025 A 
HETATM   28  C   UNL     1      44.278 -20.403   4.408  1.00  0.00    -0.026 A 
HETATM   29  C   UNL     1      43.560 -19.322   2.356  1.00  0.00     0.012 A 
HETATM   30  C   UNL     1      44.489 -20.346   5.790  1.00  0.00     0.013 A 
HETATM   31  C   UNL     1      44.551 -21.567   3.672  1.00  0.00     0.012 A 
HETATM   32  C   UNL     1      44.214 -19.177   6.508  1.00  0.00     0.011 A 
HETATM   33  C   UNL     1      44.333 -21.607   2.295  1.00  0.00     0.001 A 
HETATM   34  C   UNL     1      43.837 -20.485   1.637  1.00  0.00     0.001 A 
ENDBRANCH   2  25
TORSDOF 4
ENDMDL
MODEL 4
REMARK VINA RESULT:     -10.2      3.808      8.054
REMARK  4 active torsions:
REMARK  status: ('A' for Active; 'I' for Inactive)
REMARK    1  A    between atoms: C_2  and  C_3 
REMARK    2  A    between atoms: N_16  and  C_17 
REMARK    3  A    between atoms: C_17  and  C_18 
REMARK       I    between atoms: C_18  and  N_19 
REMARK    4  A    between atoms: N_19  and  C_20 
ROOT
HETATM    1  C   UNL     1      40.818 -15.927   1.940  1.00  0.00     0.054 C 
HETATM    2  C   UNL     1      41.450 -16.013   3.332  1.00  0.00     0.140 A 
HETATM    3  N   UNL     1      40.411 -15.889   4.333  1.00  0.00    -0.321 N 
HETATM    4  C   UNL     1      40.528 -14.751   5.090  1.00  0.00     0.326 A 
HETATM    5  O   UNL     1      39.746 -14.442   5.971  1.00  0.00    -0.247 OA
HETATM    6  N   UNL     1      41.622 -14.062   4.675  1.00  0.00    -0.259 N 
HETATM    7  C   UNL     1      42.229 -14.710   3.638  1.00  0.00     0.261 A 
HETATM    8  O   UNL     1      43.224 -14.307   3.049  1.00  0.00    -0.270 OA
HETATM    9  H   UNL     1      39.641 -16.529   4.468  1.00  0.00     0.165 HD
ENDROOT
BRANCH   6  10
HETATM   10  C   UNL     1      42.047 -12.801   5.246  1.00  0.00     0.240 C 
BRANCH  10  11
HETATM   11  C   UNL     1      43.011 -13.004   6.415  1.00  0.00     0.240 C 
HETATM   12  N   UNL     1      42.991 -11.991   7.350  1.00  0.00    -0.324 N 
HETATM   13  H   UNL     1      42.243 -11.297   7.310  1.00  0.00     0.169 HD
HETATM   14  O   UNL     1      43.623 -14.064   6.536  1.00  0.00    -0.271 OA
BRANCH  12  15
HETATM   15  C   UNL     1      43.817 -11.839   8.491  1.00  0.00     0.064 A 
HETATM   16  C   UNL     1      43.313 -11.016   9.511  1.00  0.00     0.093 A 
HETATM   17  C   UNL     1      44.101 -10.821  10.667  1.00  0.00    -0.005 A 
HETATM   18  N   UNL     1      42.098 -10.436   9.370  1.00  0.00    -0.258 NA
HETATM   19  C   UNL     1      43.589 -10.008  11.687  1.00  0.00     0.015 A 
HETATM   20  C   UNL     1      45.360 -11.431  10.780  1.00  0.00     0.014 A 
HETATM   21  C   UNL     1      42.341  -9.416  11.541  1.00  0.00     0.020 A 
HETATM   22  C   UNL     1      41.642  -9.656  10.374  1.00  0.00     0.117 A 
HETATM   23  C   UNL     1      45.845 -12.234   9.752  1.00  0.00     0.003 A 
HETATM   24  C   UNL     1      45.075 -12.438   8.609  1.00  0.00     0.032 A 
ENDBRANCH  12  15
ENDBRANCH  10  11
ENDBRANCH   6  10
BRANCH   2  25
HETATM   25  C   UNL     1      42.319 -17.253   3.511  1.00  0.00    -0.020 A 
HETATM   26  C   UNL     1      42.393 -18.270   2.541  1.00  0.00     0.022 A 
HETATM   27  C   UNL     1      43.209 -19.405   2.716  1.00  0.00    -0.025 A 
HETATM   28  C   UNL     1      43.972 -19.536   3.896  1.00  0.00    -0.026 A 
HETATM   29  C   UNL     1      43.282 -20.412   1.739  1.00  0.00     0.012 A 
HETATM   30  C   UNL     1      43.895 -18.534   4.870  1.00  0.00     0.013 A 
HETATM   31  C   UNL     1      44.786 -20.666   4.069  1.00  0.00     0.012 A 
HETATM   32  C   UNL     1      43.081 -17.413   4.681  1.00  0.00     0.011 A 
HETATM   33  C   UNL     1      44.849 -21.656   3.088  1.00  0.00     0.001 A 
HETATM   34  C   UNL     1      44.097 -21.530   1.923  1.00  0.00     0.001 A 
ENDBRANCH   2  25
TORSDOF 4
ENDMDL
MODEL 5
REMARK VINA RESULT:      -9.9      4.194      7.737
REMARK  4 active torsions:
REMARK  status: ('A' for Active; 'I' for Inactive)
REMARK    1  A    between atoms: C_2  and  C_3 
REMARK    2  A    between atoms: N_16  and  C_17 
REMARK    3  A    between atoms: C_17  and  C_18 
REMARK       I    between atoms: C_18  and  N_19 
REMARK    4  A    between atoms: N_19  and  C_20 
ROOT
HETATM    1  C   UNL     1      44.061 -15.428   6.549  1.00  0.00     0.054 C 
HETATM    2  C   UNL     1      43.142 -15.332   5.328  1.00  0.00     0.140 A 
HETATM    3  N   UNL     1      43.400 -14.086   4.637  1.00  0.00    -0.321 N 
HETATM    4  C   UNL     1      42.332 -13.226   4.664  1.00  0.00     0.326 A 
HETATM    5  O   UNL     1      42.346 -12.116   4.163  1.00  0.00    -0.247 OA
HETATM    6  N   UNL     1      41.314 -13.817   5.339  1.00  0.00    -0.259 N 
HETATM    7  C   UNL     1      41.688 -15.053   5.783  1.00  0.00     0.261 A 
HETATM    8  O   UNL     1      40.979 -15.803   6.442  1.00  0.00    -0.270 OA
HETATM    9  H   UNL     1      44.273 -13.823   4.201  1.00  0.00     0.165 HD
ENDROOT
BRANCH   6  10
HETATM   10  C   UNL     1      40.028 -13.191   5.573  1.00  0.00     0.240 C 
BRANCH  10  11
HETATM   11  C   UNL     1      40.011 -12.405   6.883  1.00  0.00     0.240 C 
HETATM   12  N   UNL     1      41.111 -11.596   7.075  1.00  0.00    -0.324 N 
HETATM   13  H   UNL     1      41.745 -11.432   6.291  1.00  0.00     0.169 HD
HETATM   14  O   UNL     1      39.012 -12.420   7.601  1.00  0.00    -0.271 OA
BRANCH  12  15
HETATM   15  C   UNL     1      41.433 -10.815   8.212  1.00  0.00     0.064 A 
HETATM   16  C   UNL     1      42.698 -11.043   8.779  1.00  0.00     0.093 A 
HETATM   17  C   UNL     1      43.066 -10.301   9.922  1.00  0.00    -0.005 A 
HETATM   18  N   UNL     1      43.528 -11.958   8.224  1.00  0.00    -0.258 NA
HETATM   19  C   UNL     1      44.334 -10.524  10.477  1.00  0.00     0.015 A 
HETATM   20  C   UNL     1      42.179  -9.365  10.477  1.00  0.00     0.014 A 
HETATM   21  C   UNL     1      45.185 -11.460   9.904  1.00  0.00     0.020 A 
HETATM   22  C   UNL     1      44.739 -12.147   8.791  1.00  0.00     0.117 A 
HETATM   23  C   UNL     1      40.925  -9.162   9.907  1.00  0.00     0.003 A 
HETATM   24  C   UNL     1      40.553  -9.886   8.776  1.00  0.00     0.032 A 
ENDBRANCH  12  15
ENDBRANCH  10  11
ENDBRANCH   6  10
BRANCH   2  25
HETATM   25  C   UNL     1      43.232 -16.557   4.423  1.00  0.00    -0.020 A 
HETATM   26  C   UNL     1      43.907 -17.731   4.806  1.00  0.00     0.022 A 
HETATM   27  C   UNL     1      43.971 -18.858   3.963  1.00  0.00    -0.025 A 
HETATM   28  C   UNL     1      43.349 -18.815   2.698  1.00  0.00    -0.026 A 
HETATM   29  C   UNL     1      44.643 -20.028   4.356  1.00  0.00     0.012 A 
HETATM   30  C   UNL     1      42.684 -17.648   2.306  1.00  0.00     0.013 A 
HETATM   31  C   UNL     1      43.412 -19.940   1.860  1.00  0.00     0.012 A 
HETATM   32  C   UNL     1      42.629 -16.537   3.154  1.00  0.00     0.011 A 
HETATM   33  C   UNL     1      44.080 -21.095   2.266  1.00  0.00     0.001 A 
HETATM   34  C   UNL     1      44.696 -21.139   3.514  1.00  0.00     0.001 A 
ENDBRANCH   2  25
TORSDOF 4
ENDMDL
MODEL 6
REMARK VINA RESULT:      -9.7      2.603      3.506
REMARK  4 active torsions:
REMARK  status: ('A' for Active; 'I' for Inactive)
REMARK    1  A    between atoms: C_2  and  C_3 
REMARK    2  A    between atoms: N_16  and  C_17 
REMARK    3  A    between atoms: C_17  and  C_18 
REMARK       I    between atoms: C_18  and  N_19 
REMARK    4  A    between atoms: N_19  and  C_20 
ROOT
HETATM    1  C   UNL     1      40.189 -16.648   1.734  1.00  0.00     0.054 C 
HETATM    2  C   UNL     1      40.958 -16.124   2.949  1.00  0.00     0.140 A 
HETATM    3  N   UNL     1      40.018 -15.595   3.914  1.00  0.00    -0.321 N 
HETATM    4  C   UNL     1      40.142 -14.241   4.099  1.00  0.00     0.326 A 
HETATM    5  O   UNL     1      39.434 -13.594   4.849  1.00  0.00    -0.247 OA
HETATM    6  N   UNL     1      41.148 -13.785   3.310  1.00  0.00    -0.259 N 
HETATM    7  C   UNL     1      41.687 -14.807   2.583  1.00  0.00     0.261 A 
HETATM    8  O   UNL     1      42.594 -14.684   1.770  1.00  0.00    -0.270 OA
HETATM    9  H   UNL     1      39.304 -16.125   4.394  1.00  0.00     0.165 HD
ENDROOT
BRANCH   6  10
HETATM   10  C   UNL     1      41.553 -12.396   3.240  1.00  0.00     0.240 C 
BRANCH  10  11
HETATM   11  C   UNL     1      41.284 -11.796   1.860  1.00  0.00     0.240 C 
HETATM   12  N   UNL     1      42.369 -11.820   1.009  1.00  0.00    -0.324 N 
HETATM   13  H   UNL     1      43.185 -12.376   1.267  1.00  0.00     0.169 HD
HETATM   14  O   UNL     1      40.143 -11.465   1.540  1.00  0.00    -0.271 OA
BRANCH  12  15
HETATM   15  C   UNL     1      42.470 -11.271  -0.292  1.00  0.00     0.064 A 
HETATM   16  C   UNL     1      42.109 -12.121  -1.350  1.00  0.00     0.093 A 
HETATM   17  C   UNL     1      42.202 -11.629  -2.671  1.00  0.00    -0.005 A 
HETATM   18  N   UNL     1      41.684 -13.379  -1.087  1.00  0.00    -0.258 NA
HETATM   19  C   UNL     1      41.831 -12.478  -3.722  1.00  0.00     0.015 A 
HETATM   20  C   UNL     1      42.654 -10.321  -2.910  1.00  0.00     0.014 A 
HETATM   21  C   UNL     1      41.392 -13.766  -3.449  1.00  0.00     0.020 A 
HETATM   22  C   UNL     1      41.339 -14.167  -2.128  1.00  0.00     0.117 A 
HETATM   23  C   UNL     1      43.018  -9.499  -1.848  1.00  0.00     0.003 A 
HETATM   24  C   UNL     1      42.926  -9.972  -0.541  1.00  0.00     0.032 A 
ENDBRANCH  12  15
ENDBRANCH  10  11
ENDBRANCH   6  10
BRANCH   2  25
HETATM   25  C   UNL     1      41.912 -17.159   3.537  1.00  0.00    -0.020 A 
HETATM   26  C   UNL     1      42.468 -18.198   2.767  1.00  0.00     0.022 A 
HETATM   27  C   UNL     1      43.356 -19.140   3.322  1.00  0.00    -0.025 A 
HETATM   28  C   UNL     1      43.698 -19.050   4.688  1.00  0.00    -0.026 A 
HETATM   29  C   UNL     1      43.911 -20.170   2.543  1.00  0.00     0.012 A 
HETATM   30  C   UNL     1      43.142 -18.027   5.462  1.00  0.00     0.013 A 
HETATM   31  C   UNL     1      44.585 -19.988   5.239  1.00  0.00     0.012 A 
HETATM   32  C   UNL     1      42.262 -17.099   4.896  1.00  0.00     0.011 A 
HETATM   33  C   UNL     1      45.130 -21.003   4.452  1.00  0.00     0.001 A 
HETATM   34  C   UNL     1      44.792 -21.094   3.104  1.00  0.00     0.001 A 
ENDBRANCH   2  25
TORSDOF 4
ENDMDL
MODEL 7
REMARK VINA RESULT:      -9.6      4.111      8.655
REMARK  4 active torsions:
REMARK  status: ('A' for Active; 'I' for Inactive)
REMARK    1  A    between atoms: C_2  and  C_3 
REMARK    2  A    between atoms: N_16  and  C_17 
REMARK    3  A    between atoms: C_17  and  C_18 
REMARK       I    between atoms: C_18  and  N_19 
REMARK    4  A    between atoms: N_19  and  C_20 
ROOT
HETATM    1  C   UNL     1      39.719  -9.783   5.474  1.00  0.00     0.054 C 
HETATM    2  C   UNL     1      40.620 -10.913   5.978  1.00  0.00     0.140 A 
HETATM    3  N   UNL     1      41.669 -11.152   5.008  1.00  0.00    -0.321 N 
HETATM    4  C   UNL     1      41.587 -12.390   4.423  1.00  0.00     0.326 A 
HETATM    5  O   UNL     1      42.357 -12.783   3.565  1.00  0.00    -0.247 OA
HETATM    6  N   UNL     1      40.524 -13.051   4.949  1.00  0.00    -0.259 N 
HETATM    7  C   UNL     1      39.879 -12.268   5.863  1.00  0.00     0.261 A 
HETATM    8  O   UNL     1      38.873 -12.597   6.478  1.00  0.00    -0.270 OA
HETATM    9  H   UNL     1      42.382 -10.490   4.734  1.00  0.00     0.165 HD
ENDROOT
BRANCH   6  10
HETATM   10  C   UNL     1      40.129 -14.387   4.554  1.00  0.00     0.240 C 
BRANCH  10  11
HETATM   11  C   UNL     1      40.963 -15.456   5.259  1.00  0.00     0.240 C 
HETATM   12  N   UNL     1      42.174 -15.720   4.656  1.00  0.00    -0.324 N 
HETATM   13  H   UNL     1      42.509 -15.090   3.925  1.00  0.00     0.169 HD
HETATM   14  O   UNL     1      40.602 -15.907   6.345  1.00  0.00    -0.271 OA
BRANCH  12  15
HETATM   15  C   UNL     1      43.129 -16.705   5.008  1.00  0.00     0.064 A 
HETATM   16  C   UNL     1      43.297 -17.757   4.093  1.00  0.00     0.093 A 
HETATM   17  C   UNL     1      44.227 -18.774   4.400  1.00  0.00    -0.005 A 
HETATM   18  N   UNL     1      42.574 -17.774   2.948  1.00  0.00    -0.258 NA
HETATM   19  C   UNL     1      44.399 -19.815   3.477  1.00  0.00     0.015 A 
HETATM   20  C   UNL     1      44.956 -18.730   5.599  1.00  0.00     0.014 A 
HETATM   21  C   UNL     1      43.659 -19.829   2.303  1.00  0.00     0.020 A 
HETATM   22  C   UNL     1      42.766 -18.797   2.087  1.00  0.00     0.117 A 
HETATM   23  C   UNL     1      44.766 -17.685   6.498  1.00  0.00     0.003 A 
HETATM   24  C   UNL     1      43.854 -16.674   6.204  1.00  0.00     0.032 A 
ENDBRANCH  12  15
ENDBRANCH  10  11
ENDBRANCH   6  10
BRANCH   2  25
HETATM   25  C   UNL     1      41.145 -10.666   7.389  1.00  0.00    -0.020 A 
HETATM   26  C   UNL     1      42.434 -11.059   7.794  1.00  0.00     0.022 A 
HETATM   27  C   UNL     1      42.909 -10.815   9.098  1.00  0.00    -0.025 A 
HETATM   28  C   UNL     1      42.073 -10.164  10.030  1.00  0.00    -0.026 A 
HETATM   29  C   UNL     1      44.200 -11.205   9.492  1.00  0.00     0.012 A 
HETATM   30  C   UNL     1      40.786  -9.780   9.637  1.00  0.00     0.013 A 
HETATM   31  C   UNL     1      42.548  -9.920  11.329  1.00  0.00     0.012 A 
HETATM   32  C   UNL     1      40.330 -10.029   8.339  1.00  0.00     0.011 A 
HETATM   33  C   UNL     1      43.833 -10.311  11.703  1.00  0.00     0.001 A 
HETATM   34  C   UNL     1      44.659 -10.954  10.786  1.00  0.00     0.001 A 
ENDBRANCH   2  25
TORSDOF 4
ENDMDL
MODEL 8
REMARK VINA RESULT:      -9.4      1.947      2.916
REMARK  4 active torsions:
REMARK  status: ('A' for Active; 'I' for Inactive)
REMARK    1  A    between atoms: C_2  and  C_3 
REMARK    2  A    between atoms: N_16  and  C_17 
REMARK    3  A    between atoms: C_17  and  C_18 
REMARK       I    between atoms: C_18  and  N_19 
REMARK    4  A    between atoms: N_19  and  C_20 
ROOT
HETATM    1  C   UNL     1      43.781 -15.076   2.979  1.00  0.00     0.054 C 
HETATM    2  C   UNL     1      42.925 -16.272   2.550  1.00  0.00     0.140 A 
HETATM    3  N   UNL     1      42.822 -16.289   1.106  1.00  0.00    -0.321 N 
HETATM    4  C   UNL     1      41.545 -16.074   0.655  1.00  0.00     0.326 A 
HETATM    5  O   UNL     1      41.244 -16.026  -0.524  1.00  0.00    -0.247 OA
HETATM    6  N   UNL     1      40.726 -15.916   1.726  1.00  0.00    -0.259 N 
HETATM    7  C   UNL     1      41.437 -16.002   2.888  1.00  0.00     0.261 A 
HETATM    8  O   UNL     1      40.962 -15.874   4.009  1.00  0.00    -0.270 OA
HETATM    9  H   UNL     1      43.592 -16.405   0.461  1.00  0.00     0.165 HD
ENDROOT
BRANCH   6  10
HETATM   10  C   UNL     1      39.304 -15.661   1.625  1.00  0.00     0.240 C 
BRANCH  10  11
HETATM   11  C   UNL     1      39.017 -14.236   1.150  1.00  0.00     0.240 C 
HETATM   12  N   UNL     1      38.962 -14.095  -0.221  1.00  0.00    -0.324 N 
HETATM   13  H   UNL     1      38.929 -14.934  -0.802  1.00  0.00     0.169 HD
HETATM   14  O   UNL     1      38.726 -13.360   1.962  1.00  0.00    -0.271 OA
BRANCH  12  15
HETATM   15  C   UNL     1      38.802 -12.904  -0.969  1.00  0.00     0.064 A 
HETATM   16  C   UNL     1      39.985 -12.287  -1.408  1.00  0.00     0.093 A 
HETATM   17  C   UNL     1      39.885 -11.089  -2.149  1.00  0.00    -0.005 A 
HETATM   18  N   UNL     1      41.183 -12.848  -1.118  1.00  0.00    -0.258 NA
HETATM   19  C   UNL     1      41.068 -10.485  -2.594  1.00  0.00     0.015 A 
HETATM   20  C   UNL     1      38.627 -10.530  -2.428  1.00  0.00     0.014 A 
HETATM   21  C   UNL     1      42.295 -11.063  -2.298  1.00  0.00     0.020 A 
HETATM   22  C   UNL     1      42.300 -12.232  -1.561  1.00  0.00     0.117 A 
HETATM   23  C   UNL     1      37.467 -11.151  -1.973  1.00  0.00     0.003 A 
HETATM   24  C   UNL     1      37.554 -12.336  -1.245  1.00  0.00     0.032 A 
ENDBRANCH  12  15
ENDBRANCH  10  11
ENDBRANCH   6  10
BRANCH   2  25
HETATM   25  C   UNL     1      43.414 -17.591   3.139  1.00  0.00    -0.020 A 
HETATM   26  C   UNL     1      43.468 -18.779   2.386  1.00  0.00     0.022 A 
HETATM   27  C   UNL     1      43.932 -19.988   2.941  1.00  0.00    -0.025 A 
HETATM   28  C   UNL     1      44.352 -20.018   4.287  1.00  0.00    -0.026 A 
HETATM   29  C   UNL     1      43.988 -21.168   2.180  1.00  0.00     0.012 A 
HETATM   30  C   UNL     1      44.292 -18.843   5.044  1.00  0.00     0.013 A 
HETATM   31  C   UNL     1      44.817 -21.223   4.838  1.00  0.00     0.012 A 
HETATM   32  C   UNL     1      43.829 -17.650   4.480  1.00  0.00     0.011 A 
HETATM   33  C   UNL     1      44.869 -22.385   4.069  1.00  0.00     0.001 A 
HETATM   34  C   UNL     1      44.454 -22.358   2.740  1.00  0.00     0.001 A 
ENDBRANCH   2  25
TORSDOF 4
ENDMDL
MODEL 9
REMARK VINA RESULT:      -9.3      1.849      7.534
REMARK  4 active torsions:
REMARK  status: ('A' for Active; 'I' for Inactive)
REMARK    1  A    between atoms: C_2  and  C_3 
REMARK    2  A    between atoms: N_16  and  C_17 
REMARK    3  A    between atoms: C_17  and  C_18 
REMARK       I    between atoms: C_18  and  N_19 
REMARK    4  A    between atoms: N_19  and  C_20 
ROOT
HETATM    1  C   UNL     1      38.625 -11.946   2.389  1.00  0.00     0.054 C 
HETATM    2  C   UNL     1      39.637 -13.089   2.508  1.00  0.00     0.140 A 
HETATM    3  N   UNL     1      39.189 -14.016   3.527  1.00  0.00    -0.321 N 
HETATM    4  C   UNL     1      40.025 -14.064   4.614  1.00  0.00     0.326 A 
HETATM    5  O   UNL     1      39.821 -14.760   5.592  1.00  0.00    -0.247 OA
HETATM    6  N   UNL     1      41.063 -13.214   4.403  1.00  0.00    -0.259 N 
HETATM    7  C   UNL     1      40.926 -12.582   3.201  1.00  0.00     0.261 A 
HETATM    8  O   UNL     1      41.702 -11.743   2.760  1.00  0.00    -0.270 OA
HETATM    9  H   UNL     1      38.338 -14.559   3.498  1.00  0.00     0.165 HD
ENDROOT
BRANCH   6  10
HETATM   10  C   UNL     1      42.137 -13.000   5.351  1.00  0.00     0.240 C 
BRANCH  10  11
HETATM   11  C   UNL     1      43.230 -14.060   5.217  1.00  0.00     0.240 C 
HETATM   12  N   UNL     1      42.802 -15.350   5.450  1.00  0.00    -0.324 N 
HETATM   13  H   UNL     1      41.799 -15.534   5.508  1.00  0.00     0.169 HD
HETATM   14  O   UNL     1      44.344 -13.751   4.797  1.00  0.00    -0.271 OA
BRANCH  12  15
HETATM   15  C   UNL     1      43.579 -16.534   5.489  1.00  0.00     0.064 A 
HETATM   16  C   UNL     1      43.434 -17.402   4.395  1.00  0.00     0.093 A 
HETATM   17  C   UNL     1      44.176 -18.604   4.387  1.00  0.00    -0.005 A 
HETATM   18  N   UNL     1      42.598 -17.074   3.381  1.00  0.00    -0.258 NA
HETATM   19  C   UNL     1      44.036 -19.462   3.288  1.00  0.00     0.015 A 
HETATM   20  C   UNL     1      45.029 -18.918   5.458  1.00  0.00     0.014 A 
HETATM   21  C   UNL     1      43.181 -19.121   2.248  1.00  0.00     0.020 A 
HETATM   22  C   UNL     1      42.488 -17.929   2.342  1.00  0.00     0.117 A 
HETATM   23  C   UNL     1      45.149 -18.049   6.538  1.00  0.00     0.003 A 
HETATM   24  C   UNL     1      44.425 -16.858   6.554  1.00  0.00     0.032 A 
ENDBRANCH  12  15
ENDBRANCH  10  11
ENDBRANCH   6  10
BRANCH   2  25
HETATM   25  C   UNL     1      39.934 -13.759   1.170  1.00  0.00    -0.020 A 
HETATM   26  C   UNL     1      39.102 -13.600   0.045  1.00  0.00     0.022 A 
HETATM   27  C   UNL     1      39.395 -14.216  -1.187  1.00  0.00    -0.025 A 
HETATM   28  C   UNL     1      40.549 -15.019  -1.305  1.00  0.00    -0.026 A 
HETATM   29  C   UNL     1      38.563 -14.046  -2.306  1.00  0.00     0.012 A 
HETATM   30  C   UNL     1      41.376 -15.189  -0.188  1.00  0.00     0.013 A 
HETATM   31  C   UNL     1      40.842 -15.630  -2.534  1.00  0.00     0.012 A 
HETATM   32  C   UNL     1      41.071 -14.571   1.029  1.00  0.00     0.011 A 
HETATM   33  C   UNL     1      40.006 -15.450  -3.637  1.00  0.00     0.001 A 
HETATM   34  C   UNL     1      38.867 -14.659  -3.523  1.00  0.00     0.001 A 
ENDBRANCH   2  25
TORSDOF 4
ENDMDL
MODEL 10
REMARK VINA RESULT:      -9.2      1.305      8.339
REMARK  4 active torsions:
REMARK  status: ('A' for Active; 'I' for Inactive)
REMARK    1  A    between atoms: C_2  and  C_3 
REMARK    2  A    between atoms: N_16  and  C_17 
REMARK    3  A    between atoms: C_17  and  C_18 
REMARK       I    between atoms: C_18  and  N_19 
REMARK    4  A    between atoms: N_19  and  C_20 
ROOT
HETATM    1  C   UNL     1      41.321 -16.154  -0.208  1.00  0.00     0.054 C 
HETATM    2  C   UNL     1      40.801 -14.813   0.318  1.00  0.00     0.140 A 
HETATM    3  N   UNL     1      41.927 -13.964   0.648  1.00  0.00    -0.321 N 
HETATM    4  C   UNL     1      42.016 -13.687   1.988  1.00  0.00     0.326 A 
HETATM    5  O   UNL     1      42.902 -13.010   2.481  1.00  0.00    -0.247 OA
HETATM    6  N   UNL     1      40.987 -14.297   2.629  1.00  0.00    -0.259 N 
HETATM    7  C   UNL     1      40.219 -14.996   1.742  1.00  0.00     0.261 A 
HETATM    8  O   UNL     1      39.237 -15.663   2.042  1.00  0.00    -0.270 OA
HETATM    9  H   UNL     1      42.619 -13.622  -0.004  1.00  0.00     0.165 HD
ENDROOT
BRANCH   6  10
HETATM   10  C   UNL     1      40.772 -14.230   4.060  1.00  0.00     0.240 C 
BRANCH  10  11
HETATM   11  C   UNL     1      41.361 -15.442   4.779  1.00  0.00     0.240 C 
HETATM   12  N   UNL     1      42.662 -15.735   4.427  1.00  0.00    -0.324 N 
HETATM   13  H   UNL     1      43.190 -15.054   3.880  1.00  0.00     0.169 HD
HETATM   14  O   UNL     1      40.736 -15.987   5.689  1.00  0.00    -0.271 OA
BRANCH  12  15
HETATM   15  C   UNL     1      43.453 -16.833   4.844  1.00  0.00     0.064 A 
HETATM   16  C   UNL     1      43.530 -17.913   3.949  1.00  0.00     0.093 A 
HETATM   17  C   UNL     1      44.296 -19.040   4.320  1.00  0.00    -0.005 A 
HETATM   18  N   UNL     1      42.879 -17.852   2.764  1.00  0.00    -0.258 NA
HETATM   19  C   UNL     1      44.379 -20.110   3.418  1.00  0.00     0.015 A 
HETATM   20  C   UNL     1      44.954 -19.075   5.560  1.00  0.00     0.014 A 
HETATM   21  C   UNL     1      43.713 -20.044   2.202  1.00  0.00     0.020 A 
HETATM   22  C   UNL     1      42.981 -18.905   1.924  1.00  0.00     0.117 A 
HETATM   23  C   UNL     1      44.854 -17.999   6.437  1.00  0.00     0.003 A 
HETATM   24  C   UNL     1      44.105 -16.880   6.080  1.00  0.00     0.032 A 
ENDBRANCH  12  15
ENDBRANCH  10  11
ENDBRANCH   6  10
BRANCH   2  25
HETATM   25  C   UNL     1      39.802 -14.154  -0.627  1.00  0.00    -0.020 A 
HETATM   26  C   UNL     1      39.169 -14.859  -1.668  1.00  0.00     0.022 A 
HETATM   27  C   UNL     1      38.240 -14.239  -2.526  1.00  0.00    -0.025 A 
HETATM   28  C   UNL     1      37.932 -12.874  -2.346  1.00  0.00    -0.026 A 
HETATM   29  C   UNL     1      37.608 -14.953  -3.559  1.00  0.00     0.012 A 
HETATM   30  C   UNL     1      38.565 -12.164  -1.319  1.00  0.00     0.013 A 
HETATM   31  C   UNL     1      37.004 -12.258  -3.200  1.00  0.00     0.012 A 
HETATM   32  C   UNL     1      39.485 -12.794  -0.476  1.00  0.00     0.011 A 
HETATM   33  C   UNL     1      36.384 -12.981  -4.219  1.00  0.00     0.001 A 
HETATM   34  C   UNL     1      36.686 -14.328  -4.399  1.00  0.00     0.001 A 
ENDBRANCH   2  25
TORSDOF 4
ENDMDL
