MODEL 1
REMARK VINA RESULT:      -9.1      0.000      0.000
REMARK  5 active torsions:
REMARK  status: ('A' for Active; 'I' for Inactive)
REMARK    1  A    between atoms: O_2  and  C_3 
REMARK    2  A    between atoms: C_7  and  C_8 
REMARK    3  A    between atoms: C_8  and  C_9 
REMARK       I    between atoms: C_9  and  N_10 
REMARK    4  A    between atoms: N_10  and  C_11 
REMARK    5  A    between atoms: C_11  and  C_12 
ROOT
HETATM    1  C   UNL     1      43.950 -14.386   6.388  1.00  0.00     0.222 C 
HETATM    2  N   UNL     1      44.159 -14.038   7.701  1.00  0.00    -0.354 N 
HETATM    3  O   UNL     1      44.448 -13.756   5.456  1.00  0.00    -0.273 OA
HETATM    4  H   UNL     1      43.920 -14.691   8.443  1.00  0.00     0.162 HD
ENDROOT
BRANCH   1   5
HETATM    5  C   UNL     1      43.009 -15.554   6.155  1.00  0.00     0.144 C 
BRANCH   5   6
HETATM    6  C   UNL     1      43.697 -16.831   5.806  1.00  0.00    -0.014 A 
HETATM    7  C   UNL     1      43.495 -17.668   4.662  1.00  0.00     0.006 A 
HETATM    8  C   UNL     1      44.383 -18.727   4.799  1.00  0.00     0.088 A 
HETATM    9  C   UNL     1      42.668 -17.641   3.524  1.00  0.00     0.017 A 
HETATM   10  C   UNL     1      44.526 -19.768   3.880  1.00  0.00     0.074 A 
HETATM   11  O   UNL     1      45.091 -18.603   5.954  1.00  0.00    -0.321 OA
HETATM   12  C   UNL     1      43.712 -19.715   2.745  1.00  0.00     0.070 A 
HETATM   13  C   UNL     1      42.794 -18.670   2.579  1.00  0.00     0.038 A 
HETATM   14  C   UNL     1      44.672 -17.463   6.555  1.00  0.00     0.151 A 
BRANCH  12  15
HETATM   15  O   UNL     1      43.713 -20.631   1.725  1.00  0.00    -0.356 OA
HETATM   16  C   UNL     1      44.352 -21.875   1.984  1.00  0.00     0.210 C 
ENDBRANCH  12  15
ENDBRANCH   5   6
ENDBRANCH   1   5
BRANCH   2  17
HETATM   17  C   UNL     1      45.130 -13.028   8.039  1.00  0.00     0.201 C 
BRANCH  17  18
HETATM   18  C   UNL     1      44.625 -12.245   9.198  1.00  0.00     0.123 A 
HETATM   19  N   UNL     1      44.552 -10.930   9.302  1.00  0.00    -0.232 NA
HETATM   20  C   UNL     1      43.986 -10.688  10.530  1.00  0.00     0.085 A 
HETATM   21  C   UNL     1      43.717 -11.878  11.196  1.00  0.00     0.062 A 
HETATM   22  C   UNL     1      43.666  -9.470  11.147  1.00  0.00     0.034 A 
HETATM   23  N   UNL     1      44.137 -12.854  10.330  1.00  0.00    -0.341 N 
HETATM   24  C   UNL     1      43.140 -11.933  12.467  1.00  0.00     0.032 A 
HETATM   25  H   UNL     1      44.086 -13.848  10.492  1.00  0.00     0.167 HD
HETATM   26  C   UNL     1      42.827 -10.708  13.066  1.00  0.00     0.002 A 
HETATM   27  C   UNL     1      43.083  -9.496  12.421  1.00  0.00     0.002 A 
ENDBRANCH  17  18
ENDBRANCH   2  17
TORSDOF 5
ENDMDL
MODEL 2
REMARK VINA RESULT:      -9.0      1.524      2.249
REMARK  5 active torsions:
REMARK  status: ('A' for Active; 'I' for Inactive)
REMARK    1  A    between atoms: O_2  and  C_3 
REMARK    2  A    between atoms: C_7  and  C_8 
REMARK    3  A    between atoms: C_8  and  C_9 
REMARK       I    between atoms: C_9  and  N_10 
REMARK    4  A    between atoms: N_10  and  C_11 
REMARK    5  A    between atoms: C_11  and  C_12 
ROOT
HETATM    1  C   UNL     1      42.863 -14.821   6.052  1.00  0.00     0.222 C 
HETATM    2  N   UNL     1      43.836 -14.962   7.013  1.00  0.00    -0.354 N 
HETATM    3  O   UNL     1      42.768 -13.808   5.361  1.00  0.00    -0.273 OA
HETATM    4  H   UNL     1      44.026 -15.877   7.413  1.00  0.00     0.162 HD
ENDROOT
BRANCH   1   5
HETATM    5  C   UNL     1      41.870 -15.964   5.945  1.00  0.00     0.144 C 
BRANCH   5   6
HETATM    6  C   UNL     1      41.960 -16.731   4.667  1.00  0.00    -0.014 A 
HETATM    7  C   UNL     1      42.838 -17.813   4.338  1.00  0.00     0.006 A 
HETATM    8  C   UNL     1      42.520 -18.183   3.038  1.00  0.00     0.088 A 
HETATM    9  C   UNL     1      43.857 -18.523   4.997  1.00  0.00     0.017 A 
HETATM   10  C   UNL     1      43.131 -19.223   2.336  1.00  0.00     0.074 A 
HETATM   11  O   UNL     1      41.529 -17.389   2.549  1.00  0.00    -0.321 OA
HETATM   12  C   UNL     1      44.128 -19.932   3.013  1.00  0.00     0.070 A 
HETATM   13  C   UNL     1      44.485 -19.579   4.320  1.00  0.00     0.038 A 
HETATM   14  C   UNL     1      41.199 -16.517   3.534  1.00  0.00     0.151 A 
BRANCH  12  15
HETATM   15  O   UNL     1      44.832 -20.992   2.503  1.00  0.00    -0.356 OA
HETATM   16  C   UNL     1      44.113 -21.900   1.677  1.00  0.00     0.210 C 
ENDBRANCH  12  15
ENDBRANCH   5   6
ENDBRANCH   1   5
BRANCH   2  17
HETATM   17  C   UNL     1      44.901 -13.996   7.114  1.00  0.00     0.201 C 
BRANCH  17  18
HETATM   18  C   UNL     1      44.576 -13.034   8.202  1.00  0.00     0.123 A 
HETATM   19  N   UNL     1      45.256 -12.830   9.316  1.00  0.00    -0.232 NA
HETATM   20  C   UNL     1      44.589 -11.827   9.977  1.00  0.00     0.085 A 
HETATM   21  C   UNL     1      43.473 -11.417   9.258  1.00  0.00     0.062 A 
HETATM   22  C   UNL     1      44.882 -11.209  11.200  1.00  0.00     0.034 A 
HETATM   23  N   UNL     1      43.484 -12.203   8.135  1.00  0.00    -0.341 N 
HETATM   24  C   UNL     1      42.609 -10.409   9.692  1.00  0.00     0.032 A 
HETATM   25  H   UNL     1      42.811 -12.169   7.384  1.00  0.00     0.167 HD
HETATM   26  C   UNL     1      42.917  -9.803  10.914  1.00  0.00     0.002 A 
HETATM   27  C   UNL     1      44.033 -10.192  11.658  1.00  0.00     0.002 A 
ENDBRANCH  17  18
ENDBRANCH   2  17
TORSDOF 5
ENDMDL
MODEL 3
REMARK VINA RESULT:      -8.6      1.494      2.053
REMARK  5 active torsions:
REMARK  status: ('A' for Active; 'I' for Inactive)
REMARK    1  A    between atoms: O_2  and  C_3 
REMARK    2  A    between atoms: C_7  and  C_8 
REMARK    3  A    between atoms: C_8  and  C_9 
REMARK       I    between atoms: C_9  and  N_10 
REMARK    4  A    between atoms: N_10  and  C_11 
REMARK    5  A    between atoms: C_11  and  C_12 
ROOT
HETATM    1  C   UNL     1      44.693 -14.097   7.440  1.00  0.00     0.222 C 
HETATM    2  N   UNL     1      44.161 -13.315   8.437  1.00  0.00    -0.354 N 
HETATM    3  O   UNL     1      45.608 -13.704   6.718  1.00  0.00    -0.273 OA
HETATM    4  H   UNL     1      43.566 -13.733   9.148  1.00  0.00     0.162 HD
ENDROOT
BRANCH   1   5
HETATM    5  C   UNL     1      44.036 -15.450   7.240  1.00  0.00     0.144 C 
BRANCH   5   6
HETATM    6  C   UNL     1      43.366 -15.613   5.916  1.00  0.00    -0.014 A 
HETATM    7  C   UNL     1      43.366 -16.754   5.051  1.00  0.00     0.006 A 
HETATM    8  C   UNL     1      42.594 -16.403   3.952  1.00  0.00     0.088 A 
HETATM    9  C   UNL     1      43.924 -18.045   5.083  1.00  0.00     0.017 A 
HETATM   10  C   UNL     1      42.318 -17.245   2.874  1.00  0.00     0.074 A 
HETATM   11  O   UNL     1      42.146 -15.125   4.078  1.00  0.00    -0.321 OA
HETATM   12  C   UNL     1      42.863 -18.531   2.930  1.00  0.00     0.070 A 
HETATM   13  C   UNL     1      43.658 -18.917   4.017  1.00  0.00     0.038 A 
HETATM   14  C   UNL     1      42.616 -14.655   5.259  1.00  0.00     0.151 A 
BRANCH  12  15
HETATM   15  O   UNL     1      42.696 -19.506   1.981  1.00  0.00    -0.356 OA
HETATM   16  C   UNL     1      43.643 -20.567   1.980  1.00  0.00     0.210 C 
ENDBRANCH  12  15
ENDBRANCH   5   6
ENDBRANCH   1   5
BRANCH   2  17
HETATM   17  C   UNL     1      44.787 -12.067   8.794  1.00  0.00     0.201 C 
BRANCH  17  18
HETATM   18  C   UNL     1      44.182 -11.569  10.058  1.00  0.00     0.123 A 
HETATM   19  N   UNL     1      44.669 -10.644  10.865  1.00  0.00    -0.232 NA
HETATM   20  C   UNL     1      43.741 -10.504  11.869  1.00  0.00     0.085 A 
HETATM   21  C   UNL     1      42.670 -11.369  11.677  1.00  0.00     0.062 A 
HETATM   22  C   UNL     1      43.742  -9.651  12.981  1.00  0.00     0.034 A 
HETATM   23  N   UNL     1      42.976 -12.039  10.521  1.00  0.00    -0.341 N 
HETATM   24  C   UNL     1      41.577 -11.441  12.545  1.00  0.00     0.032 A 
HETATM   25  H   UNL     1      42.408 -12.747  10.082  1.00  0.00     0.167 HD
HETATM   26  C   UNL     1      41.596 -10.582  13.649  1.00  0.00     0.002 A 
HETATM   27  C   UNL     1      42.657  -9.700  13.866  1.00  0.00     0.002 A 
ENDBRANCH  17  18
ENDBRANCH   2  17
TORSDOF 5
ENDMDL
MODEL 4
REMARK VINA RESULT:      -8.6      4.846      8.618
REMARK  5 active torsions:
REMARK  status: ('A' for Active; 'I' for Inactive)
REMARK    1  A    between atoms: O_2  and  C_3 
REMARK    2  A    between atoms: C_7  and  C_8 
REMARK    3  A    between atoms: C_8  and  C_9 
REMARK       I    between atoms: C_9  and  N_10 
REMARK    4  A    between atoms: N_10  and  C_11 
REMARK    5  A    between atoms: C_11  and  C_12 
ROOT
HETATM    1  C   UNL     1      41.873 -16.196   1.629  1.00  0.00     0.222 C 
HETATM    2  N   UNL     1      43.201 -16.549   1.643  1.00  0.00    -0.354 N 
HETATM    3  O   UNL     1      41.049 -16.776   0.923  1.00  0.00    -0.273 OA
HETATM    4  H   UNL     1      43.810 -16.206   2.382  1.00  0.00     0.162 HD
ENDROOT
BRANCH   1   5
HETATM    5  C   UNL     1      41.497 -15.001   2.485  1.00  0.00     0.144 C 
BRANCH   5   6
HETATM    6  C   UNL     1      42.418 -14.762   3.636  1.00  0.00    -0.014 A 
HETATM    7  C   UNL     1      42.534 -15.509   4.853  1.00  0.00     0.006 A 
HETATM    8  C   UNL     1      43.536 -14.889   5.589  1.00  0.00     0.088 A 
HETATM    9  C   UNL     1      41.911 -16.642   5.406  1.00  0.00     0.017 A 
HETATM   10  C   UNL     1      43.982 -15.317   6.840  1.00  0.00     0.074 A 
HETATM   11  O   UNL     1      44.017 -13.809   4.916  1.00  0.00    -0.321 OA
HETATM   12  C   UNL     1      43.368 -16.456   7.366  1.00  0.00     0.070 A 
HETATM   13  C   UNL     1      42.344 -17.100   6.659  1.00  0.00     0.038 A 
HETATM   14  C   UNL     1      43.339 -13.738   3.744  1.00  0.00     0.151 A 
BRANCH  12  15
HETATM   15  O   UNL     1      43.675 -17.039   8.569  1.00  0.00    -0.356 OA
HETATM   16  C   UNL     1      44.035 -18.415   8.539  1.00  0.00     0.210 C 
ENDBRANCH  12  15
ENDBRANCH   5   6
ENDBRANCH   1   5
BRANCH   2  17
HETATM   17  C   UNL     1      43.643 -17.743   0.967  1.00  0.00     0.201 C 
BRANCH  17  18
HETATM   18  C   UNL     1      43.937 -18.790   1.981  1.00  0.00     0.123 A 
HETATM   19  N   UNL     1      44.129 -18.614   3.277  1.00  0.00    -0.232 NA
HETATM   20  C   UNL     1      44.326 -19.871   3.794  1.00  0.00     0.085 A 
HETATM   21  C   UNL     1      44.265 -20.834   2.794  1.00  0.00     0.062 A 
HETATM   22  C   UNL     1      44.561 -20.271   5.117  1.00  0.00     0.034 A 
HETATM   23  N   UNL     1      44.021 -20.121   1.649  1.00  0.00    -0.341 N 
HETATM   24  C   UNL     1      44.429 -22.200   3.034  1.00  0.00     0.032 A 
HETATM   25  H   UNL     1      43.912 -20.509   0.725  1.00  0.00     0.167 HD
HETATM   26  C   UNL     1      44.662 -22.581   4.360  1.00  0.00     0.002 A 
HETATM   27  C   UNL     1      44.727 -21.636   5.387  1.00  0.00     0.002 A 
ENDBRANCH  17  18
ENDBRANCH   2  17
TORSDOF 5
ENDMDL
MODEL 5
REMARK VINA RESULT:      -8.3      4.080      5.328
REMARK  5 active torsions:
REMARK  status: ('A' for Active; 'I' for Inactive)
REMARK    1  A    between atoms: O_2  and  C_3 
REMARK    2  A    between atoms: C_7  and  C_8 
REMARK    3  A    between atoms: C_8  and  C_9 
REMARK       I    between atoms: C_9  and  N_10 
REMARK    4  A    between atoms: N_10  and  C_11 
REMARK    5  A    between atoms: C_11  and  C_12 
ROOT
HETATM    1  C   UNL     1      43.786 -17.581   7.297  1.00  0.00     0.222 C 
HETATM    2  N   UNL     1      44.611 -16.645   6.720  1.00  0.00    -0.354 N 
HETATM    3  O   UNL     1      42.973 -17.288   8.172  1.00  0.00    -0.273 OA
HETATM    4  H   UNL     1      45.110 -16.867   5.863  1.00  0.00     0.162 HD
ENDROOT
BRANCH   1   5
HETATM    5  C   UNL     1      43.988 -19.013   6.836  1.00  0.00     0.144 C 
BRANCH   5   6
HETATM    6  C   UNL     1      43.987 -19.182   5.352  1.00  0.00    -0.014 A 
HETATM    7  C   UNL     1      43.098 -18.603   4.391  1.00  0.00     0.006 A 
HETATM    8  C   UNL     1      43.522 -19.063   3.150  1.00  0.00     0.088 A 
HETATM    9  C   UNL     1      41.992 -17.735   4.432  1.00  0.00     0.017 A 
HETATM   10  C   UNL     1      42.936 -18.716   1.932  1.00  0.00     0.074 A 
HETATM   11  O   UNL     1      44.588 -19.896   3.295  1.00  0.00    -0.321 OA
HETATM   12  C   UNL     1      41.851 -17.837   1.989  1.00  0.00     0.070 A 
HETATM   13  C   UNL     1      41.386 -17.363   3.223  1.00  0.00     0.038 A 
HETATM   14  C   UNL     1      44.861 -19.965   4.621  1.00  0.00     0.151 A 
BRANCH  12  15
HETATM   15  O   UNL     1      41.153 -17.368   0.906  1.00  0.00    -0.356 OA
HETATM   16  C   UNL     1      41.699 -16.240   0.233  1.00  0.00     0.210 C 
ENDBRANCH  12  15
ENDBRANCH   5   6
ENDBRANCH   1   5
BRANCH   2  17
HETATM   17  C   UNL     1      44.419 -15.243   6.992  1.00  0.00     0.201 C 
BRANCH  17  18
HETATM   18  C   UNL     1      43.435 -14.695   6.020  1.00  0.00     0.123 A 
HETATM   19  N   UNL     1      43.689 -14.200   4.822  1.00  0.00    -0.232 NA
HETATM   20  C   UNL     1      42.465 -13.862   4.296  1.00  0.00     0.085 A 
HETATM   21  C   UNL     1      41.444 -14.146   5.195  1.00  0.00     0.062 A 
HETATM   22  C   UNL     1      42.146 -13.309   3.048  1.00  0.00     0.034 A 
HETATM   23  N   UNL     1      42.087 -14.671   6.286  1.00  0.00    -0.341 N 
HETATM   24  C   UNL     1      40.095 -13.905   4.924  1.00  0.00     0.032 A 
HETATM   25  H   UNL     1      41.644 -14.993   7.133  1.00  0.00     0.167 HD
HETATM   26  C   UNL     1      39.795 -13.353   3.674  1.00  0.00     0.002 A 
HETATM   27  C   UNL     1      40.800 -13.060   2.749  1.00  0.00     0.002 A 
ENDBRANCH  17  18
ENDBRANCH   2  17
TORSDOF 5
ENDMDL
MODEL 6
REMARK VINA RESULT:      -8.3      4.690      8.196
REMARK  5 active torsions:
REMARK  status: ('A' for Active; 'I' for Inactive)
REMARK    1  A    between atoms: O_2  and  C_3 
REMARK    2  A    between atoms: C_7  and  C_8 
REMARK    3  A    between atoms: C_8  and  C_9 
REMARK       I    between atoms: C_9  and  N_10 
REMARK    4  A    between atoms: N_10  and  C_11 
REMARK    5  A    between atoms: C_11  and  C_12 
ROOT
HETATM    1  C   UNL     1      42.272 -15.933   6.135  1.00  0.00     0.222 C 
HETATM    2  N   UNL     1      43.598 -16.139   5.838  1.00  0.00    -0.354 N 
HETATM    3  O   UNL     1      41.582 -16.791   6.682  1.00  0.00    -0.273 OA
HETATM    4  H   UNL     1      44.191 -15.352   5.589  1.00  0.00     0.162 HD
ENDROOT
BRANCH   1   5
HETATM    5  C   UNL     1      41.693 -14.604   5.683  1.00  0.00     0.144 C 
BRANCH   5   6
HETATM    6  C   UNL     1      42.006 -14.253   4.266  1.00  0.00    -0.014 A 
HETATM    7  C   UNL     1      41.682 -14.980   3.076  1.00  0.00     0.006 A 
HETATM    8  C   UNL     1      42.186 -14.232   2.020  1.00  0.00     0.088 A 
HETATM    9  C   UNL     1      41.010 -16.179   2.776  1.00  0.00     0.017 A 
HETATM   10  C   UNL     1      42.065 -14.577   0.673  1.00  0.00     0.074 A 
HETATM   11  O   UNL     1      42.812 -13.118   2.487  1.00  0.00    -0.321 OA
HETATM   12  C   UNL     1      41.377 -15.760   0.391  1.00  0.00     0.070 A 
HETATM   13  C   UNL     1      40.866 -16.548   1.431  1.00  0.00     0.038 A 
HETATM   14  C   UNL     1      42.702 -13.138   3.838  1.00  0.00     0.151 A 
BRANCH  12  15
HETATM   15  O   UNL     1      41.141 -16.261  -0.864  1.00  0.00    -0.356 OA
HETATM   16  C   UNL     1      40.912 -15.311  -1.898  1.00  0.00     0.210 C 
ENDBRANCH  12  15
ENDBRANCH   5   6
ENDBRANCH   1   5
BRANCH   2  17
HETATM   17  C   UNL     1      44.278 -17.310   6.331  1.00  0.00     0.201 C 
BRANCH  17  18
HETATM   18  C   UNL     1      44.191 -18.384   5.305  1.00  0.00     0.123 A 
HETATM   19  N   UNL     1      43.670 -18.291   4.095  1.00  0.00    -0.232 NA
HETATM   20  C   UNL     1      43.859 -19.522   3.516  1.00  0.00     0.085 A 
HETATM   21  C   UNL     1      44.499 -20.390   4.393  1.00  0.00     0.062 A 
HETATM   22  C   UNL     1      43.512 -19.975   2.235  1.00  0.00     0.034 A 
HETATM   23  N   UNL     1      44.696 -19.643   5.526  1.00  0.00    -0.341 N 
HETATM   24  C   UNL     1      44.820 -21.710   4.069  1.00  0.00     0.032 A 
HETATM   25  H   UNL     1      45.143 -19.962   6.372  1.00  0.00     0.167 HD
HETATM   26  C   UNL     1      44.466 -22.144   2.787  1.00  0.00     0.002 A 
HETATM   27  C   UNL     1      43.824 -21.295   1.882  1.00  0.00     0.002 A 
ENDBRANCH  17  18
ENDBRANCH   2  17
TORSDOF 5
ENDMDL
MODEL 7
REMARK VINA RESULT:      -8.2      5.133      8.798
REMARK  5 active torsions:
REMARK  status: ('A' for Active; 'I' for Inactive)
REMARK    1  A    between atoms: O_2  and  C_3 
REMARK    2  A    between atoms: C_7  and  C_8 
REMARK    3  A    between atoms: C_8  and  C_9 
REMARK       I    between atoms: C_9  and  N_10 
REMARK    4  A    between atoms: N_10  and  C_11 
REMARK    5  A    between atoms: C_11  and  C_12 
ROOT
HETATM    1  C   UNL     1      42.740 -14.398   3.311  1.00  0.00     0.222 C 
HETATM    2  N   UNL     1      41.793 -14.202   2.335  1.00  0.00    -0.354 N 
HETATM    3  O   UNL     1      43.904 -14.022   3.179  1.00  0.00    -0.273 OA
HETATM    4  H   UNL     1      40.807 -14.325   2.552  1.00  0.00     0.162 HD
ENDROOT
BRANCH   1   5
HETATM    5  C   UNL     1      42.280 -15.170   4.534  1.00  0.00     0.144 C 
BRANCH   5   6
HETATM    6  C   UNL     1      43.127 -16.355   4.861  1.00  0.00    -0.014 A 
HETATM    7  C   UNL     1      43.382 -17.516   4.062  1.00  0.00     0.006 A 
HETATM    8  C   UNL     1      44.235 -18.317   4.810  1.00  0.00     0.088 A 
HETATM    9  C   UNL     1      42.994 -17.971   2.789  1.00  0.00     0.017 A 
HETATM   10  C   UNL     1      44.750 -19.542   4.386  1.00  0.00     0.074 A 
HETATM   11  O   UNL     1      44.496 -17.735   6.013  1.00  0.00    -0.321 OA
HETATM   12  C   UNL     1      44.372 -19.970   3.110  1.00  0.00     0.070 A 
HETATM   13  C   UNL     1      43.502 -19.196   2.332  1.00  0.00     0.038 A 
HETATM   14  C   UNL     1      43.825 -16.558   6.037  1.00  0.00     0.151 A 
BRANCH  12  15
HETATM   15  O   UNL     1      44.781 -21.133   2.510  1.00  0.00    -0.356 OA
HETATM   16  C   UNL     1      43.810 -21.830   1.738  1.00  0.00     0.210 C 
ENDBRANCH  12  15
ENDBRANCH   5   6
ENDBRANCH   1   5
BRANCH   2  17
HETATM   17  C   UNL     1      42.088 -13.376   1.192  1.00  0.00     0.201 C 
BRANCH  17  18
HETATM   18  C   UNL     1      41.282 -13.850   0.035  1.00  0.00     0.123 A 
HETATM   19  N   UNL     1      40.064 -13.461  -0.302  1.00  0.00    -0.232 NA
HETATM   20  C   UNL     1      39.764 -14.147  -1.453  1.00  0.00     0.085 A 
HETATM   21  C   UNL     1      40.814 -14.979  -1.823  1.00  0.00     0.062 A 
HETATM   22  C   UNL     1      38.609 -14.107  -2.247  1.00  0.00     0.034 A 
HETATM   23  N   UNL     1      41.766 -14.775  -0.858  1.00  0.00    -0.341 N 
HETATM   24  C   UNL     1      40.784 -15.794  -2.957  1.00  0.00     0.032 A 
HETATM   25  H   UNL     1      42.669 -15.222  -0.818  1.00  0.00     0.167 HD
HETATM   26  C   UNL     1      39.623 -15.741  -3.737  1.00  0.00     0.002 A 
HETATM   27  C   UNL     1      38.552 -14.913  -3.392  1.00  0.00     0.002 A 
ENDBRANCH  17  18
ENDBRANCH   2  17
TORSDOF 5
ENDMDL
MODEL 8
REMARK VINA RESULT:      -8.1      5.046      8.164
REMARK  5 active torsions:
REMARK  status: ('A' for Active; 'I' for Inactive)
REMARK    1  A    between atoms: O_2  and  C_3 
REMARK    2  A    between atoms: C_7  and  C_8 
REMARK    3  A    between atoms: C_8  and  C_9 
REMARK       I    between atoms: C_9  and  N_10 
REMARK    4  A    between atoms: N_10  and  C_11 
REMARK    5  A    between atoms: C_11  and  C_12 
ROOT
HETATM    1  C   UNL     1      41.895 -15.652   4.607  1.00  0.00     0.222 C 
HETATM    2  N   UNL     1      41.775 -14.939   3.439  1.00  0.00    -0.354 N 
HETATM    3  O   UNL     1      40.934 -16.208   5.137  1.00  0.00    -0.273 OA
HETATM    4  H   UNL     1      42.607 -14.677   2.915  1.00  0.00     0.162 HD
ENDROOT
BRANCH   1   5
HETATM    5  C   UNL     1      43.274 -15.653   5.242  1.00  0.00     0.144 C 
BRANCH   5   6
HETATM    6  C   UNL     1      43.825 -17.016   5.501  1.00  0.00    -0.014 A 
HETATM    7  C   UNL     1      43.956 -18.112   4.589  1.00  0.00     0.006 A 
HETATM    8  C   UNL     1      44.530 -19.149   5.314  1.00  0.00     0.088 A 
HETATM    9  C   UNL     1      43.664 -18.337   3.232  1.00  0.00     0.017 A 
HETATM   10  C   UNL     1      44.851 -20.401   4.790  1.00  0.00     0.074 A 
HETATM   11  O   UNL     1      44.733 -18.767   6.604  1.00  0.00    -0.321 OA
HETATM   12  C   UNL     1      44.573 -20.602   3.435  1.00  0.00     0.070 A 
HETATM   13  C   UNL     1      43.982 -19.585   2.675  1.00  0.00     0.038 A 
HETATM   14  C   UNL     1      44.305 -17.485   6.710  1.00  0.00     0.151 A 
BRANCH  12  15
HETATM   15  O   UNL     1      44.828 -21.753   2.735  1.00  0.00    -0.356 OA
HETATM   16  C   UNL     1      44.045 -21.978   1.569  1.00  0.00     0.210 C 
ENDBRANCH  12  15
ENDBRANCH   5   6
ENDBRANCH   1   5
BRANCH   2  17
HETATM   17  C   UNL     1      40.545 -14.975   2.689  1.00  0.00     0.201 C 
BRANCH  17  18
HETATM   18  C   UNL     1      40.844 -14.692   1.260  1.00  0.00     0.123 A 
HETATM   19  N   UNL     1      41.450 -13.626   0.768  1.00  0.00    -0.232 NA
HETATM   20  C   UNL     1      41.529 -13.839  -0.587  1.00  0.00     0.085 A 
HETATM   21  C   UNL     1      40.950 -15.055  -0.932  1.00  0.00     0.062 A 
HETATM   22  C   UNL     1      42.088 -13.037  -1.591  1.00  0.00     0.034 A 
HETATM   23  N   UNL     1      40.518 -15.576   0.260  1.00  0.00    -0.341 N 
HETATM   24  C   UNL     1      40.890 -15.531  -2.244  1.00  0.00     0.032 A 
HETATM   25  H   UNL     1      40.050 -16.462   0.381  1.00  0.00     0.167 HD
HETATM   26  C   UNL     1      41.452 -14.716  -3.233  1.00  0.00     0.002 A 
HETATM   27  C   UNL     1      42.043 -13.490  -2.916  1.00  0.00     0.002 A 
ENDBRANCH  17  18
ENDBRANCH   2  17
TORSDOF 5
ENDMDL
MODEL 9
REMARK VINA RESULT:      -8.1      4.415      8.444
REMARK  5 active torsions:
REMARK  status: ('A' for Active; 'I' for Inactive)
REMARK    1  A    between atoms: O_2  and  C_3 
REMARK    2  A    between atoms: C_7  and  C_8 
REMARK    3  A    between atoms: C_8  and  C_9 
REMARK       I    between atoms: C_9  and  N_10 
REMARK    4  A    between atoms: N_10  and  C_11 
REMARK    5  A    between atoms: C_11  and  C_12 
ROOT
HETATM    1  C   UNL     1      43.833 -15.281   6.606  1.00  0.00     0.222 C 
HETATM    2  N   UNL     1      43.884 -16.427   5.849  1.00  0.00    -0.354 N 
HETATM    3  O   UNL     1      44.157 -15.265   7.792  1.00  0.00    -0.273 OA
HETATM    4  H   UNL     1      43.821 -16.370   4.836  1.00  0.00     0.162 HD
ENDROOT
BRANCH   1   5
HETATM    5  C   UNL     1      43.286 -14.051   5.905  1.00  0.00     0.144 C 
BRANCH   5   6
HETATM    6  C   UNL     1      41.992 -14.277   5.197  1.00  0.00    -0.014 A 
HETATM    7  C   UNL     1      41.739 -14.300   3.788  1.00  0.00     0.006 A 
HETATM    8  C   UNL     1      40.382 -14.556   3.645  1.00  0.00     0.088 A 
HETATM    9  C   UNL     1      42.509 -14.142   2.621  1.00  0.00     0.017 A 
HETATM   10  C   UNL     1      39.721 -14.682   2.422  1.00  0.00     0.074 A 
HETATM   11  O   UNL     1      39.791 -14.667   4.866  1.00  0.00    -0.321 OA
HETATM   12  C   UNL     1      40.505 -14.543   1.273  1.00  0.00     0.070 A 
HETATM   13  C   UNL     1      41.874 -14.270   1.377  1.00  0.00     0.038 A 
HETATM   14  C   UNL     1      40.764 -14.496   5.794  1.00  0.00     0.151 A 
BRANCH  12  15
HETATM   15  O   UNL     1      40.047 -14.646  -0.016  1.00  0.00    -0.356 OA
HETATM   16  C   UNL     1      40.988 -15.066  -0.996  1.00  0.00     0.210 C 
ENDBRANCH  12  15
ENDBRANCH   5   6
ENDBRANCH   1   5
BRANCH   2  17
HETATM   17  C   UNL     1      44.501 -17.619   6.376  1.00  0.00     0.201 C 
BRANCH  17  18
HETATM   18  C   UNL     1      44.449 -18.685   5.341  1.00  0.00     0.123 A 
HETATM   19  N   UNL     1      44.822 -19.946   5.474  1.00  0.00    -0.232 NA
HETATM   20  C   UNL     1      44.548 -20.541   4.267  1.00  0.00     0.085 A 
HETATM   21  C   UNL     1      44.005 -19.625   3.374  1.00  0.00     0.062 A 
HETATM   22  C   UNL     1      44.732 -21.870   3.859  1.00  0.00     0.034 A 
HETATM   23  N   UNL     1      43.957 -18.451   4.079  1.00  0.00    -0.341 N 
HETATM   24  C   UNL     1      43.629 -19.955   2.070  1.00  0.00     0.032 A 
HETATM   25  H   UNL     1      43.610 -17.569   3.733  1.00  0.00     0.167 HD
HETATM   26  C   UNL     1      43.820 -21.285   1.680  1.00  0.00     0.002 A 
HETATM   27  C   UNL     1      44.361 -22.230   2.557  1.00  0.00     0.002 A 
ENDBRANCH  17  18
ENDBRANCH   2  17
TORSDOF 5
ENDMDL
MODEL 10
REMARK VINA RESULT:      -8.1      5.205      8.856
REMARK  5 active torsions:
REMARK  status: ('A' for Active; 'I' for Inactive)
REMARK    1  A    between atoms: O_2  and  C_3 
REMARK    2  A    between atoms: C_7  and  C_8 
REMARK    3  A    between atoms: C_8  and  C_9 
REMARK       I    between atoms: C_9  and  N_10 
REMARK    4  A    between atoms: N_10  and  C_11 
REMARK    5  A    between atoms: C_11  and  C_12 
ROOT
HETATM    1  C   UNL     1      42.459 -17.354   1.258  1.00  0.00     0.222 C 
HETATM    2  N   UNL     1      42.619 -15.994   1.377  1.00  0.00    -0.354 N 
HETATM    3  O   UNL     1      41.350 -17.884   1.243  1.00  0.00    -0.273 OA
HETATM    4  H   UNL     1      43.520 -15.568   1.172  1.00  0.00     0.162 HD
ENDROOT
BRANCH   1   5
HETATM    5  C   UNL     1      43.740 -18.169   1.215  1.00  0.00     0.144 C 
BRANCH   5   6
HETATM    6  C   UNL     1      43.964 -19.014   2.425  1.00  0.00    -0.014 A 
HETATM    7  C   UNL     1      43.917 -18.628   3.803  1.00  0.00     0.006 A 
HETATM    8  C   UNL     1      44.188 -19.778   4.533  1.00  0.00     0.088 A 
HETATM    9  C   UNL     1      43.666 -17.439   4.511  1.00  0.00     0.017 A 
HETATM   10  C   UNL     1      44.217 -19.846   5.927  1.00  0.00     0.074 A 
HETATM   11  O   UNL     1      44.418 -20.826   3.696  1.00  0.00    -0.321 OA
HETATM   12  C   UNL     1      43.945 -18.660   6.615  1.00  0.00     0.070 A 
HETATM   13  C   UNL     1      43.682 -17.477   5.913  1.00  0.00     0.038 A 
HETATM   14  C   UNL     1      44.284 -20.359   2.431  1.00  0.00     0.151 A 
BRANCH  12  15
HETATM   15  O   UNL     1      43.912 -18.524   7.979  1.00  0.00    -0.356 OA
HETATM   16  C   UNL     1      43.455 -17.277   8.487  1.00  0.00     0.210 C 
ENDBRANCH  12  15
ENDBRANCH   5   6
ENDBRANCH   1   5
BRANCH   2  17
HETATM   17  C   UNL     1      41.477 -15.119   1.301  1.00  0.00     0.201 C 
BRANCH  17  18
HETATM   18  C   UNL     1      41.721 -14.101   0.244  1.00  0.00     0.123 A 
HETATM   19  N   UNL     1      41.986 -12.818   0.419  1.00  0.00    -0.232 NA
HETATM   20  C   UNL     1      42.171 -12.305  -0.842  1.00  0.00     0.085 A 
HETATM   21  C   UNL     1      42.005 -13.291  -1.808  1.00  0.00     0.062 A 
HETATM   22  C   UNL     1      42.488 -11.000  -1.243  1.00  0.00     0.034 A 
HETATM   23  N   UNL     1      41.716 -14.423  -1.092  1.00  0.00    -0.341 N 
HETATM   24  C   UNL     1      42.137 -13.053  -3.178  1.00  0.00     0.032 A 
HETATM   25  H   UNL     1      41.539 -15.338  -1.480  1.00  0.00     0.167 HD
HETATM   26  C   UNL     1      42.454 -11.744  -3.559  1.00  0.00     0.002 A 
HETATM   27  C   UNL     1      42.629 -10.733  -2.611  1.00  0.00     0.002 A 
ENDBRANCH  17  18
ENDBRANCH   2  17
TORSDOF 5
ENDMDL
