MODEL 1
REMARK VINA RESULT:      -9.6      0.000      0.000
REMARK  10 active torsions:
REMARK  status: ('A' for Active; 'I' for Inactive)
REMARK    1  A    between atoms: C_8  and  N_9 
REMARK    2  A    between atoms: C_10  and  S_11 
REMARK    3  A    between atoms: S_11  and  C_12 
REMARK    4  A    between atoms: C_12  and  C_13 
REMARK       I    between atoms: C_13  and  N_14 
REMARK    5  A    between atoms: N_14  and  C_15 
REMARK    6  A    between atoms: C_15  and  C_16 
REMARK    7  A    between atoms: C_16  and  C_17 
REMARK    8  A    between atoms: C_20  and  S_21 
REMARK    9  A    between atoms: S_21  and  N_22 
REMARK   10  A    between atoms: C_31  and  N_32 
ROOT
HETATM    1  N   UNL     1      41.429 -15.203   2.972  1.00  0.00    -0.275 N 
HETATM    2  C   UNL     1      41.909 -14.045   3.509  1.00  0.00     0.177 A 
HETATM    3  N   UNL     1      41.287 -12.847   3.452  1.00  0.00    -0.204 NA
HETATM    4  C   UNL     1      40.123 -12.919   2.808  1.00  0.00     0.162 A 
HETATM    5  C   UNL     1      39.561 -14.040   2.235  1.00  0.00     0.081 A 
HETATM    6  C   UNL     1      40.225 -15.273   2.335  1.00  0.00     0.124 A 
HETATM    7  N   UNL     1      39.266 -11.882   2.576  1.00  0.00    -0.260 N 
HETATM    8  H   UNL     1      39.364 -10.914   2.866  1.00  0.00     0.191 HD
HETATM    9  N   UNL     1      38.193 -12.237   1.855  1.00  0.00    -0.177 NA
HETATM   10  C   UNL     1      38.363 -13.546   1.632  1.00  0.00     0.068 A 
HETATM   11  C   UNL     1      37.360 -14.276   0.813  1.00  0.00     0.073 C 
ENDROOT
BRANCH   2  12
HETATM   12  S   UNL     1      43.555 -13.965   4.246  1.00  0.00    -0.082 SA
BRANCH  12  13
HETATM   13  C   UNL     1      43.117 -13.960   6.017  1.00  0.00     0.185 C 
BRANCH  13  14
HETATM   14  C   UNL     1      44.357 -13.939   6.900  1.00  0.00     0.227 C 
HETATM   15  N   UNL     1      44.518 -12.764   7.604  1.00  0.00    -0.360 N 
HETATM   16  H   UNL     1      43.737 -12.121   7.664  1.00  0.00     0.162 HD
HETATM   17  O   UNL     1      45.135 -14.888   6.980  1.00  0.00    -0.273 OA
BRANCH  15  18
HETATM   18  C   UNL     1      45.598 -12.591   8.567  1.00  0.00     0.127 C 
BRANCH  18  19
HETATM   19  C   UNL     1      45.463 -11.275   9.334  1.00  0.00     0.058 C 
BRANCH  19  20
HETATM   20  C   UNL     1      44.230 -11.238  10.201  1.00  0.00    -0.057 A 
HETATM   21  C   UNL     1      43.050 -10.639   9.733  1.00  0.00     0.009 A 
HETATM   22  C   UNL     1      41.909 -10.598  10.539  1.00  0.00     0.025 A 
HETATM   23  C   UNL     1      41.947 -11.162  11.816  1.00  0.00     0.074 A 
HETATM   24  C   UNL     1      43.118 -11.748  12.301  1.00  0.00     0.025 A 
HETATM   25  C   UNL     1      44.255 -11.787  11.491  1.00  0.00     0.009 A 
BRANCH  23  26
HETATM   26  S   UNL     1      40.519 -11.068  12.858  1.00  0.00     0.239 S 
HETATM   27  O   UNL     1      40.943 -10.809  14.213  1.00  0.00    -0.206 OA
HETATM   28  O   UNL     1      39.507 -10.278  12.198  1.00  0.00    -0.206 OA
BRANCH  26  29
HETATM   29  N   UNL     1      39.965 -12.651  12.836  1.00  0.00    -0.225 NA
HETATM   30  H   UNL     1      40.712 -13.285  13.124  1.00  0.00     0.136 HD
HETATM   31  H   UNL     1      39.122 -12.733  13.405  1.00  0.00     0.136 HD
ENDBRANCH  26  29
ENDBRANCH  23  26
ENDBRANCH  19  20
ENDBRANCH  18  19
ENDBRANCH  15  18
ENDBRANCH  13  14
ENDBRANCH  12  13
ENDBRANCH   2  12
BRANCH   1  32
HETATM   32  C   UNL     1      42.262 -16.378   2.967  1.00  0.00     0.051 A 
HETATM   33  C   UNL     1      42.246 -17.276   4.048  1.00  0.00    -0.013 A 
HETATM   34  C   UNL     1      41.390 -17.070   5.265  1.00  0.00     0.052 C 
HETATM   35  C   UNL     1      43.109 -18.381   3.955  1.00  0.00     0.042 A 
HETATM   36 CL   UNL     1      43.242 -19.535   5.235  1.00  0.00    -0.084 Cl
HETATM   37  C   UNL     1      43.900 -18.594   2.817  1.00  0.00     0.024 A 
HETATM   38  C   UNL     1      43.859 -17.702   1.746  1.00  0.00     0.004 A 
HETATM   39  C   UNL     1      43.038 -16.584   1.817  1.00  0.00     0.031 A 
ENDBRANCH   1  32
BRANCH   6  40
HETATM   40  N   UNL     1      39.723 -16.450   1.790  1.00  0.00    -0.384 N 
HETATM   41  H   UNL     1      39.611 -16.493   0.781  1.00  0.00     0.157 HD
HETATM   42  H   UNL     1      39.047 -17.011   2.298  1.00  0.00     0.157 HD
ENDBRANCH   6  40
TORSDOF 10
ENDMDL
MODEL 2
REMARK VINA RESULT:      -9.1      2.711      4.838
REMARK  10 active torsions:
REMARK  status: ('A' for Active; 'I' for Inactive)
REMARK    1  A    between atoms: C_8  and  N_9 
REMARK    2  A    between atoms: C_10  and  S_11 
REMARK    3  A    between atoms: S_11  and  C_12 
REMARK    4  A    between atoms: C_12  and  C_13 
REMARK       I    between atoms: C_13  and  N_14 
REMARK    5  A    between atoms: N_14  and  C_15 
REMARK    6  A    between atoms: C_15  and  C_16 
REMARK    7  A    between atoms: C_16  and  C_17 
REMARK    8  A    between atoms: C_20  and  S_21 
REMARK    9  A    between atoms: S_21  and  N_22 
REMARK   10  A    between atoms: C_31  and  N_32 
ROOT
HETATM    1  N   UNL     1      43.201 -17.037   3.802  1.00  0.00    -0.275 N 
HETATM    2  C   UNL     1      43.239 -17.116   5.164  1.00  0.00     0.177 A 
HETATM    3  N   UNL     1      43.668 -18.187   5.866  1.00  0.00    -0.204 NA
HETATM    4  C   UNL     1      44.066 -19.180   5.072  1.00  0.00     0.162 A 
HETATM    5  C   UNL     1      44.063 -19.190   3.693  1.00  0.00     0.081 A 
HETATM    6  C   UNL     1      43.634 -18.049   2.996  1.00  0.00     0.124 A 
HETATM    7  N   UNL     1      44.541 -20.393   5.478  1.00  0.00    -0.260 N 
HETATM    8  H   UNL     1      44.683 -20.723   6.427  1.00  0.00     0.191 HD
HETATM    9  N   UNL     1      44.817 -21.218   4.457  1.00  0.00    -0.177 NA
HETATM   10  C   UNL     1      44.523 -20.502   3.364  1.00  0.00     0.068 A 
HETATM   11  C   UNL     1      44.675 -21.130   2.026  1.00  0.00     0.073 C 
ENDROOT
BRANCH   2  12
HETATM   12  S   UNL     1      42.555 -15.804   6.197  1.00  0.00    -0.082 SA
BRANCH  12  13
HETATM   13  C   UNL     1      43.967 -15.503   7.314  1.00  0.00     0.185 C 
BRANCH  13  14
HETATM   14  C   UNL     1      44.591 -14.135   7.070  1.00  0.00     0.227 C 
HETATM   15  N   UNL     1      44.894 -13.449   8.228  1.00  0.00    -0.360 N 
HETATM   16  H   UNL     1      44.896 -13.955   9.107  1.00  0.00     0.162 HD
HETATM   17  O   UNL     1      44.809 -13.693   5.944  1.00  0.00    -0.273 OA
BRANCH  15  18
HETATM   18  C   UNL     1      45.576 -12.162   8.198  1.00  0.00     0.127 C 
BRANCH  18  19
HETATM   19  C   UNL     1      45.774 -11.597   9.606  1.00  0.00     0.058 C 
BRANCH  19  20
HETATM   20  C   UNL     1      44.472 -11.420  10.344  1.00  0.00    -0.057 A 
HETATM   21  C   UNL     1      44.286 -12.001  11.608  1.00  0.00     0.009 A 
HETATM   22  C   UNL     1      43.077 -11.843  12.289  1.00  0.00     0.025 A 
HETATM   23  C   UNL     1      42.050 -11.098  11.706  1.00  0.00     0.074 A 
HETATM   24  C   UNL     1      42.214 -10.527  10.442  1.00  0.00     0.025 A 
HETATM   25  C   UNL     1      43.425 -10.686   9.766  1.00  0.00     0.009 A 
BRANCH  23  26
HETATM   26  S   UNL     1      40.499 -10.937  12.544  1.00  0.00     0.239 S 
HETATM   27  O   UNL     1      39.624 -10.102  11.756  1.00  0.00    -0.206 OA
HETATM   28  O   UNL     1      40.096 -12.232  13.039  1.00  0.00    -0.206 OA
BRANCH  26  29
HETATM   29  N   UNL     1      40.921 -10.033  13.892  1.00  0.00    -0.225 NA
HETATM   30  H   UNL     1      41.692 -10.485  14.387  1.00  0.00     0.136 HD
HETATM   31  H   UNL     1      41.126  -9.072  13.617  1.00  0.00     0.136 HD
ENDBRANCH  26  29
ENDBRANCH  23  26
ENDBRANCH  19  20
ENDBRANCH  18  19
ENDBRANCH  15  18
ENDBRANCH  13  14
ENDBRANCH  12  13
ENDBRANCH   2  12
BRANCH   1  32
HETATM   32  C   UNL     1      42.578 -15.899   3.177  1.00  0.00     0.051 A 
HETATM   33  C   UNL     1      41.236 -15.947   2.768  1.00  0.00    -0.013 A 
HETATM   34  C   UNL     1      40.377 -17.169   2.933  1.00  0.00     0.052 C 
HETATM   35  C   UNL     1      40.728 -14.790   2.151  1.00  0.00     0.042 A 
HETATM   36 CL   UNL     1      39.112 -14.726   1.542  1.00  0.00    -0.084 Cl
HETATM   37  C   UNL     1      41.513 -13.638   2.006  1.00  0.00     0.024 A 
HETATM   38  C   UNL     1      42.831 -13.614   2.462  1.00  0.00     0.004 A 
HETATM   39  C   UNL     1      43.373 -14.750   3.050  1.00  0.00     0.031 A 
ENDBRANCH   1  32
BRANCH   6  40
HETATM   40  N   UNL     1      43.606 -17.976   1.607  1.00  0.00    -0.384 N 
HETATM   41  H   UNL     1      43.218 -17.137   1.186  1.00  0.00     0.157 HD
HETATM   42  H   UNL     1      43.474 -18.810   1.046  1.00  0.00     0.157 HD
ENDBRANCH   6  40
TORSDOF 10
ENDMDL
MODEL 3
REMARK VINA RESULT:      -8.7      1.650      2.226
REMARK  10 active torsions:
REMARK  status: ('A' for Active; 'I' for Inactive)
REMARK    1  A    between atoms: C_8  and  N_9 
REMARK    2  A    between atoms: C_10  and  S_11 
REMARK    3  A    between atoms: S_11  and  C_12 
REMARK    4  A    between atoms: C_12  and  C_13 
REMARK       I    between atoms: C_13  and  N_14 
REMARK    5  A    between atoms: N_14  and  C_15 
REMARK    6  A    between atoms: C_15  and  C_16 
REMARK    7  A    between atoms: C_16  and  C_17 
REMARK    8  A    between atoms: C_20  and  S_21 
REMARK    9  A    between atoms: S_21  and  N_22 
REMARK   10  A    between atoms: C_31  and  N_32 
ROOT
HETATM    1  N   UNL     1      41.900 -15.177   2.231  1.00  0.00    -0.275 N 
HETATM    2  C   UNL     1      42.668 -14.077   2.480  1.00  0.00     0.177 A 
HETATM    3  N   UNL     1      42.622 -12.925   1.775  1.00  0.00    -0.204 NA
HETATM    4  C   UNL     1      41.721 -12.973   0.795  1.00  0.00     0.162 A 
HETATM    5  C   UNL     1      40.905 -14.036   0.472  1.00  0.00     0.081 A 
HETATM    6  C   UNL     1      40.962 -15.210   1.242  1.00  0.00     0.124 A 
HETATM    7  N   UNL     1      41.446 -11.975  -0.094  1.00  0.00    -0.260 N 
HETATM    8  H   UNL     1      41.858 -11.049  -0.141  1.00  0.00     0.191 HD
HETATM    9  N   UNL     1      40.527 -12.323  -1.006  1.00  0.00    -0.177 NA
HETATM   10  C   UNL     1      40.194 -13.578  -0.680  1.00  0.00     0.068 A 
HETATM   11  C   UNL     1      39.208 -14.306  -1.520  1.00  0.00     0.073 C 
ENDROOT
BRANCH   2  12
HETATM   12  S   UNL     1      43.975 -14.108   3.723  1.00  0.00    -0.082 SA
BRANCH  12  13
HETATM   13  C   UNL     1      43.004 -13.734   5.222  1.00  0.00     0.185 C 
BRANCH  13  14
HETATM   14  C   UNL     1      43.768 -14.095   6.489  1.00  0.00     0.227 C 
HETATM   15  N   UNL     1      44.488 -13.045   7.022  1.00  0.00    -0.360 N 
HETATM   16  H   UNL     1      44.295 -12.106   6.692  1.00  0.00     0.162 HD
HETATM   17  O   UNL     1      43.737 -15.217   6.990  1.00  0.00    -0.273 OA
BRANCH  15  18
HETATM   18  C   UNL     1      45.212 -13.175   8.279  1.00  0.00     0.127 C 
BRANCH  18  19
HETATM   19  C   UNL     1      45.402 -11.818   8.961  1.00  0.00     0.058 C 
BRANCH  19  20
HETATM   20  C   UNL     1      44.372 -11.563  10.032  1.00  0.00    -0.057 A 
HETATM   21  C   UNL     1      44.316 -12.379  11.173  1.00  0.00     0.009 A 
HETATM   22  C   UNL     1      43.357 -12.147  12.162  1.00  0.00     0.025 A 
HETATM   23  C   UNL     1      42.454 -11.093  12.013  1.00  0.00     0.074 A 
HETATM   24  C   UNL     1      42.488 -10.282  10.877  1.00  0.00     0.025 A 
HETATM   25  C   UNL     1      43.449 -10.517   9.892  1.00  0.00     0.009 A 
BRANCH  23  26
HETATM   26  S   UNL     1      41.206 -10.827  13.241  1.00  0.00     0.239 S 
HETATM   27  O   UNL     1      40.249 -11.905  13.178  1.00  0.00    -0.206 OA
HETATM   28  O   UNL     1      41.840 -10.423  14.474  1.00  0.00    -0.206 OA
BRANCH  26  29
HETATM   29  N   UNL     1      40.420  -9.467  12.652  1.00  0.00    -0.225 NA
HETATM   30  H   UNL     1      40.967  -9.048  11.899  1.00  0.00     0.136 HD
HETATM   31  H   UNL     1      39.468  -9.708  12.375  1.00  0.00     0.136 HD
ENDBRANCH  26  29
ENDBRANCH  23  26
ENDBRANCH  19  20
ENDBRANCH  18  19
ENDBRANCH  15  18
ENDBRANCH  13  14
ENDBRANCH  12  13
ENDBRANCH   2  12
BRANCH   1  32
HETATM   32  C   UNL     1      42.155 -16.395   2.957  1.00  0.00     0.051 A 
HETATM   33  C   UNL     1      43.112 -17.317   2.502  1.00  0.00    -0.013 A 
HETATM   34  C   UNL     1      43.908 -17.111   1.245  1.00  0.00     0.052 C 
HETATM   35  C   UNL     1      43.272 -18.483   3.271  1.00  0.00     0.042 A 
HETATM   36 CL   UNL     1      44.367 -19.733   2.800  1.00  0.00    -0.084 Cl
HETATM   37  C   UNL     1      42.547 -18.679   4.456  1.00  0.00     0.024 A 
HETATM   38  C   UNL     1      41.635 -17.722   4.897  1.00  0.00     0.004 A 
HETATM   39  C   UNL     1      41.431 -16.571   4.146  1.00  0.00     0.031 A 
ENDBRANCH   1  32
BRANCH   6  40
HETATM   40  N   UNL     1      40.169 -16.323   0.985  1.00  0.00    -0.384 N 
HETATM   41  H   UNL     1      39.770 -16.812   1.781  1.00  0.00     0.157 HD
HETATM   42  H   UNL     1      40.360 -16.926   0.192  1.00  0.00     0.157 HD
ENDBRANCH   6  40
TORSDOF 10
ENDMDL
MODEL 4
REMARK VINA RESULT:      -8.5      4.753      8.456
REMARK  10 active torsions:
REMARK  status: ('A' for Active; 'I' for Inactive)
REMARK    1  A    between atoms: C_8  and  N_9 
REMARK    2  A    between atoms: C_10  and  S_11 
REMARK    3  A    between atoms: S_11  and  C_12 
REMARK    4  A    between atoms: C_12  and  C_13 
REMARK       I    between atoms: C_13  and  N_14 
REMARK    5  A    between atoms: N_14  and  C_15 
REMARK    6  A    between atoms: C_15  and  C_16 
REMARK    7  A    between atoms: C_16  and  C_17 
REMARK    8  A    between atoms: C_20  and  S_21 
REMARK    9  A    between atoms: S_21  and  N_22 
REMARK   10  A    between atoms: C_31  and  N_32 
ROOT
HETATM    1  N   UNL     1      41.974 -15.574   1.980  1.00  0.00    -0.275 N 
HETATM    2  C   UNL     1      42.421 -14.316   2.263  1.00  0.00     0.177 A 
HETATM    3  N   UNL     1      42.424 -13.281   1.395  1.00  0.00    -0.204 NA
HETATM    4  C   UNL     1      41.925 -13.622   0.208  1.00  0.00     0.162 A 
HETATM    5  C   UNL     1      41.452 -14.862  -0.167  1.00  0.00     0.081 A 
HETATM    6  C   UNL     1      41.442 -15.909   0.769  1.00  0.00     0.124 A 
HETATM    7  N   UNL     1      41.803 -12.804  -0.878  1.00  0.00    -0.260 N 
HETATM    8  H   UNL     1      42.047 -11.822  -0.952  1.00  0.00     0.191 HD
HETATM    9  N   UNL     1      41.314 -13.433  -1.957  1.00  0.00    -0.177 NA
HETATM   10  C   UNL     1      41.104 -14.688  -1.542  1.00  0.00     0.068 A 
HETATM   11  C   UNL     1      40.592 -15.694  -2.510  1.00  0.00     0.073 C 
ENDROOT
BRANCH   2  12
HETATM   12  S   UNL     1      43.221 -13.938   3.836  1.00  0.00    -0.082 SA
BRANCH  12  13
HETATM   13  C   UNL     1      41.774 -13.415   4.817  1.00  0.00     0.185 C 
BRANCH  13  14
HETATM   14  C   UNL     1      41.223 -12.081   4.333  1.00  0.00     0.227 C 
HETATM   15  N   UNL     1      40.249 -12.200   3.363  1.00  0.00    -0.360 N 
HETATM   16  H   UNL     1      39.827 -13.109   3.207  1.00  0.00     0.162 HD
HETATM   17  O   UNL     1      41.609 -11.000   4.775  1.00  0.00    -0.273 OA
BRANCH  15  18
HETATM   18  C   UNL     1      39.543 -11.038   2.841  1.00  0.00     0.127 C 
BRANCH  18  19
HETATM   19  C   UNL     1      38.103 -11.381   2.456  1.00  0.00     0.058 C 
BRANCH  19  20
HETATM   20  C   UNL     1      37.986 -11.856   1.030  1.00  0.00    -0.057 A 
HETATM   21  C   UNL     1      37.971 -10.934  -0.028  1.00  0.00     0.009 A 
HETATM   22  C   UNL     1      37.855 -11.373  -1.349  1.00  0.00     0.025 A 
HETATM   23  C   UNL     1      37.758 -12.741  -1.614  1.00  0.00     0.074 A 
HETATM   24  C   UNL     1      37.757 -13.670  -0.572  1.00  0.00     0.025 A 
HETATM   25  C   UNL     1      37.874 -13.226   0.747  1.00  0.00     0.009 A 
BRANCH  23  26
HETATM   26  S   UNL     1      37.561 -13.299  -3.283  1.00  0.00     0.239 S 
HETATM   27  O   UNL     1      37.500 -14.741  -3.292  1.00  0.00    -0.206 OA
HETATM   28  O   UNL     1      36.572 -12.477  -3.940  1.00  0.00    -0.206 OA
BRANCH  26  29
HETATM   29  N   UNL     1      39.037 -12.888  -3.966  1.00  0.00    -0.225 NA
HETATM   30  H   UNL     1      39.057 -11.889  -4.178  1.00  0.00     0.136 HD
HETATM   31  H   UNL     1      39.799 -13.187  -3.355  1.00  0.00     0.136 HD
ENDBRANCH  26  29
ENDBRANCH  23  26
ENDBRANCH  19  20
ENDBRANCH  18  19
ENDBRANCH  15  18
ENDBRANCH  13  14
ENDBRANCH  12  13
ENDBRANCH   2  12
BRANCH   1  32
HETATM   32  C   UNL     1      42.169 -16.626   2.943  1.00  0.00     0.051 A 
HETATM   33  C   UNL     1      43.268 -17.496   2.848  1.00  0.00    -0.013 A 
HETATM   34  C   UNL     1      44.287 -17.402   1.748  1.00  0.00     0.052 C 
HETATM   35  C   UNL     1      43.357 -18.501   3.826  1.00  0.00     0.042 A 
HETATM   36 CL   UNL     1      44.620 -19.680   3.798  1.00  0.00    -0.084 Cl
HETATM   37  C   UNL     1      42.422 -18.589   4.867  1.00  0.00     0.024 A 
HETATM   38  C   UNL     1      41.366 -17.682   4.953  1.00  0.00     0.004 A 
HETATM   39  C   UNL     1      41.232 -16.693   3.986  1.00  0.00     0.031 A 
ENDBRANCH   1  32
BRANCH   6  40
HETATM   40  N   UNL     1      40.977 -17.185   0.472  1.00  0.00    -0.384 N 
HETATM   41  H   UNL     1      41.612 -17.964   0.615  1.00  0.00     0.157 HD
HETATM   42  H   UNL     1      40.314 -17.334  -0.281  1.00  0.00     0.157 HD
ENDBRANCH   6  40
TORSDOF 10
ENDMDL
MODEL 5
REMARK VINA RESULT:      -8.5      5.403      8.605
REMARK  10 active torsions:
REMARK  status: ('A' for Active; 'I' for Inactive)
REMARK    1  A    between atoms: C_8  and  N_9 
REMARK    2  A    between atoms: C_10  and  S_11 
REMARK    3  A    between atoms: S_11  and  C_12 
REMARK    4  A    between atoms: C_12  and  C_13 
REMARK       I    between atoms: C_13  and  N_14 
REMARK    5  A    between atoms: N_14  and  C_15 
REMARK    6  A    between atoms: C_15  and  C_16 
REMARK    7  A    between atoms: C_16  and  C_17 
REMARK    8  A    between atoms: C_20  and  S_21 
REMARK    9  A    between atoms: S_21  and  N_22 
REMARK   10  A    between atoms: C_31  and  N_32 
ROOT
HETATM    1  N   UNL     1      40.404 -12.241   2.221  1.00  0.00    -0.275 N 
HETATM    2  C   UNL     1      41.398 -12.369   1.296  1.00  0.00     0.177 A 
HETATM    3  N   UNL     1      42.573 -13.005   1.503  1.00  0.00    -0.204 NA
HETATM    4  C   UNL     1      42.656 -13.513   2.732  1.00  0.00     0.162 A 
HETATM    5  C   UNL     1      41.707 -13.433   3.728  1.00  0.00     0.081 A 
HETATM    6  C   UNL     1      40.487 -12.785   3.469  1.00  0.00     0.124 A 
HETATM    7  N   UNL     1      43.717 -14.201   3.247  1.00  0.00    -0.260 N 
HETATM    8  H   UNL     1      44.585 -14.448   2.784  1.00  0.00     0.191 HD
HETATM    9  N   UNL     1      43.544 -14.548   4.530  1.00  0.00    -0.177 NA
HETATM   10  C   UNL     1      42.329 -14.080   4.840  1.00  0.00     0.068 A 
HETATM   11  C   UNL     1      41.817 -14.256   6.224  1.00  0.00     0.073 C 
ENDROOT
BRANCH   2  12
HETATM   12  S   UNL     1      41.301 -11.541  -0.305  1.00  0.00    -0.082 SA
BRANCH  12  13
HETATM   13  C   UNL     1      41.905 -12.874  -1.395  1.00  0.00     0.185 C 
BRANCH  13  14
HETATM   14  C   UNL     1      41.184 -14.188  -1.123  1.00  0.00     0.227 C 
HETATM   15  N   UNL     1      41.960 -15.122  -0.467  1.00  0.00    -0.360 N 
HETATM   16  H   UNL     1      42.823 -14.817  -0.033  1.00  0.00     0.162 HD
HETATM   17  O   UNL     1      40.017 -14.389  -1.454  1.00  0.00    -0.273 OA
BRANCH  15  18
HETATM   18  C   UNL     1      41.416 -16.405  -0.044  1.00  0.00     0.127 C 
BRANCH  18  19
HETATM   19  C   UNL     1      40.885 -16.346   1.390  1.00  0.00     0.058 C 
BRANCH  19  20
HETATM   20  C   UNL     1      41.758 -17.101   2.359  1.00  0.00    -0.057 A 
HETATM   21  C   UNL     1      43.016 -17.580   1.959  1.00  0.00     0.009 A 
HETATM   22  C   UNL     1      43.822 -18.287   2.855  1.00  0.00     0.025 A 
HETATM   23  C   UNL     1      43.371 -18.512   4.157  1.00  0.00     0.074 A 
HETATM   24  C   UNL     1      42.117 -18.055   4.565  1.00  0.00     0.025 A 
HETATM   25  C   UNL     1      41.315 -17.348   3.667  1.00  0.00     0.009 A 
BRANCH  23  26
HETATM   26  S   UNL     1      44.369 -19.449   5.280  1.00  0.00     0.239 S 
HETATM   27  O   UNL     1      43.529 -19.966   6.334  1.00  0.00    -0.206 OA
HETATM   28  O   UNL     1      45.267 -20.289   4.522  1.00  0.00    -0.206 OA
BRANCH  26  29
HETATM   29  N   UNL     1      45.321 -18.259   5.980  1.00  0.00    -0.225 NA
HETATM   30  H   UNL     1      44.881 -17.921   6.837  1.00  0.00     0.136 HD
HETATM   31  H   UNL     1      46.269 -18.610   6.122  1.00  0.00     0.136 HD
ENDBRANCH  26  29
ENDBRANCH  23  26
ENDBRANCH  19  20
ENDBRANCH  18  19
ENDBRANCH  15  18
ENDBRANCH  13  14
ENDBRANCH  12  13
ENDBRANCH   2  12
BRANCH   1  32
HETATM   32  C   UNL     1      39.267 -11.407   1.926  1.00  0.00     0.051 A 
HETATM   33  C   UNL     1      38.083 -11.960   1.412  1.00  0.00    -0.013 A 
HETATM   34  C   UNL     1      37.926 -13.427   1.125  1.00  0.00     0.052 C 
HETATM   35  C   UNL     1      37.039 -11.060   1.139  1.00  0.00     0.042 A 
HETATM   36 CL   UNL     1      35.546 -11.589   0.447  1.00  0.00    -0.084 Cl
HETATM   37  C   UNL     1      37.166  -9.692   1.418  1.00  0.00     0.024 A 
HETATM   38  C   UNL     1      38.343  -9.184   1.967  1.00  0.00     0.004 A 
HETATM   39  C   UNL     1      39.405 -10.043   2.222  1.00  0.00     0.031 A 
ENDBRANCH   1  32
BRANCH   6  40
HETATM   40  N   UNL     1      39.476 -12.667   4.417  1.00  0.00    -0.384 N 
HETATM   41  H   UNL     1      39.284 -11.742   4.788  1.00  0.00     0.157 HD
HETATM   42  H   UNL     1      39.293 -13.416   5.076  1.00  0.00     0.157 HD
ENDBRANCH   6  40
TORSDOF 10
ENDMDL
MODEL 6
REMARK VINA RESULT:      -8.4      3.048      5.326
REMARK  10 active torsions:
REMARK  status: ('A' for Active; 'I' for Inactive)
REMARK    1  A    between atoms: C_8  and  N_9 
REMARK    2  A    between atoms: C_10  and  S_11 
REMARK    3  A    between atoms: S_11  and  C_12 
REMARK    4  A    between atoms: C_12  and  C_13 
REMARK       I    between atoms: C_13  and  N_14 
REMARK    5  A    between atoms: N_14  and  C_15 
REMARK    6  A    between atoms: C_15  and  C_16 
REMARK    7  A    between atoms: C_16  and  C_17 
REMARK    8  A    between atoms: C_20  and  S_21 
REMARK    9  A    between atoms: S_21  and  N_22 
REMARK   10  A    between atoms: C_31  and  N_32 
ROOT
HETATM    1  N   UNL     1      42.711 -17.649   3.665  1.00  0.00    -0.275 N 
HETATM    2  C   UNL     1      42.787 -17.675   5.027  1.00  0.00     0.177 A 
HETATM    3  N   UNL     1      43.383 -18.648   5.751  1.00  0.00    -0.204 NA
HETATM    4  C   UNL     1      43.909 -19.597   4.978  1.00  0.00     0.162 A 
HETATM    5  C   UNL     1      43.881 -19.653   3.601  1.00  0.00     0.081 A 
HETATM    6  C   UNL     1      43.273 -18.612   2.879  1.00  0.00     0.124 A 
HETATM    7  N   UNL     1      44.566 -20.713   5.409  1.00  0.00    -0.260 N 
HETATM    8  H   UNL     1      44.774 -20.986   6.364  1.00  0.00     0.191 HD
HETATM    9  N   UNL     1      44.942 -21.521   4.407  1.00  0.00    -0.177 NA
HETATM   10  C   UNL     1      44.523 -20.894   3.301  1.00  0.00     0.068 A 
HETATM   11  C   UNL     1      44.741 -21.537   1.979  1.00  0.00     0.073 C 
ENDROOT
BRANCH   2  12
HETATM   12  S   UNL     1      41.936 -16.445   6.037  1.00  0.00    -0.082 SA
BRANCH  12  13
HETATM   13  C   UNL     1      43.367 -15.550   6.729  1.00  0.00     0.185 C 
BRANCH  13  14
HETATM   14  C   UNL     1      43.447 -14.125   6.196  1.00  0.00     0.227 C 
HETATM   15  N   UNL     1      42.225 -13.603   5.823  1.00  0.00    -0.360 N 
HETATM   16  H   UNL     1      41.381 -14.079   6.120  1.00  0.00     0.162 HD
HETATM   17  O   UNL     1      44.503 -13.501   6.115  1.00  0.00    -0.273 OA
BRANCH  15  18
HETATM   18  C   UNL     1      42.089 -12.224   5.372  1.00  0.00     0.127 C 
BRANCH  18  19
HETATM   19  C   UNL     1      40.741 -11.629   5.781  1.00  0.00     0.058 C 
BRANCH  19  20
HETATM   20  C   UNL     1      40.687 -11.279   7.246  1.00  0.00    -0.057 A 
HETATM   21  C   UNL     1      41.820 -10.768   7.898  1.00  0.00     0.009 A 
HETATM   22  C   UNL     1      41.772 -10.450   9.257  1.00  0.00     0.025 A 
HETATM   23  C   UNL     1      40.586 -10.640   9.968  1.00  0.00     0.074 A 
HETATM   24  C   UNL     1      39.454 -11.161   9.337  1.00  0.00     0.025 A 
HETATM   25  C   UNL     1      39.507 -11.476   7.978  1.00  0.00     0.009 A 
BRANCH  23  26
HETATM   26  S   UNL     1      40.536 -10.284  11.701  1.00  0.00     0.239 S 
HETATM   27  O   UNL     1      41.644  -9.423  12.036  1.00  0.00    -0.206 OA
HETATM   28  O   UNL     1      39.176  -9.979  12.079  1.00  0.00    -0.206 OA
BRANCH  26  29
HETATM   29  N   UNL     1      40.883 -11.780  12.376  1.00  0.00    -0.225 NA
HETATM   30  H   UNL     1      40.035 -12.346  12.423  1.00  0.00     0.136 HD
HETATM   31  H   UNL     1      41.640 -12.228  11.858  1.00  0.00     0.136 HD
ENDBRANCH  26  29
ENDBRANCH  23  26
ENDBRANCH  19  20
ENDBRANCH  18  19
ENDBRANCH  15  18
ENDBRANCH  13  14
ENDBRANCH  12  13
ENDBRANCH   2  12
BRANCH   1  32
HETATM   32  C   UNL     1      41.915 -16.637   3.021  1.00  0.00     0.051 A 
HETATM   33  C   UNL     1      42.472 -15.396   2.673  1.00  0.00    -0.013 A 
HETATM   34  C   UNL     1      43.904 -15.037   2.955  1.00  0.00     0.052 C 
HETATM   35  C   UNL     1      41.606 -14.469   2.066  1.00  0.00     0.042 A 
HETATM   36 CL   UNL     1      42.137 -12.881   1.639  1.00  0.00    -0.084 Cl
HETATM   37  C   UNL     1      40.273 -14.797   1.782  1.00  0.00     0.024 A 
HETATM   38  C   UNL     1      39.766 -16.054   2.105  1.00  0.00     0.004 A 
HETATM   39  C   UNL     1      40.586 -16.984   2.732  1.00  0.00     0.031 A 
ENDBRANCH   1  32
BRANCH   6  40
HETATM   40  N   UNL     1      43.208 -18.591   1.490  1.00  0.00    -0.384 N 
HETATM   41  H   UNL     1      43.725 -17.864   1.004  1.00  0.00     0.157 HD
HETATM   42  H   UNL     1      42.368 -18.886   1.005  1.00  0.00     0.157 HD
ENDBRANCH   6  40
TORSDOF 10
ENDMDL
MODEL 7
REMARK VINA RESULT:      -8.3      3.055      5.140
REMARK  10 active torsions:
REMARK  status: ('A' for Active; 'I' for Inactive)
REMARK    1  A    between atoms: C_8  and  N_9 
REMARK    2  A    between atoms: C_10  and  S_11 
REMARK    3  A    between atoms: S_11  and  C_12 
REMARK    4  A    between atoms: C_12  and  C_13 
REMARK       I    between atoms: C_13  and  N_14 
REMARK    5  A    between atoms: N_14  and  C_15 
REMARK    6  A    between atoms: C_15  and  C_16 
REMARK    7  A    between atoms: C_16  and  C_17 
REMARK    8  A    between atoms: C_20  and  S_21 
REMARK    9  A    between atoms: S_21  and  N_22 
REMARK   10  A    between atoms: C_31  and  N_32 
ROOT
HETATM    1  N   UNL     1      41.063 -15.279   2.065  1.00  0.00    -0.275 N 
HETATM    2  C   UNL     1      41.514 -14.621   3.173  1.00  0.00     0.177 A 
HETATM    3  N   UNL     1      42.381 -15.129   4.076  1.00  0.00    -0.204 NA
HETATM    4  C   UNL     1      42.765 -16.365   3.760  1.00  0.00     0.162 A 
HETATM    5  C   UNL     1      42.364 -17.104   2.668  1.00  0.00     0.081 A 
HETATM    6  C   UNL     1      41.480 -16.535   1.736  1.00  0.00     0.124 A 
HETATM    7  N   UNL     1      43.624 -17.148   4.476  1.00  0.00    -0.260 N 
HETATM    8  H   UNL     1      44.114 -16.915   5.334  1.00  0.00     0.191 HD
HETATM    9  N   UNL     1      43.787 -18.369   3.947  1.00  0.00    -0.177 NA
HETATM   10  C   UNL     1      43.019 -18.361   2.851  1.00  0.00     0.068 A 
HETATM   11  C   UNL     1      42.927 -19.592   2.023  1.00  0.00     0.073 C 
ENDROOT
BRANCH   2  12
HETATM   12  S   UNL     1      40.856 -13.006   3.636  1.00  0.00    -0.082 SA
BRANCH  12  13
HETATM   13  C   UNL     1      39.750 -13.489   5.005  1.00  0.00     0.185 C 
BRANCH  13  14
HETATM   14  C   UNL     1      39.490 -12.324   5.951  1.00  0.00     0.227 C 
HETATM   15  N   UNL     1      39.843 -11.096   5.431  1.00  0.00    -0.360 N 
HETATM   16  H   UNL     1      40.027 -11.024   4.436  1.00  0.00     0.162 HD
HETATM   17  O   UNL     1      39.002 -12.470   7.070  1.00  0.00    -0.273 OA
BRANCH  15  18
HETATM   18  C   UNL     1      39.588  -9.857   6.153  1.00  0.00     0.127 C 
BRANCH  18  19
HETATM   19  C   UNL     1      40.843  -9.354   6.868  1.00  0.00     0.058 C 
BRANCH  19  20
HETATM   20  C   UNL     1      40.907  -9.805   8.305  1.00  0.00    -0.057 A 
HETATM   21  C   UNL     1      39.808  -9.618   9.159  1.00  0.00     0.009 A 
HETATM   22  C   UNL     1      39.869 -10.030  10.492  1.00  0.00     0.025 A 
HETATM   23  C   UNL     1      41.032 -10.634  10.974  1.00  0.00     0.074 A 
HETATM   24  C   UNL     1      42.139 -10.813  10.142  1.00  0.00     0.025 A 
HETATM   25  C   UNL     1      42.072 -10.402   8.809  1.00  0.00     0.009 A 
BRANCH  23  26
HETATM   26  S   UNL     1      41.132 -11.111  12.676  1.00  0.00     0.239 S 
HETATM   27  O   UNL     1      42.408 -11.742  12.913  1.00  0.00    -0.206 OA
HETATM   28  O   UNL     1      40.637 -10.031  13.497  1.00  0.00    -0.206 OA
BRANCH  26  29
HETATM   29  N   UNL     1      39.982 -12.330  12.766  1.00  0.00    -0.225 NA
HETATM   30  H   UNL     1      40.409 -13.228  12.532  1.00  0.00     0.136 HD
HETATM   31  H   UNL     1      39.535 -12.321  13.683  1.00  0.00     0.136 HD
ENDBRANCH  26  29
ENDBRANCH  23  26
ENDBRANCH  19  20
ENDBRANCH  18  19
ENDBRANCH  15  18
ENDBRANCH  13  14
ENDBRANCH  12  13
ENDBRANCH   2  12
BRANCH   1  32
HETATM   32  C   UNL     1      40.023 -14.684   1.266  1.00  0.00     0.051 A 
HETATM   33  C   UNL     1      40.332 -13.963   0.102  1.00  0.00    -0.013 A 
HETATM   34  C   UNL     1      41.741 -13.751  -0.375  1.00  0.00     0.052 C 
HETATM   35  C   UNL     1      39.247 -13.407  -0.597  1.00  0.00     0.042 A 
HETATM   36 CL   UNL     1      39.481 -12.443  -2.012  1.00  0.00    -0.084 Cl
HETATM   37  C   UNL     1      37.926 -13.612  -0.173  1.00  0.00     0.024 A 
HETATM   38  C   UNL     1      37.655 -14.368   0.966  1.00  0.00     0.004 A 
HETATM   39  C   UNL     1      38.706 -14.909   1.696  1.00  0.00     0.031 A 
ENDBRANCH   1  32
BRANCH   6  40
HETATM   40  N   UNL     1      41.032 -17.211   0.606  1.00  0.00    -0.384 N 
HETATM   41  H   UNL     1      40.174 -16.886   0.171  1.00  0.00     0.157 HD
HETATM   42  H   UNL     1      41.188 -18.207   0.501  1.00  0.00     0.157 HD
ENDBRANCH   6  40
TORSDOF 10
ENDMDL
MODEL 8
REMARK VINA RESULT:      -8.3      2.771      3.659
REMARK  10 active torsions:
REMARK  status: ('A' for Active; 'I' for Inactive)
REMARK    1  A    between atoms: C_8  and  N_9 
REMARK    2  A    between atoms: C_10  and  S_11 
REMARK    3  A    between atoms: S_11  and  C_12 
REMARK    4  A    between atoms: C_12  and  C_13 
REMARK       I    between atoms: C_13  and  N_14 
REMARK    5  A    between atoms: N_14  and  C_15 
REMARK    6  A    between atoms: C_15  and  C_16 
REMARK    7  A    between atoms: C_16  and  C_17 
REMARK    8  A    between atoms: C_20  and  S_21 
REMARK    9  A    between atoms: S_21  and  N_22 
REMARK   10  A    between atoms: C_31  and  N_32 
ROOT
HETATM    1  N   UNL     1      41.855 -15.582   1.743  1.00  0.00    -0.275 N 
HETATM    2  C   UNL     1      42.294 -14.315   1.993  1.00  0.00     0.177 A 
HETATM    3  N   UNL     1      42.298 -13.305   1.095  1.00  0.00    -0.204 NA
HETATM    4  C   UNL     1      41.810 -13.684  -0.085  1.00  0.00     0.162 A 
HETATM    5  C   UNL     1      41.346 -14.936  -0.427  1.00  0.00     0.081 A 
HETATM    6  C   UNL     1      41.334 -15.955   0.540  1.00  0.00     0.124 A 
HETATM    7  N   UNL     1      41.691 -12.899  -1.196  1.00  0.00    -0.260 N 
HETATM    8  H   UNL     1      41.931 -11.918  -1.296  1.00  0.00     0.191 HD
HETATM    9  N   UNL     1      41.214 -13.561  -2.259  1.00  0.00    -0.177 NA
HETATM   10  C   UNL     1      41.007 -14.805  -1.809  1.00  0.00     0.068 A 
HETATM   11  C   UNL     1      40.507 -15.841  -2.750  1.00  0.00     0.073 C 
ENDROOT
BRANCH   2  12
HETATM   12  S   UNL     1      43.081 -13.887   3.560  1.00  0.00    -0.082 SA
BRANCH  12  13
HETATM   13  C   UNL     1      42.180 -12.352   3.965  1.00  0.00     0.185 C 
BRANCH  13  14
HETATM   14  C   UNL     1      41.063 -12.608   4.967  1.00  0.00     0.227 C 
HETATM   15  N   UNL     1      40.588 -11.463   5.575  1.00  0.00    -0.360 N 
HETATM   16  H   UNL     1      40.835 -10.564   5.178  1.00  0.00     0.162 HD
HETATM   17  O   UNL     1      40.623 -13.732   5.203  1.00  0.00    -0.273 OA
BRANCH  15  18
HETATM   18  C   UNL     1      39.462 -11.498   6.497  1.00  0.00     0.127 C 
BRANCH  18  19
HETATM   19  C   UNL     1      39.518 -10.343   7.498  1.00  0.00     0.058 C 
BRANCH  19  20
HETATM   20  C   UNL     1      40.556 -10.559   8.569  1.00  0.00    -0.057 A 
HETATM   21  C   UNL     1      40.170 -10.858   9.885  1.00  0.00     0.009 A 
HETATM   22  C   UNL     1      41.131 -11.052  10.879  1.00  0.00     0.025 A 
HETATM   23  C   UNL     1      42.486 -10.950  10.557  1.00  0.00     0.074 A 
HETATM   24  C   UNL     1      42.887 -10.638   9.256  1.00  0.00     0.025 A 
HETATM   25  C   UNL     1      41.922 -10.447   8.265  1.00  0.00     0.009 A 
BRANCH  23  26
HETATM   26  S   UNL     1      43.707 -11.146  11.824  1.00  0.00     0.239 S 
HETATM   27  O   UNL     1      43.679  -9.987  12.685  1.00  0.00    -0.206 OA
HETATM   28  O   UNL     1      43.640 -12.494  12.337  1.00  0.00    -0.206 OA
BRANCH  26  29
HETATM   29  N   UNL     1      45.136 -11.048  10.952  1.00  0.00    -0.225 NA
HETATM   30  H   UNL     1      45.294 -11.920  10.444  1.00  0.00     0.136 HD
HETATM   31  H   UNL     1      45.121 -10.225  10.349  1.00  0.00     0.136 HD
ENDBRANCH  26  29
ENDBRANCH  23  26
ENDBRANCH  19  20
ENDBRANCH  18  19
ENDBRANCH  15  18
ENDBRANCH  13  14
ENDBRANCH  12  13
ENDBRANCH   2  12
BRANCH   1  32
HETATM   32  C   UNL     1      42.048 -16.605   2.739  1.00  0.00     0.051 A 
HETATM   33  C   UNL     1      43.165 -17.456   2.690  1.00  0.00    -0.013 A 
HETATM   34  C   UNL     1      44.206 -17.372   1.611  1.00  0.00     0.052 C 
HETATM   35  C   UNL     1      43.251 -18.433   3.697  1.00  0.00     0.042 A 
HETATM   36 CL   UNL     1      44.536 -19.587   3.728  1.00  0.00    -0.084 Cl
HETATM   37  C   UNL     1      42.295 -18.511   4.720  1.00  0.00     0.024 A 
HETATM   38  C   UNL     1      41.221 -17.622   4.758  1.00  0.00     0.004 A 
HETATM   39  C   UNL     1      41.090 -16.663   3.762  1.00  0.00     0.031 A 
ENDBRANCH   1  32
BRANCH   6  40
HETATM   40  N   UNL     1      40.877 -17.243   0.277  1.00  0.00    -0.384 N 
HETATM   41  H   UNL     1      40.190 -17.358  -0.462  1.00  0.00     0.157 HD
HETATM   42  H   UNL     1      40.791 -17.925   1.022  1.00  0.00     0.157 HD
ENDBRANCH   6  40
TORSDOF 10
ENDMDL
MODEL 9
REMARK VINA RESULT:      -8.2      5.226      7.377
REMARK  10 active torsions:
REMARK  status: ('A' for Active; 'I' for Inactive)
REMARK    1  A    between atoms: C_8  and  N_9 
REMARK    2  A    between atoms: C_10  and  S_11 
REMARK    3  A    between atoms: S_11  and  C_12 
REMARK    4  A    between atoms: C_12  and  C_13 
REMARK       I    between atoms: C_13  and  N_14 
REMARK    5  A    between atoms: N_14  and  C_15 
REMARK    6  A    between atoms: C_15  and  C_16 
REMARK    7  A    between atoms: C_16  and  C_17 
REMARK    8  A    between atoms: C_20  and  S_21 
REMARK    9  A    between atoms: S_21  and  N_22 
REMARK   10  A    between atoms: C_31  and  N_32 
ROOT
HETATM    1  N   UNL     1      40.822 -13.396   0.615  1.00  0.00    -0.275 N 
HETATM    2  C   UNL     1      41.443 -12.491   1.425  1.00  0.00     0.177 A 
HETATM    3  N   UNL     1      42.438 -12.782   2.292  1.00  0.00    -0.204 NA
HETATM    4  C   UNL     1      42.763 -14.074   2.266  1.00  0.00     0.162 A 
HETATM    5  C   UNL     1      42.192 -15.056   1.484  1.00  0.00     0.081 A 
HETATM    6  C   UNL     1      41.176 -14.712   0.576  1.00  0.00     0.124 A 
HETATM    7  N   UNL     1      43.719 -14.679   3.029  1.00  0.00    -0.260 N 
HETATM    8  H   UNL     1      44.338 -14.251   3.710  1.00  0.00     0.191 HD
HETATM    9  N   UNL     1      43.792 -16.003   2.828  1.00  0.00    -0.177 NA
HETATM   10  C   UNL     1      42.862 -16.249   1.897  1.00  0.00     0.068 A 
HETATM   11  C   UNL     1      42.636 -17.649   1.453  1.00  0.00     0.073 C 
ENDROOT
BRANCH   2  12
HETATM   12  S   UNL     1      40.874 -10.782   1.532  1.00  0.00    -0.082 SA
BRANCH  12  13
HETATM   13  C   UNL     1      40.783 -10.585   3.344  1.00  0.00     0.185 C 
BRANCH  13  14
HETATM   14  C   UNL     1      39.966 -11.697   3.988  1.00  0.00     0.227 C 
HETATM   15  N   UNL     1      40.702 -12.517   4.820  1.00  0.00    -0.360 N 
HETATM   16  H   UNL     1      41.623 -12.212   5.111  1.00  0.00     0.162 HD
HETATM   17  O   UNL     1      38.762 -11.842   3.787  1.00  0.00    -0.273 OA
BRANCH  15  18
HETATM   18  C   UNL     1      40.076 -13.582   5.591  1.00  0.00     0.127 C 
BRANCH  18  19
HETATM   19  C   UNL     1      40.038 -14.896   4.809  1.00  0.00     0.058 C 
BRANCH  19  20
HETATM   20  C   UNL     1      41.114 -15.857   5.245  1.00  0.00    -0.057 A 
HETATM   21  C   UNL     1      41.043 -17.213   4.889  1.00  0.00     0.009 A 
HETATM   22  C   UNL     1      42.036 -18.105   5.299  1.00  0.00     0.025 A 
HETATM   23  C   UNL     1      43.107 -17.640   6.065  1.00  0.00     0.074 A 
HETATM   24  C   UNL     1      43.185 -16.297   6.439  1.00  0.00     0.025 A 
HETATM   25  C   UNL     1      42.190 -15.409   6.026  1.00  0.00     0.009 A 
BRANCH  23  26
HETATM   26  S   UNL     1      44.342 -18.777   6.628  1.00  0.00     0.239 S 
HETATM   27  O   UNL     1      44.224 -20.006   5.880  1.00  0.00    -0.206 OA
HETATM   28  O   UNL     1      45.595 -18.076   6.774  1.00  0.00    -0.206 OA
BRANCH  26  29
HETATM   29  N   UNL     1      43.817 -19.123   8.183  1.00  0.00    -0.225 NA
HETATM   30  H   UNL     1      44.617 -19.188   8.814  1.00  0.00     0.136 HD
HETATM   31  H   UNL     1      43.124 -18.433   8.478  1.00  0.00     0.136 HD
ENDBRANCH  26  29
ENDBRANCH  23  26
ENDBRANCH  19  20
ENDBRANCH  18  19
ENDBRANCH  15  18
ENDBRANCH  13  14
ENDBRANCH  12  13
ENDBRANCH   2  12
BRANCH   1  32
HETATM   32  C   UNL     1      39.673 -12.986  -0.150  1.00  0.00     0.051 A 
HETATM   33  C   UNL     1      39.805 -12.585  -1.489  1.00  0.00    -0.013 A 
HETATM   34  C   UNL     1      41.128 -12.540  -2.200  1.00  0.00     0.052 C 
HETATM   35  C   UNL     1      38.625 -12.185  -2.142  1.00  0.00     0.042 A 
HETATM   36 CL   UNL     1      38.645 -11.609  -3.771  1.00  0.00    -0.084 Cl
HETATM   37  C   UNL     1      37.382 -12.239  -1.496  1.00  0.00     0.024 A 
HETATM   38  C   UNL     1      37.284 -12.682  -0.178  1.00  0.00     0.004 A 
HETATM   39  C   UNL     1      38.434 -13.057   0.506  1.00  0.00     0.031 A 
ENDBRANCH   1  32
BRANCH   6  40
HETATM   40  N   UNL     1      40.555 -15.641  -0.252  1.00  0.00    -0.384 N 
HETATM   41  H   UNL     1      39.577 -15.852  -0.074  1.00  0.00     0.157 HD
HETATM   42  H   UNL     1      41.074 -16.421  -0.639  1.00  0.00     0.157 HD
ENDBRANCH   6  40
TORSDOF 10
ENDMDL
MODEL 10
REMARK VINA RESULT:      -8.1      4.504      9.074
REMARK  10 active torsions:
REMARK  status: ('A' for Active; 'I' for Inactive)
REMARK    1  A    between atoms: C_8  and  N_9 
REMARK    2  A    between atoms: C_10  and  S_11 
REMARK    3  A    between atoms: S_11  and  C_12 
REMARK    4  A    between atoms: C_12  and  C_13 
REMARK       I    between atoms: C_13  and  N_14 
REMARK    5  A    between atoms: N_14  and  C_15 
REMARK    6  A    between atoms: C_15  and  C_16 
REMARK    7  A    between atoms: C_16  and  C_17 
REMARK    8  A    between atoms: C_20  and  S_21 
REMARK    9  A    between atoms: S_21  and  N_22 
REMARK   10  A    between atoms: C_31  and  N_32 
ROOT
HETATM    1  N   UNL     1      42.157 -16.577   4.451  1.00  0.00    -0.275 N 
HETATM    2  C   UNL     1      41.736 -16.049   5.637  1.00  0.00     0.177 A 
HETATM    3  N   UNL     1      42.029 -16.552   6.856  1.00  0.00    -0.204 NA
HETATM    4  C   UNL     1      42.797 -17.638   6.779  1.00  0.00     0.162 A 
HETATM    5  C   UNL     1      43.268 -18.240   5.631  1.00  0.00     0.081 A 
HETATM    6  C   UNL     1      42.964 -17.675   4.381  1.00  0.00     0.124 A 
HETATM    7  N   UNL     1      43.253 -18.377   7.832  1.00  0.00    -0.260 N 
HETATM    8  H   UNL     1      43.101 -18.214   8.821  1.00  0.00     0.191 HD
HETATM    9  N   UNL     1      43.963 -19.449   7.452  1.00  0.00    -0.177 NA
HETATM   10  C   UNL     1      43.973 -19.384   6.115  1.00  0.00     0.068 A 
HETATM   11  C   UNL     1      44.653 -20.457   5.344  1.00  0.00     0.073 C 
ENDROOT
BRANCH   2  12
HETATM   12  S   UNL     1      40.580 -14.665   5.688  1.00  0.00    -0.082 SA
BRANCH  12  13
HETATM   13  C   UNL     1      41.748 -13.275   5.875  1.00  0.00     0.185 C 
BRANCH  13  14
HETATM   14  C   UNL     1      41.233 -12.015   5.192  1.00  0.00     0.227 C 
HETATM   15  N   UNL     1      40.525 -12.261   4.034  1.00  0.00    -0.360 N 
HETATM   16  H   UNL     1      40.216 -13.208   3.845  1.00  0.00     0.162 HD
HETATM   17  O   UNL     1      41.427 -10.887   5.640  1.00  0.00    -0.273 OA
BRANCH  15  18
HETATM   18  C   UNL     1      39.880 -11.188   3.289  1.00  0.00     0.127 C 
BRANCH  18  19
HETATM   19  C   UNL     1      38.477 -11.586   2.830  1.00  0.00     0.058 C 
BRANCH  19  20
HETATM   20  C   UNL     1      38.450 -12.052   1.396  1.00  0.00    -0.057 A 
HETATM   21  C   UNL     1      37.590 -13.087   1.001  1.00  0.00     0.009 A 
HETATM   22  C   UNL     1      37.570 -13.523  -0.326  1.00  0.00     0.025 A 
HETATM   23  C   UNL     1      38.411 -12.919  -1.263  1.00  0.00     0.074 A 
HETATM   24  C   UNL     1      39.284 -11.897  -0.881  1.00  0.00     0.025 A 
HETATM   25  C   UNL     1      39.299 -11.464   0.446  1.00  0.00     0.009 A 
BRANCH  23  26
HETATM   26  S   UNL     1      38.425 -13.502  -2.934  1.00  0.00     0.239 S 
HETATM   27  O   UNL     1      37.115 -13.310  -3.509  1.00  0.00    -0.206 OA
HETATM   28  O   UNL     1      39.631 -13.043  -3.582  1.00  0.00    -0.206 OA
BRANCH  26  29
HETATM   29  N   UNL     1      38.607 -15.157  -2.727  1.00  0.00    -0.225 NA
HETATM   30  H   UNL     1      37.713 -15.627  -2.878  1.00  0.00     0.136 HD
HETATM   31  H   UNL     1      39.354 -15.503  -3.330  1.00  0.00     0.136 HD
ENDBRANCH  26  29
ENDBRANCH  23  26
ENDBRANCH  19  20
ENDBRANCH  18  19
ENDBRANCH  15  18
ENDBRANCH  13  14
ENDBRANCH  12  13
ENDBRANCH   2  12
BRANCH   1  32
HETATM   32  C   UNL     1      41.649 -16.037   3.217  1.00  0.00     0.051 A 
HETATM   33  C   UNL     1      42.300 -14.970   2.576  1.00  0.00    -0.013 A 
HETATM   34  C   UNL     1      43.537 -14.320   3.128  1.00  0.00     0.052 C 
HETATM   35  C   UNL     1      41.712 -14.503   1.387  1.00  0.00     0.042 A 
HETATM   36 CL   UNL     1      42.368 -13.158   0.523  1.00  0.00    -0.084 Cl
HETATM   37  C   UNL     1      40.568 -15.111   0.852  1.00  0.00     0.024 A 
HETATM   38  C   UNL     1      39.973 -16.195   1.496  1.00  0.00     0.004 A 
HETATM   39  C   UNL     1      40.511 -16.664   2.688  1.00  0.00     0.031 A 
ENDBRANCH   1  32
BRANCH   6  40
HETATM   40  N   UNL     1      43.405 -18.217   3.178  1.00  0.00    -0.384 N 
HETATM   41  H   UNL     1      43.818 -19.144   3.202  1.00  0.00     0.157 HD
HETATM   42  H   UNL     1      43.782 -17.623   2.449  1.00  0.00     0.157 HD
ENDBRANCH   6  40
TORSDOF 10
ENDMDL
