MODEL 1
REMARK VINA RESULT:      -7.6      0.000      0.000
REMARK  5 active torsions:
REMARK  status: ('A' for Active; 'I' for Inactive)
REMARK    1  A    between atoms: C_2  and  C_3 
REMARK    2  A    between atoms: C_3  and  C_4 
REMARK       I    between atoms: C_4  and  N_5 
REMARK    3  A    between atoms: N_5  and  C_6 
REMARK    4  A    between atoms: C_9  and  N_10 
REMARK       I    between atoms: N_10  and  C_11 
REMARK       I    between atoms: C_11  and  N_12 
REMARK    5  A    between atoms: N_12  and  C_13 
ROOT
HETATM    1  C   UNL     1      41.695 -14.718   0.853  1.00  0.00     0.043 C 
HETATM    2  C   UNL     1      41.296 -15.584   1.895  1.00  0.00    -0.008 C 
HETATM    3  C   UNL     1      40.525 -16.858   1.635  1.00  0.00     0.053 C 
HETATM    4  C   UNL     1      41.527 -15.197   3.241  1.00  0.00     0.044 C 
HETATM    5  C   UNL     1      42.043 -13.930   3.529  1.00  0.00     0.030 C 
HETATM    6  C   UNL     1      42.330 -13.039   2.500  1.00  0.00     0.005 C 
HETATM    7  C   UNL     1      42.160 -13.432   1.175  1.00  0.00     0.030 C 
ENDROOT
BRANCH   4   8
HETATM    8  N   UNL     1      41.313 -16.151   4.261  1.00  0.00    -0.308 N 
HETATM    9  C   UNL     1      41.882 -17.374   4.502  1.00  0.00     0.325 C 
HETATM   10  N   UNL     1      43.152 -17.542   4.023  1.00  0.00    -0.305 N 
HETATM   11  O   UNL     1      41.271 -18.164   5.216  1.00  0.00    -0.247 OA
HETATM   12  H   UNL     1      43.651 -16.683   3.848  1.00  0.00     0.171 HD
HETATM   13  H   UNL     1      40.526 -15.982   4.876  1.00  0.00     0.170 HD
BRANCH  10  14
HETATM   14  C   UNL     1      43.914 -18.691   4.135  1.00  0.00     0.086 A 
HETATM   15  C   UNL     1      44.075 -19.828   3.290  1.00  0.00     0.079 A 
HETATM   16  C   UNL     1      43.488 -20.123   1.958  1.00  0.00     0.075 C 
HETATM   17  N   UNL     1      44.940 -20.710   3.816  1.00  0.00    -0.177 NA
HETATM   18  N   UNL     1      45.323 -20.148   4.966  1.00  0.00    -0.280 N 
HETATM   19  H   UNL     1      45.978 -20.659   5.547  1.00  0.00     0.189 HD
HETATM   20  C   UNL     1      44.761 -18.925   5.202  1.00  0.00     0.052 A 
HETATM   21  C   UNL     1      45.086 -18.160   6.427  1.00  0.00     0.072 C 
ENDBRANCH  10  14
ENDBRANCH   4   8
BRANCH   1  22
HETATM   22  N   UNL     1      41.657 -15.011  -0.533  1.00  0.00    -0.327 N 
HETATM   23  C   UNL     1      40.617 -14.748  -1.408  1.00  0.00     0.222 C 
HETATM   24  O   UNL     1      39.521 -14.281  -1.121  1.00  0.00    -0.273 OA
HETATM   25  H   UNL     1      42.314 -15.713  -0.851  1.00  0.00     0.169 HD
BRANCH  23  26
HETATM   26  C   UNL     1      40.922 -15.181  -2.831  1.00  0.00     0.103 C 
BRANCH  26  27
HETATM   27  C   UNL     1      39.736 -14.954  -3.764  1.00  0.00     0.005 C 
HETATM   28  C   UNL     1      39.029 -16.249  -4.140  1.00  0.00     0.005 C 
ENDBRANCH  26  27
ENDBRANCH  23  26
ENDBRANCH   1  22
TORSDOF 5
ENDMDL
MODEL 2
REMARK VINA RESULT:      -7.5      2.308      7.207
REMARK  5 active torsions:
REMARK  status: ('A' for Active; 'I' for Inactive)
REMARK    1  A    between atoms: C_2  and  C_3 
REMARK    2  A    between atoms: C_3  and  C_4 
REMARK       I    between atoms: C_4  and  N_5 
REMARK    3  A    between atoms: N_5  and  C_6 
REMARK    4  A    between atoms: C_9  and  N_10 
REMARK       I    between atoms: N_10  and  C_11 
REMARK       I    between atoms: C_11  and  N_12 
REMARK    5  A    between atoms: N_12  and  C_13 
ROOT
HETATM    1  C   UNL     1      42.314 -17.433   4.402  1.00  0.00     0.043 C 
HETATM    2  C   UNL     1      42.388 -16.133   3.855  1.00  0.00    -0.008 C 
HETATM    3  C   UNL     1      43.425 -15.747   2.825  1.00  0.00     0.053 C 
HETATM    4  C   UNL     1      41.535 -15.119   4.366  1.00  0.00     0.044 C 
HETATM    5  C   UNL     1      40.713 -15.382   5.466  1.00  0.00     0.030 C 
HETATM    6  C   UNL     1      40.728 -16.635   6.069  1.00  0.00     0.005 C 
HETATM    7  C   UNL     1      41.520 -17.652   5.540  1.00  0.00     0.030 C 
ENDROOT
BRANCH   4   8
HETATM    8  N   UNL     1      41.471 -13.885   3.681  1.00  0.00    -0.308 N 
HETATM    9  C   UNL     1      41.036 -13.560   2.423  1.00  0.00     0.325 C 
HETATM   10  N   UNL     1      40.090 -14.391   1.890  1.00  0.00    -0.305 N 
HETATM   11  O   UNL     1      41.429 -12.506   1.931  1.00  0.00    -0.247 OA
HETATM   12  H   UNL     1      39.580 -14.937   2.568  1.00  0.00     0.171 HD
HETATM   13  H   UNL     1      41.925 -13.099   4.130  1.00  0.00     0.170 HD
BRANCH  10  14
HETATM   14  C   UNL     1      39.518 -14.269   0.636  1.00  0.00     0.086 A 
HETATM   15  C   UNL     1      38.329 -13.629   0.176  1.00  0.00     0.079 A 
HETATM   16  C   UNL     1      37.323 -12.829   0.919  1.00  0.00     0.075 C 
HETATM   17  N   UNL     1      38.180 -13.771  -1.151  1.00  0.00    -0.177 NA
HETATM   18  N   UNL     1      39.248 -14.480  -1.528  1.00  0.00    -0.280 N 
HETATM   19  H   UNL     1      39.334 -14.721  -2.509  1.00  0.00     0.189 HD
HETATM   20  C   UNL     1      40.101 -14.788  -0.505  1.00  0.00     0.052 A 
HETATM   21  C   UNL     1      41.339 -15.561  -0.751  1.00  0.00     0.072 C 
ENDBRANCH  10  14
ENDBRANCH   4   8
BRANCH   1  22
HETATM   22  N   UNL     1      42.996 -18.578   3.920  1.00  0.00    -0.327 N 
HETATM   23  C   UNL     1      44.178 -19.107   4.409  1.00  0.00     0.222 C 
HETATM   24  O   UNL     1      44.877 -18.635   5.298  1.00  0.00    -0.273 OA
HETATM   25  H   UNL     1      42.759 -18.866   2.978  1.00  0.00     0.169 HD
BRANCH  23  26
HETATM   26  C   UNL     1      44.618 -20.354   3.663  1.00  0.00     0.103 C 
BRANCH  26  27
HETATM   27  C   UNL     1      44.012 -20.425   2.264  1.00  0.00     0.005 C 
HETATM   28  C   UNL     1      43.885 -21.855   1.753  1.00  0.00     0.005 C 
ENDBRANCH  26  27
ENDBRANCH  23  26
ENDBRANCH   1  22
TORSDOF 5
ENDMDL
MODEL 3
REMARK VINA RESULT:      -7.5      2.124      7.279
REMARK  5 active torsions:
REMARK  status: ('A' for Active; 'I' for Inactive)
REMARK    1  A    between atoms: C_2  and  C_3 
REMARK    2  A    between atoms: C_3  and  C_4 
REMARK       I    between atoms: C_4  and  N_5 
REMARK    3  A    between atoms: N_5  and  C_6 
REMARK    4  A    between atoms: C_9  and  N_10 
REMARK       I    between atoms: N_10  and  C_11 
REMARK       I    between atoms: C_11  and  N_12 
REMARK    5  A    between atoms: N_12  and  C_13 
ROOT
HETATM    1  C   UNL     1      41.640 -17.036   3.541  1.00  0.00     0.043 C 
HETATM    2  C   UNL     1      41.006 -16.647   2.340  1.00  0.00    -0.008 C 
HETATM    3  C   UNL     1      41.205 -17.395   1.042  1.00  0.00     0.053 C 
HETATM    4  C   UNL     1      40.242 -15.450   2.318  1.00  0.00     0.044 C 
HETATM    5  C   UNL     1      40.210 -14.617   3.441  1.00  0.00     0.030 C 
HETATM    6  C   UNL     1      40.928 -14.953   4.583  1.00  0.00     0.005 C 
HETATM    7  C   UNL     1      41.634 -16.153   4.633  1.00  0.00     0.030 C 
ENDROOT
BRANCH   4   8
HETATM    8  N   UNL     1      39.450 -15.178   1.180  1.00  0.00    -0.308 N 
HETATM    9  C   UNL     1      39.699 -14.448   0.048  1.00  0.00     0.325 C 
HETATM   10  N   UNL     1      41.013 -14.346  -0.315  1.00  0.00    -0.305 N 
HETATM   11  O   UNL     1      38.738 -14.051  -0.606  1.00  0.00    -0.247 OA
HETATM   12  H   UNL     1      41.611 -15.062   0.068  1.00  0.00     0.171 HD
HETATM   13  H   UNL     1      38.479 -15.465   1.229  1.00  0.00     0.170 HD
BRANCH  10  14
HETATM   14  C   UNL     1      41.500 -13.650  -1.407  1.00  0.00     0.086 A 
HETATM   15  C   UNL     1      42.099 -12.363  -1.543  1.00  0.00     0.079 A 
HETATM   16  C   UNL     1      42.441 -11.351  -0.511  1.00  0.00     0.075 C 
HETATM   17  N   UNL     1      42.424 -12.107  -2.820  1.00  0.00    -0.177 NA
HETATM   18  N   UNL     1      42.044 -13.204  -3.482  1.00  0.00    -0.280 N 
HETATM   19  H   UNL     1      42.184 -13.223  -4.486  1.00  0.00     0.189 HD
HETATM   20  C   UNL     1      41.505 -14.175  -2.686  1.00  0.00     0.052 A 
HETATM   21  C   UNL     1      41.041 -15.460  -3.257  1.00  0.00     0.072 C 
ENDBRANCH  10  14
ENDBRANCH   4   8
BRANCH   1  22
HETATM   22  N   UNL     1      42.322 -18.258   3.762  1.00  0.00    -0.327 N 
HETATM   23  C   UNL     1      43.604 -18.579   3.350  1.00  0.00     0.222 C 
HETATM   24  O   UNL     1      44.344 -17.888   2.659  1.00  0.00    -0.273 OA
HETATM   25  H   UNL     1      41.737 -19.052   3.990  1.00  0.00     0.169 HD
BRANCH  23  26
HETATM   26  C   UNL     1      44.027 -19.974   3.775  1.00  0.00     0.103 C 
BRANCH  26  27
HETATM   27  C   UNL     1      44.665 -20.751   2.628  1.00  0.00     0.005 C 
HETATM   28  C   UNL     1      43.645 -21.536   1.813  1.00  0.00     0.005 C 
ENDBRANCH  26  27
ENDBRANCH  23  26
ENDBRANCH   1  22
TORSDOF 5
ENDMDL
MODEL 4
REMARK VINA RESULT:      -7.4      2.537      7.415
REMARK  5 active torsions:
REMARK  status: ('A' for Active; 'I' for Inactive)
REMARK    1  A    between atoms: C_2  and  C_3 
REMARK    2  A    between atoms: C_3  and  C_4 
REMARK       I    between atoms: C_4  and  N_5 
REMARK    3  A    between atoms: N_5  and  C_6 
REMARK    4  A    between atoms: C_9  and  N_10 
REMARK       I    between atoms: N_10  and  C_11 
REMARK       I    between atoms: C_11  and  N_12 
REMARK    5  A    between atoms: N_12  and  C_13 
ROOT
HETATM    1  C   UNL     1      41.869 -17.035   3.317  1.00  0.00     0.043 C 
HETATM    2  C   UNL     1      40.800 -16.718   2.450  1.00  0.00    -0.008 C 
HETATM    3  C   UNL     1      40.557 -17.466   1.160  1.00  0.00     0.053 C 
HETATM    4  C   UNL     1      39.987 -15.589   2.738  1.00  0.00     0.044 C 
HETATM    5  C   UNL     1      40.312 -14.745   3.805  1.00  0.00     0.030 C 
HETATM    6  C   UNL     1      41.433 -15.002   4.587  1.00  0.00     0.005 C 
HETATM    7  C   UNL     1      42.202 -16.139   4.346  1.00  0.00     0.030 C 
ENDROOT
BRANCH   4   8
HETATM    8  N   UNL     1      38.806 -15.400   1.988  1.00  0.00    -0.308 N 
HETATM    9  C   UNL     1      38.479 -14.496   1.012  1.00  0.00     0.325 C 
HETATM   10  N   UNL     1      39.526 -14.001   0.286  1.00  0.00    -0.305 N 
HETATM   11  O   UNL     1      37.288 -14.294   0.788  1.00  0.00    -0.247 OA
HETATM   12  H   UNL     1      40.357 -14.572   0.306  1.00  0.00     0.171 HD
HETATM   13  H   UNL     1      37.999 -15.941   2.276  1.00  0.00     0.170 HD
BRANCH  10  14
HETATM   14  C   UNL     1      39.438 -13.070  -0.734  1.00  0.00     0.086 A 
HETATM   15  C   UNL     1      38.975 -13.156  -2.080  1.00  0.00     0.079 A 
HETATM   16  C   UNL     1      38.380 -14.299  -2.818  1.00  0.00     0.075 C 
HETATM   17  N   UNL     1      39.076 -11.973  -2.708  1.00  0.00    -0.177 NA
HETATM   18  N   UNL     1      39.588 -11.154  -1.784  1.00  0.00    -0.280 N 
HETATM   19  H   UNL     1      39.766 -10.192  -2.051  1.00  0.00     0.189 HD
HETATM   20  C   UNL     1      39.804 -11.748  -0.572  1.00  0.00     0.052 A 
HETATM   21  C   UNL     1      40.358 -10.979   0.565  1.00  0.00     0.072 C 
ENDBRANCH  10  14
ENDBRANCH   4   8
BRANCH   1  22
HETATM   22  N   UNL     1      42.683 -18.192   3.244  1.00  0.00    -0.327 N 
HETATM   23  C   UNL     1      43.836 -18.349   2.493  1.00  0.00     0.222 C 
HETATM   24  O   UNL     1      44.311 -17.540   1.706  1.00  0.00    -0.273 OA
HETATM   25  H   UNL     1      42.244 -19.056   3.537  1.00  0.00     0.169 HD
BRANCH  23  26
HETATM   26  C   UNL     1      44.467 -19.719   2.666  1.00  0.00     0.103 C 
BRANCH  26  27
HETATM   27  C   UNL     1      43.673 -20.809   1.952  1.00  0.00     0.005 C 
HETATM   28  C   UNL     1      44.444 -22.117   1.837  1.00  0.00     0.005 C 
ENDBRANCH  26  27
ENDBRANCH  23  26
ENDBRANCH   1  22
TORSDOF 5
ENDMDL
MODEL 5
REMARK VINA RESULT:      -7.3      2.278      7.778
REMARK  5 active torsions:
REMARK  status: ('A' for Active; 'I' for Inactive)
REMARK    1  A    between atoms: C_2  and  C_3 
REMARK    2  A    between atoms: C_3  and  C_4 
REMARK       I    between atoms: C_4  and  N_5 
REMARK    3  A    between atoms: N_5  and  C_6 
REMARK    4  A    between atoms: C_9  and  N_10 
REMARK       I    between atoms: N_10  and  C_11 
REMARK       I    between atoms: C_11  and  N_12 
REMARK    5  A    between atoms: N_12  and  C_13 
ROOT
HETATM    1  C   UNL     1      42.518 -16.500   3.979  1.00  0.00     0.043 C 
HETATM    2  C   UNL     1      41.360 -15.918   3.417  1.00  0.00    -0.008 C 
HETATM    3  C   UNL     1      40.608 -14.797   4.097  1.00  0.00     0.053 C 
HETATM    4  C   UNL     1      40.815 -16.474   2.229  1.00  0.00     0.044 C 
HETATM    5  C   UNL     1      41.356 -17.644   1.689  1.00  0.00     0.030 C 
HETATM    6  C   UNL     1      42.429 -18.274   2.312  1.00  0.00     0.005 C 
HETATM    7  C   UNL     1      43.005 -17.704   3.445  1.00  0.00     0.030 C 
ENDROOT
BRANCH   4   8
HETATM    8  N   UNL     1      39.786 -15.768   1.567  1.00  0.00    -0.308 N 
HETATM    9  C   UNL     1      39.790 -15.003   0.430  1.00  0.00     0.325 C 
HETATM   10  N   UNL     1      40.754 -15.310  -0.489  1.00  0.00    -0.305 N 
HETATM   11  O   UNL     1      38.875 -14.198   0.273  1.00  0.00    -0.247 OA
HETATM   12  H   UNL     1      41.134 -16.241  -0.403  1.00  0.00     0.171 HD
HETATM   13  H   UNL     1      38.901 -15.702   2.054  1.00  0.00     0.170 HD
BRANCH  10  14
HETATM   14  C   UNL     1      40.956 -14.666  -1.697  1.00  0.00     0.086 A 
HETATM   15  C   UNL     1      40.574 -14.982  -3.034  1.00  0.00     0.079 A 
HETATM   16  C   UNL     1      39.772 -16.115  -3.560  1.00  0.00     0.075 C 
HETATM   17  N   UNL     1      40.996 -14.044  -3.897  1.00  0.00    -0.177 NA
HETATM   18  N   UNL     1      41.629 -13.152  -3.130  1.00  0.00    -0.280 N 
HETATM   19  H   UNL     1      42.049 -12.349  -3.584  1.00  0.00     0.189 HD
HETATM   20  C   UNL     1      41.618 -13.457  -1.797  1.00  0.00     0.052 A 
HETATM   21  C   UNL     1      42.265 -12.569  -0.806  1.00  0.00     0.072 C 
ENDBRANCH  10  14
ENDBRANCH   4   8
BRANCH   1  22
HETATM   22  N   UNL     1      43.255 -15.990   5.076  1.00  0.00    -0.327 N 
HETATM   23  C   UNL     1      43.042 -16.261   6.417  1.00  0.00     0.222 C 
HETATM   24  O   UNL     1      42.133 -16.931   6.891  1.00  0.00    -0.273 OA
HETATM   25  H   UNL     1      43.794 -15.152   4.892  1.00  0.00     0.169 HD
BRANCH  23  26
HETATM   26  C   UNL     1      44.034 -15.555   7.325  1.00  0.00     0.103 C 
BRANCH  26  27
HETATM   27  C   UNL     1      44.506 -14.230   6.734  1.00  0.00     0.005 C 
HETATM   28  C   UNL     1      45.165 -13.328   7.770  1.00  0.00     0.005 C 
ENDBRANCH  26  27
ENDBRANCH  23  26
ENDBRANCH   1  22
TORSDOF 5
ENDMDL
MODEL 6
REMARK VINA RESULT:      -7.2      3.604      6.445
REMARK  5 active torsions:
REMARK  status: ('A' for Active; 'I' for Inactive)
REMARK    1  A    between atoms: C_2  and  C_3 
REMARK    2  A    between atoms: C_3  and  C_4 
REMARK       I    between atoms: C_4  and  N_5 
REMARK    3  A    between atoms: N_5  and  C_6 
REMARK    4  A    between atoms: C_9  and  N_10 
REMARK       I    between atoms: N_10  and  C_11 
REMARK       I    between atoms: C_11  and  N_12 
REMARK    5  A    between atoms: N_12  and  C_13 
ROOT
HETATM    1  C   UNL     1      42.427 -13.729   5.743  1.00  0.00     0.043 C 
HETATM    2  C   UNL     1      42.944 -14.291   4.555  1.00  0.00    -0.008 C 
HETATM    3  C   UNL     1      44.349 -14.010   4.073  1.00  0.00     0.053 C 
HETATM    4  C   UNL     1      42.086 -15.059   3.723  1.00  0.00     0.044 C 
HETATM    5  C   UNL     1      40.724 -15.162   4.025  1.00  0.00     0.030 C 
HETATM    6  C   UNL     1      40.201 -14.512   5.137  1.00  0.00     0.005 C 
HETATM    7  C   UNL     1      41.046 -13.804   5.989  1.00  0.00     0.030 C 
ENDROOT
BRANCH   4   8
HETATM    8  N   UNL     1      42.657 -15.782   2.653  1.00  0.00    -0.308 N 
HETATM    9  C   UNL     1      43.432 -16.911   2.624  1.00  0.00     0.325 C 
HETATM   10  N   UNL     1      43.270 -17.769   3.677  1.00  0.00    -0.305 N 
HETATM   11  O   UNL     1      44.108 -17.122   1.621  1.00  0.00    -0.247 OA
HETATM   12  H   UNL     1      42.398 -17.664   4.173  1.00  0.00     0.171 HD
HETATM   13  H   UNL     1      42.596 -15.352   1.737  1.00  0.00     0.170 HD
BRANCH  10  14
HETATM   14  C   UNL     1      43.952 -18.957   3.866  1.00  0.00     0.086 A 
HETATM   15  C   UNL     1      44.038 -20.154   3.095  1.00  0.00     0.079 A 
HETATM   16  C   UNL     1      43.436 -20.492   1.780  1.00  0.00     0.075 C 
HETATM   17  N   UNL     1      44.839 -21.057   3.683  1.00  0.00    -0.177 NA
HETATM   18  N   UNL     1      45.256 -20.451   4.798  1.00  0.00    -0.280 N 
HETATM   19  H   UNL     1      45.873 -20.967   5.415  1.00  0.00     0.189 HD
HETATM   20  C   UNL     1      44.778 -19.180   4.952  1.00  0.00     0.052 A 
HETATM   21  C   UNL     1      45.150 -18.362   6.128  1.00  0.00     0.072 C 
ENDBRANCH  10  14
ENDBRANCH   4   8
BRANCH   1  22
HETATM   22  N   UNL     1      43.176 -13.055   6.738  1.00  0.00    -0.327 N 
HETATM   23  C   UNL     1      44.140 -13.605   7.566  1.00  0.00     0.222 C 
HETATM   24  O   UNL     1      44.460 -14.786   7.631  1.00  0.00    -0.273 OA
HETATM   25  H   UNL     1      42.786 -12.178   7.063  1.00  0.00     0.169 HD
BRANCH  23  26
HETATM   26  C   UNL     1      44.758 -12.587   8.508  1.00  0.00     0.103 C 
BRANCH  26  27
HETATM   27  C   UNL     1      43.748 -11.532   8.950  1.00  0.00     0.005 C 
HETATM   28  C   UNL     1      44.270 -10.660  10.084  1.00  0.00     0.005 C 
ENDBRANCH  26  27
ENDBRANCH  23  26
ENDBRANCH   1  22
TORSDOF 5
ENDMDL
MODEL 7
REMARK VINA RESULT:      -6.9      2.545      8.134
REMARK  5 active torsions:
REMARK  status: ('A' for Active; 'I' for Inactive)
REMARK    1  A    between atoms: C_2  and  C_3 
REMARK    2  A    between atoms: C_3  and  C_4 
REMARK       I    between atoms: C_4  and  N_5 
REMARK    3  A    between atoms: N_5  and  C_6 
REMARK    4  A    between atoms: C_9  and  N_10 
REMARK       I    between atoms: N_10  and  C_11 
REMARK       I    between atoms: C_11  and  N_12 
REMARK    5  A    between atoms: N_12  and  C_13 
ROOT
HETATM    1  C   UNL     1      42.254 -16.480   3.780  1.00  0.00     0.043 C 
HETATM    2  C   UNL     1      40.975 -15.958   3.485  1.00  0.00    -0.008 C 
HETATM    3  C   UNL     1      40.242 -15.033   4.429  1.00  0.00     0.053 C 
HETATM    4  C   UNL     1      40.302 -16.400   2.315  1.00  0.00     0.044 C 
HETATM    5  C   UNL     1      40.854 -17.416   1.529  1.00  0.00     0.030 C 
HETATM    6  C   UNL     1      42.063 -18.003   1.889  1.00  0.00     0.005 C 
HETATM    7  C   UNL     1      42.757 -17.536   3.002  1.00  0.00     0.030 C 
ENDROOT
BRANCH   4   8
HETATM    8  N   UNL     1      39.123 -15.727   1.922  1.00  0.00    -0.308 N 
HETATM    9  C   UNL     1      38.917 -14.655   1.094  1.00  0.00     0.325 C 
HETATM   10  N   UNL     1      39.857 -14.468   0.120  1.00  0.00    -0.305 N 
HETATM   11  O   UNL     1      37.866 -14.030   1.211  1.00  0.00    -0.247 OA
HETATM   12  H   UNL     1      40.400 -15.289  -0.102  1.00  0.00     0.171 HD
HETATM   13  H   UNL     1      38.274 -15.987   2.409  1.00  0.00     0.170 HD
BRANCH  10  14
HETATM   14  C   UNL     1      39.862 -13.449  -0.816  1.00  0.00     0.086 A 
HETATM   15  C   UNL     1      40.595 -12.229  -0.910  1.00  0.00     0.079 A 
HETATM   16  C   UNL     1      41.651 -11.675  -0.025  1.00  0.00     0.075 C 
HETATM   17  N   UNL     1      40.266 -11.545  -2.017  1.00  0.00    -0.177 NA
HETATM   18  N   UNL     1      39.349 -12.310  -2.615  1.00  0.00    -0.280 N 
HETATM   19  H   UNL     1      38.942 -11.973  -3.481  1.00  0.00     0.189 HD
HETATM   20  C   UNL     1      39.082 -13.477  -1.956  1.00  0.00     0.052 A 
HETATM   21  C   UNL     1      38.097 -14.446  -2.488  1.00  0.00     0.072 C 
ENDBRANCH  10  14
ENDBRANCH   4   8
BRANCH   1  22
HETATM   22  N   UNL     1      43.106 -16.049   4.826  1.00  0.00    -0.327 N 
HETATM   23  C   UNL     1      43.099 -16.492   6.138  1.00  0.00     0.222 C 
HETATM   24  O   UNL     1      42.306 -17.280   6.638  1.00  0.00    -0.273 OA
HETATM   25  H   UNL     1      43.563 -15.157   4.681  1.00  0.00     0.169 HD
BRANCH  23  26
HETATM   26  C   UNL     1      44.165 -15.825   6.990  1.00  0.00     0.103 C 
BRANCH  26  27
HETATM   27  C   UNL     1      44.475 -14.410   6.512  1.00  0.00     0.005 C 
HETATM   28  C   UNL     1      44.922 -13.494   7.644  1.00  0.00     0.005 C 
ENDBRANCH  26  27
ENDBRANCH  23  26
ENDBRANCH   1  22
TORSDOF 5
ENDMDL
MODEL 8
REMARK VINA RESULT:      -6.9      2.598      7.484
REMARK  5 active torsions:
REMARK  status: ('A' for Active; 'I' for Inactive)
REMARK    1  A    between atoms: C_2  and  C_3 
REMARK    2  A    between atoms: C_3  and  C_4 
REMARK       I    between atoms: C_4  and  N_5 
REMARK    3  A    between atoms: N_5  and  C_6 
REMARK    4  A    between atoms: C_9  and  N_10 
REMARK       I    between atoms: N_10  and  C_11 
REMARK       I    between atoms: C_11  and  N_12 
REMARK    5  A    between atoms: N_12  and  C_13 
ROOT
HETATM    1  C   UNL     1      42.784 -15.884   3.060  1.00  0.00     0.043 C 
HETATM    2  C   UNL     1      41.893 -15.302   2.131  1.00  0.00    -0.008 C 
HETATM    3  C   UNL     1      41.243 -16.102   1.026  1.00  0.00     0.053 C 
HETATM    4  C   UNL     1      41.680 -13.899   2.163  1.00  0.00     0.044 C 
HETATM    5  C   UNL     1      42.427 -13.095   3.031  1.00  0.00     0.030 C 
HETATM    6  C   UNL     1      43.384 -13.664   3.864  1.00  0.00     0.005 C 
HETATM    7  C   UNL     1      43.558 -15.046   3.880  1.00  0.00     0.030 C 
ENDROOT
BRANCH   4   8
HETATM    8  N   UNL     1      40.641 -13.357   1.374  1.00  0.00    -0.308 N 
HETATM    9  C   UNL     1      40.659 -12.672   0.187  1.00  0.00     0.325 C 
HETATM   10  N   UNL     1      41.724 -12.928  -0.631  1.00  0.00    -0.305 N 
HETATM   11  O   UNL     1      39.679 -11.988  -0.098  1.00  0.00    -0.247 OA
HETATM   12  H   UNL     1      42.192 -13.803  -0.447  1.00  0.00     0.171 HD
HETATM   13  H   UNL     1      39.716 -13.360   1.786  1.00  0.00     0.170 HD
BRANCH  10  14
HETATM   14  C   UNL     1      41.957 -12.346  -1.864  1.00  0.00     0.086 A 
HETATM   15  C   UNL     1      41.567 -12.702  -3.189  1.00  0.00     0.079 A 
HETATM   16  C   UNL     1      40.721 -13.824  -3.669  1.00  0.00     0.075 C 
HETATM   17  N   UNL     1      42.031 -11.820  -4.088  1.00  0.00    -0.177 NA
HETATM   18  N   UNL     1      42.697 -10.923  -3.356  1.00  0.00    -0.280 N 
HETATM   19  H   UNL     1      43.151 -10.158  -3.842  1.00  0.00     0.189 HD
HETATM   20  C   UNL     1      42.668 -11.170  -2.012  1.00  0.00     0.052 A 
HETATM   21  C   UNL     1      43.348 -10.267  -1.056  1.00  0.00     0.072 C 
ENDBRANCH  10  14
ENDBRANCH   4   8
BRANCH   1  22
HETATM   22  N   UNL     1      43.004 -17.271   3.245  1.00  0.00    -0.327 N 
HETATM   23  C   UNL     1      43.821 -18.090   2.485  1.00  0.00     0.222 C 
HETATM   24  O   UNL     1      44.439 -17.772   1.476  1.00  0.00    -0.273 OA
HETATM   25  H   UNL     1      42.303 -17.757   3.791  1.00  0.00     0.169 HD
BRANCH  23  26
HETATM   26  C   UNL     1      43.835 -19.527   2.976  1.00  0.00     0.103 C 
BRANCH  26  27
HETATM   27  C   UNL     1      43.533 -20.516   1.855  1.00  0.00     0.005 C 
HETATM   28  C   UNL     1      44.246 -21.849   2.042  1.00  0.00     0.005 C 
ENDBRANCH  26  27
ENDBRANCH  23  26
ENDBRANCH   1  22
TORSDOF 5
ENDMDL
MODEL 9
REMARK VINA RESULT:      -6.9      3.011      7.311
REMARK  5 active torsions:
REMARK  status: ('A' for Active; 'I' for Inactive)
REMARK    1  A    between atoms: C_2  and  C_3 
REMARK    2  A    between atoms: C_3  and  C_4 
REMARK       I    between atoms: C_4  and  N_5 
REMARK    3  A    between atoms: N_5  and  C_6 
REMARK    4  A    between atoms: C_9  and  N_10 
REMARK       I    between atoms: N_10  and  C_11 
REMARK       I    between atoms: C_11  and  N_12 
REMARK    5  A    between atoms: N_12  and  C_13 
ROOT
HETATM    1  C   UNL     1      42.898 -17.864   3.618  1.00  0.00     0.043 C 
HETATM    2  C   UNL     1      43.144 -16.606   3.023  1.00  0.00    -0.008 C 
HETATM    3  C   UNL     1      43.653 -16.469   1.606  1.00  0.00     0.053 C 
HETATM    4  C   UNL     1      43.015 -15.432   3.810  1.00  0.00     0.044 C 
HETATM    5  C   UNL     1      42.756 -15.531   5.181  1.00  0.00     0.030 C 
HETATM    6  C   UNL     1      42.626 -16.778   5.782  1.00  0.00     0.005 C 
HETATM    7  C   UNL     1      42.693 -17.933   5.006  1.00  0.00     0.030 C 
ENDROOT
BRANCH   4   8
HETATM    8  N   UNL     1      43.062 -14.178   3.162  1.00  0.00    -0.308 N 
HETATM    9  C   UNL     1      42.082 -13.406   2.595  1.00  0.00     0.325 C 
HETATM   10  N   UNL     1      40.825 -13.572   3.107  1.00  0.00    -0.305 N 
HETATM   11  O   UNL     1      42.418 -12.557   1.774  1.00  0.00    -0.247 OA
HETATM   12  H   UNL     1      40.799 -13.974   4.033  1.00  0.00     0.171 HD
HETATM   13  H   UNL     1      43.984 -13.809   2.963  1.00  0.00     0.170 HD
BRANCH  10  14
HETATM   14  C   UNL     1      39.684 -12.914   2.684  1.00  0.00     0.086 A 
HETATM   15  C   UNL     1      38.875 -13.039   1.516  1.00  0.00     0.079 A 
HETATM   16  C   UNL     1      38.984 -13.978   0.371  1.00  0.00     0.075 C 
HETATM   17  N   UNL     1      37.847 -12.176   1.540  1.00  0.00    -0.177 NA
HETATM   18  N   UNL     1      37.994 -11.521   2.695  1.00  0.00    -0.280 N 
HETATM   19  H   UNL     1      37.321 -10.796   2.917  1.00  0.00     0.189 HD
HETATM   20  C   UNL     1      39.064 -11.935   3.437  1.00  0.00     0.052 A 
HETATM   21  C   UNL     1      39.366 -11.320   4.749  1.00  0.00     0.072 C 
ENDBRANCH  10  14
ENDBRANCH   4   8
BRANCH   1  22
HETATM   22  N   UNL     1      42.854 -19.108   2.944  1.00  0.00    -0.327 N 
HETATM   23  C   UNL     1      43.935 -19.890   2.573  1.00  0.00     0.222 C 
HETATM   24  O   UNL     1      45.120 -19.605   2.700  1.00  0.00    -0.273 OA
HETATM   25  H   UNL     1      41.994 -19.309   2.447  1.00  0.00     0.169 HD
BRANCH  23  26
HETATM   26  C   UNL     1      43.522 -21.175   1.879  1.00  0.00     0.103 C 
BRANCH  26  27
HETATM   27  C   UNL     1      44.511 -22.307   2.137  1.00  0.00     0.005 C 
HETATM   28  C   UNL     1      44.584 -22.699   3.607  1.00  0.00     0.005 C 
ENDBRANCH  26  27
ENDBRANCH  23  26
ENDBRANCH   1  22
TORSDOF 5
ENDMDL
MODEL 10
REMARK VINA RESULT:      -6.9      2.399      7.532
REMARK  5 active torsions:
REMARK  status: ('A' for Active; 'I' for Inactive)
REMARK    1  A    between atoms: C_2  and  C_3 
REMARK    2  A    between atoms: C_3  and  C_4 
REMARK       I    between atoms: C_4  and  N_5 
REMARK    3  A    between atoms: N_5  and  C_6 
REMARK    4  A    between atoms: C_9  and  N_10 
REMARK       I    between atoms: N_10  and  C_11 
REMARK       I    between atoms: C_11  and  N_12 
REMARK    5  A    between atoms: N_12  and  C_13 
ROOT
HETATM    1  C   UNL     1      42.658 -17.998   3.516  1.00  0.00     0.043 C 
HETATM    2  C   UNL     1      42.907 -16.719   2.972  1.00  0.00    -0.008 C 
HETATM    3  C   UNL     1      44.018 -16.466   1.979  1.00  0.00     0.053 C 
HETATM    4  C   UNL     1      42.164 -15.607   3.451  1.00  0.00     0.044 C 
HETATM    5  C   UNL     1      41.278 -15.764   4.522  1.00  0.00     0.030 C 
HETATM    6  C   UNL     1      41.121 -17.007   5.126  1.00  0.00     0.005 C 
HETATM    7  C   UNL     1      41.803 -18.114   4.625  1.00  0.00     0.030 C 
ENDROOT
BRANCH   4   8
HETATM    8  N   UNL     1      42.273 -14.378   2.764  1.00  0.00    -0.308 N 
HETATM    9  C   UNL     1      41.728 -13.939   1.586  1.00  0.00     0.325 C 
HETATM   10  N   UNL     1      40.547 -14.524   1.225  1.00  0.00    -0.305 N 
HETATM   11  O   UNL     1      42.266 -12.992   1.019  1.00  0.00    -0.247 OA
HETATM   12  H   UNL     1      40.041 -14.953   1.985  1.00  0.00     0.171 HD
HETATM   13  H   UNL     1      42.959 -13.723   3.121  1.00  0.00     0.170 HD
BRANCH  10  14
HETATM   14  C   UNL     1      39.825 -14.251   0.076  1.00  0.00     0.086 A 
HETATM   15  C   UNL     1      40.017 -14.608  -1.292  1.00  0.00     0.079 A 
HETATM   16  C   UNL     1      41.062 -15.452  -1.924  1.00  0.00     0.075 C 
HETATM   17  N   UNL     1      39.040 -14.111  -2.068  1.00  0.00    -0.177 NA
HETATM   18  N   UNL     1      38.246 -13.456  -1.217  1.00  0.00    -0.280 N 
HETATM   19  H   UNL     1      37.435 -12.981  -1.597  1.00  0.00     0.189 HD
HETATM   20  C   UNL     1      38.650 -13.524   0.087  1.00  0.00     0.052 A 
HETATM   21  C   UNL     1      37.876 -12.861   1.161  1.00  0.00     0.072 C 
ENDBRANCH  10  14
ENDBRANCH   4   8
BRANCH   1  22
HETATM   22  N   UNL     1      43.214 -19.218   3.059  1.00  0.00    -0.327 N 
HETATM   23  C   UNL     1      44.317 -19.874   3.579  1.00  0.00     0.222 C 
HETATM   24  O   UNL     1      45.048 -19.474   4.478  1.00  0.00    -0.273 OA
HETATM   25  H   UNL     1      42.963 -19.488   2.116  1.00  0.00     0.169 HD
BRANCH  23  26
HETATM   26  C   UNL     1      44.627 -21.171   2.853  1.00  0.00     0.103 C 
BRANCH  26  27
HETATM   27  C   UNL     1      44.274 -22.394   3.695  1.00  0.00     0.005 C 
HETATM   28  C   UNL     1      45.091 -22.477   4.978  1.00  0.00     0.005 C 
ENDBRANCH  26  27
ENDBRANCH  23  26
ENDBRANCH   1  22
TORSDOF 5
ENDMDL
