MODEL 1
REMARK VINA RESULT:      -7.7      0.000      0.000
REMARK  5 active torsions:
REMARK  status: ('A' for Active; 'I' for Inactive)
REMARK    1  A    between atoms: C_3  and  N_4 
REMARK       I    between atoms: N_4  and  C_5 
REMARK       I    between atoms: C_5  and  N_6 
REMARK    2  A    between atoms: N_6  and  C_7 
REMARK    3  A    between atoms: C_7  and  C_8 
REMARK    4  A    between atoms: C_8  and  C_9 
REMARK    5  A    between atoms: N_15  and  C_16 
ROOT
HETATM    1  C   UNL     1      44.294 -18.472   8.731  1.00  0.00     0.054 C 
HETATM    2  C   UNL     1      44.261 -18.593   7.255  1.00  0.00     0.003 A 
HETATM    3  C   UNL     1      44.275 -17.566   6.281  1.00  0.00     0.159 A 
HETATM    4  N   UNL     1      44.257 -18.067   5.045  1.00  0.00    -0.149 NA
HETATM    5  N   UNL     1      44.187 -19.419   5.187  1.00  0.00    -0.241 N 
HETATM    6  C   UNL     1      44.232 -19.760   6.519  1.00  0.00     0.129 A 
ENDROOT
BRANCH   3   7
HETATM    7  N   UNL     1      44.331 -16.219   6.568  1.00  0.00    -0.291 N 
HETATM    8  C   UNL     1      43.536 -15.213   6.105  1.00  0.00     0.322 C 
HETATM    9  N   UNL     1      42.480 -15.571   5.328  1.00  0.00    -0.339 N 
HETATM   10  O   UNL     1      43.773 -14.053   6.433  1.00  0.00    -0.247 OA
HETATM   11  H   UNL     1      42.503 -16.533   4.996  1.00  0.00     0.164 HD
HETATM   12  H   UNL     1      45.048 -15.905   7.203  1.00  0.00     0.172 HD
BRANCH   9  13
HETATM   13  C   UNL     1      41.568 -14.621   4.715  1.00  0.00     0.082 C 
HETATM   14  C   UNL     1      40.260 -14.578   5.501  1.00  0.00     0.032 C 
BRANCH  13  15
HETATM   15  C   UNL     1      41.353 -14.901   3.215  1.00  0.00     0.029 C 
BRANCH  15  16
HETATM   16  C   UNL     1      41.526 -16.345   2.826  1.00  0.00    -0.013 A 
HETATM   17  C   UNL     1      40.507 -17.048   1.964  1.00  0.00     0.005 A 
HETATM   18  C   UNL     1      41.850 -16.688   1.394  1.00  0.00     0.005 A 
ENDBRANCH  15  16
ENDBRANCH  13  15
ENDBRANCH   9  13
ENDBRANCH   3   7
BRANCH   5  19
HETATM   19  C   UNL     1      44.142 -20.246   4.024  1.00  0.00     0.079 A 
HETATM   20  C   UNL     1      44.645 -21.555   3.947  1.00  0.00     0.062 A 
HETATM   21 CL   UNL     1      45.247 -22.483   5.277  1.00  0.00    -0.082 Cl
HETATM   22  C   UNL     1      44.586 -22.256   2.729  1.00  0.00     0.026 A 
HETATM   23  C   UNL     1      44.019 -21.680   1.593  1.00  0.00     0.002 A 
HETATM   24  C   UNL     1      43.492 -20.399   1.664  1.00  0.00     0.002 A 
HETATM   25  C   UNL     1      43.547 -19.691   2.867  1.00  0.00     0.033 A 
ENDBRANCH   5  19
TORSDOF 5
ENDMDL
MODEL 2
REMARK VINA RESULT:      -7.4      3.486      4.837
REMARK  5 active torsions:
REMARK  status: ('A' for Active; 'I' for Inactive)
REMARK    1  A    between atoms: C_3  and  N_4 
REMARK       I    between atoms: N_4  and  C_5 
REMARK       I    between atoms: C_5  and  N_6 
REMARK    2  A    between atoms: N_6  and  C_7 
REMARK    3  A    between atoms: C_7  and  C_8 
REMARK    4  A    between atoms: C_8  and  C_9 
REMARK    5  A    between atoms: N_15  and  C_16 
ROOT
HETATM    1  C   UNL     1      42.043 -14.113   4.412  1.00  0.00     0.054 C 
HETATM    2  C   UNL     1      42.054 -15.499   3.886  1.00  0.00     0.003 A 
HETATM    3  C   UNL     1      41.063 -16.164   3.125  1.00  0.00     0.159 A 
HETATM    4  N   UNL     1      41.440 -17.406   2.814  1.00  0.00    -0.149 NA
HETATM    5  N   UNL     1      42.656 -17.587   3.400  1.00  0.00    -0.241 N 
HETATM    6  C   UNL     1      43.064 -16.428   4.017  1.00  0.00     0.129 A 
ENDROOT
BRANCH   3   7
HETATM    7  N   UNL     1      39.872 -15.597   2.726  1.00  0.00    -0.291 N 
HETATM    8  C   UNL     1      39.543 -15.063   1.516  1.00  0.00     0.322 C 
HETATM    9  N   UNL     1      40.463 -15.177   0.522  1.00  0.00    -0.339 N 
HETATM   10  O   UNL     1      38.437 -14.550   1.359  1.00  0.00    -0.247 OA
HETATM   11  H   UNL     1      41.390 -15.463   0.832  1.00  0.00     0.164 HD
HETATM   12  H   UNL     1      39.123 -15.557   3.400  1.00  0.00     0.172 HD
BRANCH   9  13
HETATM   13  C   UNL     1      40.290 -14.619  -0.808  1.00  0.00     0.082 C 
HETATM   14  C   UNL     1      40.909 -15.553  -1.845  1.00  0.00     0.032 C 
BRANCH  13  15
HETATM   15  C   UNL     1      40.823 -13.177  -0.912  1.00  0.00     0.029 C 
BRANCH  15  16
HETATM   16  C   UNL     1      42.140 -13.057  -1.631  1.00  0.00    -0.013 A 
HETATM   17  C   UNL     1      42.301 -12.137  -2.816  1.00  0.00     0.005 A 
HETATM   18  C   UNL     1      42.936 -11.783  -1.501  1.00  0.00     0.005 A 
ENDBRANCH  15  16
ENDBRANCH  13  15
ENDBRANCH   9  13
ENDBRANCH   3   7
BRANCH   5  19
HETATM   19  C   UNL     1      43.325 -18.841   3.255  1.00  0.00     0.079 A 
HETATM   20  C   UNL     1      44.239 -19.376   4.178  1.00  0.00     0.062 A 
HETATM   21 CL   UNL     1      44.596 -18.723   5.737  1.00  0.00    -0.082 Cl
HETATM   22  C   UNL     1      44.872 -20.602   3.902  1.00  0.00     0.026 A 
HETATM   23  C   UNL     1      44.597 -21.309   2.732  1.00  0.00     0.002 A 
HETATM   24  C   UNL     1      43.673 -20.805   1.828  1.00  0.00     0.002 A 
HETATM   25  C   UNL     1      43.040 -19.588   2.088  1.00  0.00     0.033 A 
ENDBRANCH   5  19
TORSDOF 5
ENDMDL
MODEL 3
REMARK VINA RESULT:      -7.3      4.220      7.304
REMARK  5 active torsions:
REMARK  status: ('A' for Active; 'I' for Inactive)
REMARK    1  A    between atoms: C_3  and  N_4 
REMARK       I    between atoms: N_4  and  C_5 
REMARK       I    between atoms: C_5  and  N_6 
REMARK    2  A    between atoms: N_6  and  C_7 
REMARK    3  A    between atoms: C_7  and  C_8 
REMARK    4  A    between atoms: C_8  and  C_9 
REMARK    5  A    between atoms: N_15  and  C_16 
ROOT
HETATM    1  C   UNL     1      42.666 -13.606   3.450  1.00  0.00     0.054 C 
HETATM    2  C   UNL     1      41.831 -14.236   2.401  1.00  0.00     0.003 A 
HETATM    3  C   UNL     1      40.998 -15.376   2.498  1.00  0.00     0.159 A 
HETATM    4  N   UNL     1      40.382 -15.630   1.341  1.00  0.00    -0.149 NA
HETATM    5  N   UNL     1      40.833 -14.693   0.462  1.00  0.00    -0.241 N 
HETATM    6  C   UNL     1      41.679 -13.813   1.096  1.00  0.00     0.129 A 
ENDROOT
BRANCH   3   7
HETATM    7  N   UNL     1      40.816 -16.115   3.647  1.00  0.00    -0.291 N 
HETATM    8  C   UNL     1      41.429 -17.274   4.023  1.00  0.00     0.322 C 
HETATM    9  N   UNL     1      42.423 -17.733   3.219  1.00  0.00    -0.339 N 
HETATM   10  O   UNL     1      41.096 -17.823   5.071  1.00  0.00    -0.247 OA
HETATM   11  H   UNL     1      42.475 -17.283   2.307  1.00  0.00     0.164 HD
HETATM   12  H   UNL     1      40.145 -15.778   4.320  1.00  0.00     0.172 HD
BRANCH   9  13
HETATM   13  C   UNL     1      43.140 -18.975   3.449  1.00  0.00     0.082 C 
HETATM   14  C   UNL     1      44.258 -18.748   4.463  1.00  0.00     0.032 C 
BRANCH  13  15
HETATM   15  C   UNL     1      43.644 -19.611   2.140  1.00  0.00     0.029 C 
BRANCH  15  16
HETATM   16  C   UNL     1      43.404 -21.095   2.042  1.00  0.00    -0.013 A 
HETATM   17  C   UNL     1      44.349 -21.989   1.278  1.00  0.00     0.005 A 
HETATM   18  C   UNL     1      44.320 -22.039   2.780  1.00  0.00     0.005 A 
ENDBRANCH  15  16
ENDBRANCH  13  15
ENDBRANCH   9  13
ENDBRANCH   3   7
BRANCH   5  19
HETATM   19  C   UNL     1      40.359 -14.709  -0.885  1.00  0.00     0.079 A 
HETATM   20  C   UNL     1      39.248 -13.988  -1.355  1.00  0.00     0.062 A 
HETATM   21 CL   UNL     1      38.356 -12.813  -0.455  1.00  0.00    -0.082 Cl
HETATM   22  C   UNL     1      38.847 -14.122  -2.697  1.00  0.00     0.026 A 
HETATM   23  C   UNL     1      39.542 -14.947  -3.579  1.00  0.00     0.002 A 
HETATM   24  C   UNL     1      40.658 -15.640  -3.134  1.00  0.00     0.002 A 
HETATM   25  C   UNL     1      41.066 -15.519  -1.804  1.00  0.00     0.033 A 
ENDBRANCH   5  19
TORSDOF 5
ENDMDL
MODEL 4
REMARK VINA RESULT:      -7.3      2.298      3.572
REMARK  5 active torsions:
REMARK  status: ('A' for Active; 'I' for Inactive)
REMARK    1  A    between atoms: C_3  and  N_4 
REMARK       I    between atoms: N_4  and  C_5 
REMARK       I    between atoms: C_5  and  N_6 
REMARK    2  A    between atoms: N_6  and  C_7 
REMARK    3  A    between atoms: C_7  and  C_8 
REMARK    4  A    between atoms: C_8  and  C_9 
REMARK    5  A    between atoms: N_15  and  C_16 
ROOT
HETATM    1  C   UNL     1      42.163 -16.917   0.299  1.00  0.00     0.054 C 
HETATM    2  C   UNL     1      42.890 -17.553   1.424  1.00  0.00     0.003 A 
HETATM    3  C   UNL     1      43.653 -16.939   2.445  1.00  0.00     0.159 A 
HETATM    4  N   UNL     1      44.141 -17.841   3.299  1.00  0.00    -0.149 NA
HETATM    5  N   UNL     1      43.745 -19.056   2.827  1.00  0.00    -0.241 N 
HETATM    6  C   UNL     1      42.950 -18.900   1.716  1.00  0.00     0.129 A 
ENDROOT
BRANCH   3   7
HETATM    7  N   UNL     1      43.844 -15.580   2.567  1.00  0.00    -0.291 N 
HETATM    8  C   UNL     1      43.042 -14.654   3.164  1.00  0.00     0.322 C 
HETATM    9  N   UNL     1      41.944 -15.119   3.817  1.00  0.00    -0.339 N 
HETATM   10  O   UNL     1      43.355 -13.466   3.129  1.00  0.00    -0.247 OA
HETATM   11  H   UNL     1      41.714 -16.092   3.621  1.00  0.00     0.164 HD
HETATM   12  H   UNL     1      44.684 -15.187   2.170  1.00  0.00     0.172 HD
BRANCH   9  13
HETATM   13  C   UNL     1      40.963 -14.264   4.461  1.00  0.00     0.082 C 
HETATM   14  C   UNL     1      40.425 -14.946   5.716  1.00  0.00     0.032 C 
BRANCH  13  15
HETATM   15  C   UNL     1      39.844 -13.828   3.495  1.00  0.00     0.029 C 
BRANCH  15  16
HETATM   16  C   UNL     1      39.560 -14.815   2.394  1.00  0.00    -0.013 A 
HETATM   17  C   UNL     1      38.369 -14.648   1.484  1.00  0.00     0.005 A 
HETATM   18  C   UNL     1      39.754 -14.393   0.959  1.00  0.00     0.005 A 
ENDBRANCH  15  16
ENDBRANCH  13  15
ENDBRANCH   9  13
ENDBRANCH   3   7
BRANCH   5  19
HETATM   19  C   UNL     1      44.128 -20.240   3.530  1.00  0.00     0.079 A 
HETATM   20  C   UNL     1      44.296 -21.505   2.943  1.00  0.00     0.062 A 
HETATM   21 CL   UNL     1      44.253 -21.843   1.248  1.00  0.00    -0.082 Cl
HETATM   22  C   UNL     1      44.628 -22.609   3.748  1.00  0.00     0.026 A 
HETATM   23  C   UNL     1      44.812 -22.471   5.123  1.00  0.00     0.002 A 
HETATM   24  C   UNL     1      44.678 -21.220   5.710  1.00  0.00     0.002 A 
HETATM   25  C   UNL     1      44.345 -20.116   4.922  1.00  0.00     0.033 A 
ENDBRANCH   5  19
TORSDOF 5
ENDMDL
MODEL 5
REMARK VINA RESULT:      -7.3      3.698      5.207
REMARK  5 active torsions:
REMARK  status: ('A' for Active; 'I' for Inactive)
REMARK    1  A    between atoms: C_3  and  N_4 
REMARK       I    between atoms: N_4  and  C_5 
REMARK       I    between atoms: C_5  and  N_6 
REMARK    2  A    between atoms: N_6  and  C_7 
REMARK    3  A    between atoms: C_7  and  C_8 
REMARK    4  A    between atoms: C_8  and  C_9 
REMARK    5  A    between atoms: N_15  and  C_16 
ROOT
HETATM    1  C   UNL     1      41.075 -13.743   4.902  1.00  0.00     0.054 C 
HETATM    2  C   UNL     1      41.380 -15.058   4.290  1.00  0.00     0.003 A 
HETATM    3  C   UNL     1      40.653 -15.765   3.303  1.00  0.00     0.159 A 
HETATM    4  N   UNL     1      41.254 -16.913   2.985  1.00  0.00    -0.149 NA
HETATM    5  N   UNL     1      42.352 -16.997   3.785  1.00  0.00    -0.241 N 
HETATM    6  C   UNL     1      42.469 -15.862   4.553  1.00  0.00     0.129 A 
ENDROOT
BRANCH   3   7
HETATM    7  N   UNL     1      39.489 -15.315   2.718  1.00  0.00    -0.291 N 
HETATM    8  C   UNL     1      39.280 -14.913   1.432  1.00  0.00     0.322 C 
HETATM    9  N   UNL     1      40.317 -15.053   0.566  1.00  0.00    -0.339 N 
HETATM   10  O   UNL     1      38.174 -14.490   1.102  1.00  0.00    -0.247 OA
HETATM   11  H   UNL     1      41.214 -15.249   1.006  1.00  0.00     0.164 HD
HETATM   12  H   UNL     1      38.664 -15.266   3.294  1.00  0.00     0.172 HD
BRANCH   9  13
HETATM   13  C   UNL     1      40.275 -14.628  -0.822  1.00  0.00     0.082 C 
HETATM   14  C   UNL     1      41.032 -15.627  -1.693  1.00  0.00     0.032 C 
BRANCH  13  15
HETATM   15  C   UNL     1      40.772 -13.181  -1.006  1.00  0.00     0.029 C 
BRANCH  15  16
HETATM   16  C   UNL     1      42.204 -13.075  -1.460  1.00  0.00    -0.013 A 
HETATM   17  C   UNL     1      42.561 -12.414  -2.768  1.00  0.00     0.005 A 
HETATM   18  C   UNL     1      42.874 -11.724  -1.470  1.00  0.00     0.005 A 
ENDBRANCH  15  16
ENDBRANCH  13  15
ENDBRANCH   9  13
ENDBRANCH   3   7
BRANCH   5  19
HETATM   19  C   UNL     1      43.207 -18.138   3.686  1.00  0.00     0.079 A 
HETATM   20  C   UNL     1      43.755 -18.630   2.491  1.00  0.00     0.062 A 
HETATM   21 CL   UNL     1      43.657 -17.862   0.945  1.00  0.00    -0.082 Cl
HETATM   22  C   UNL     1      44.547 -19.793   2.513  1.00  0.00     0.026 A 
HETATM   23  C   UNL     1      44.813 -20.462   3.707  1.00  0.00     0.002 A 
HETATM   24  C   UNL     1      44.302 -19.967   4.898  1.00  0.00     0.002 A 
HETATM   25  C   UNL     1      43.512 -18.815   4.889  1.00  0.00     0.033 A 
ENDBRANCH   5  19
TORSDOF 5
ENDMDL
MODEL 6
REMARK VINA RESULT:      -7.2      1.780      2.627
REMARK  5 active torsions:
REMARK  status: ('A' for Active; 'I' for Inactive)
REMARK    1  A    between atoms: C_3  and  N_4 
REMARK       I    between atoms: N_4  and  C_5 
REMARK       I    between atoms: C_5  and  N_6 
REMARK    2  A    between atoms: N_6  and  C_7 
REMARK    3  A    between atoms: C_7  and  C_8 
REMARK    4  A    between atoms: C_8  and  C_9 
REMARK    5  A    between atoms: N_15  and  C_16 
ROOT
HETATM    1  C   UNL     1      44.380 -15.083   7.006  1.00  0.00     0.054 C 
HETATM    2  C   UNL     1      43.920 -16.360   6.412  1.00  0.00     0.003 A 
HETATM    3  C   UNL     1      42.650 -16.682   5.878  1.00  0.00     0.159 A 
HETATM    4  N   UNL     1      42.619 -17.932   5.411  1.00  0.00    -0.149 NA
HETATM    5  N   UNL     1      43.847 -18.460   5.672  1.00  0.00    -0.241 N 
HETATM    6  C   UNL     1      44.663 -17.509   6.239  1.00  0.00     0.129 A 
ENDROOT
BRANCH   3   7
HETATM    7  N   UNL     1      41.585 -15.809   5.815  1.00  0.00    -0.291 N 
HETATM    8  C   UNL     1      40.990 -15.266   4.716  1.00  0.00     0.322 C 
HETATM    9  N   UNL     1      41.423 -15.698   3.503  1.00  0.00    -0.339 N 
HETATM   10  O   UNL     1      40.075 -14.457   4.859  1.00  0.00    -0.247 OA
HETATM   11  H   UNL     1      42.292 -16.229   3.527  1.00  0.00     0.164 HD
HETATM   12  H   UNL     1      41.169 -15.514   6.685  1.00  0.00     0.172 HD
BRANCH   9  13
HETATM   13  C   UNL     1      40.931 -15.184   2.237  1.00  0.00     0.082 C 
HETATM   14  C   UNL     1      39.539 -15.746   1.956  1.00  0.00     0.032 C 
BRANCH  13  15
HETATM   15  C   UNL     1      41.918 -15.433   1.080  1.00  0.00     0.029 C 
BRANCH  15  16
HETATM   16  C   UNL     1      42.079 -16.883   0.708  1.00  0.00    -0.013 A 
HETATM   17  C   UNL     1      43.414 -17.574   0.825  1.00  0.00     0.005 A 
HETATM   18  C   UNL     1      42.315 -17.900   1.797  1.00  0.00     0.005 A 
ENDBRANCH  15  16
ENDBRANCH  13  15
ENDBRANCH   9  13
ENDBRANCH   3   7
BRANCH   5  19
HETATM   19  C   UNL     1      44.125 -19.809   5.294  1.00  0.00     0.079 A 
HETATM   20  C   UNL     1      44.109 -20.908   6.169  1.00  0.00     0.062 A 
HETATM   21 CL   UNL     1      43.580 -20.879   7.815  1.00  0.00    -0.082 Cl
HETATM   22  C   UNL     1      44.448 -22.187   5.690  1.00  0.00     0.026 A 
HETATM   23  C   UNL     1      44.785 -22.390   4.352  1.00  0.00     0.002 A 
HETATM   24  C   UNL     1      44.775 -21.317   3.473  1.00  0.00     0.002 A 
HETATM   25  C   UNL     1      44.444 -20.042   3.936  1.00  0.00     0.033 A 
ENDBRANCH   5  19
TORSDOF 5
ENDMDL
MODEL 7
REMARK VINA RESULT:      -7.2      2.197      2.866
REMARK  5 active torsions:
REMARK  status: ('A' for Active; 'I' for Inactive)
REMARK    1  A    between atoms: C_3  and  N_4 
REMARK       I    between atoms: N_4  and  C_5 
REMARK       I    between atoms: C_5  and  N_6 
REMARK    2  A    between atoms: N_6  and  C_7 
REMARK    3  A    between atoms: C_7  and  C_8 
REMARK    4  A    between atoms: C_8  and  C_9 
REMARK    5  A    between atoms: N_15  and  C_16 
ROOT
HETATM    1  C   UNL     1      44.358 -15.973   7.041  1.00  0.00     0.054 C 
HETATM    2  C   UNL     1      43.878 -16.968   6.054  1.00  0.00     0.003 A 
HETATM    3  C   UNL     1      42.610 -17.058   5.431  1.00  0.00     0.159 A 
HETATM    4  N   UNL     1      42.558 -18.082   4.577  1.00  0.00    -0.149 NA
HETATM    5  N   UNL     1      43.768 -18.701   4.658  1.00  0.00    -0.241 N 
HETATM    6  C   UNL     1      44.596 -18.016   5.516  1.00  0.00     0.129 A 
ENDROOT
BRANCH   3   7
HETATM    7  N   UNL     1      41.568 -16.183   5.652  1.00  0.00    -0.291 N 
HETATM    8  C   UNL     1      40.878 -15.431   4.748  1.00  0.00     0.322 C 
HETATM    9  N   UNL     1      41.175 -15.620   3.435  1.00  0.00    -0.339 N 
HETATM   10  O   UNL     1      40.005 -14.660   5.141  1.00  0.00    -0.247 OA
HETATM   11  H   UNL     1      42.027 -16.151   3.264  1.00  0.00     0.164 HD
HETATM   12  H   UNL     1      41.251 -16.062   6.601  1.00  0.00     0.172 HD
BRANCH   9  13
HETATM   13  C   UNL     1      40.569 -14.865   2.352  1.00  0.00     0.082 C 
HETATM   14  C   UNL     1      39.194 -15.442   2.024  1.00  0.00     0.032 C 
BRANCH  13  15
HETATM   15  C   UNL     1      41.487 -14.774   1.118  1.00  0.00     0.029 C 
BRANCH  15  16
HETATM   16  C   UNL     1      40.750 -14.689  -0.193  1.00  0.00    -0.013 A 
HETATM   17  C   UNL     1      41.426 -14.165  -1.435  1.00  0.00     0.005 A 
HETATM   18  C   UNL     1      41.124 -15.631  -1.309  1.00  0.00     0.005 A 
ENDBRANCH  15  16
ENDBRANCH  13  15
ENDBRANCH   9  13
ENDBRANCH   3   7
BRANCH   5  19
HETATM   19  C   UNL     1      44.019 -19.858   3.858  1.00  0.00     0.079 A 
HETATM   20  C   UNL     1      43.838 -19.927   2.467  1.00  0.00     0.062 A 
HETATM   21 CL   UNL     1      43.456 -18.596   1.432  1.00  0.00    -0.082 Cl
HETATM   22  C   UNL     1      44.074 -21.139   1.792  1.00  0.00     0.026 A 
HETATM   23  C   UNL     1      44.502 -22.275   2.478  1.00  0.00     0.002 A 
HETATM   24  C   UNL     1      44.713 -22.209   3.848  1.00  0.00     0.002 A 
HETATM   25  C   UNL     1      44.480 -21.013   4.530  1.00  0.00     0.033 A 
ENDBRANCH   5  19
TORSDOF 5
ENDMDL
MODEL 8
REMARK VINA RESULT:      -7.1      2.187      4.289
REMARK  5 active torsions:
REMARK  status: ('A' for Active; 'I' for Inactive)
REMARK    1  A    between atoms: C_3  and  N_4 
REMARK       I    between atoms: N_4  and  C_5 
REMARK       I    between atoms: C_5  and  N_6 
REMARK    2  A    between atoms: N_6  and  C_7 
REMARK    3  A    between atoms: C_7  and  C_8 
REMARK    4  A    between atoms: C_8  and  C_9 
REMARK    5  A    between atoms: N_15  and  C_16 
ROOT
HETATM    1  C   UNL     1      41.407 -17.160   0.721  1.00  0.00     0.054 C 
HETATM    2  C   UNL     1      42.382 -17.768   1.657  1.00  0.00     0.003 A 
HETATM    3  C   UNL     1      43.392 -17.135   2.419  1.00  0.00     0.159 A 
HETATM    4  N   UNL     1      44.062 -18.013   3.167  1.00  0.00    -0.149 NA
HETATM    5  N   UNL     1      43.534 -19.234   2.876  1.00  0.00    -0.241 N 
HETATM    6  C   UNL     1      42.486 -19.102   1.995  1.00  0.00     0.129 A 
ENDROOT
BRANCH   3   7
HETATM    7  N   UNL     1      43.637 -15.778   2.416  1.00  0.00    -0.291 N 
HETATM    8  C   UNL     1      43.237 -14.837   3.317  1.00  0.00     0.322 C 
HETATM    9  N   UNL     1      42.588 -15.280   4.425  1.00  0.00    -0.339 N 
HETATM   10  O   UNL     1      43.510 -13.654   3.120  1.00  0.00    -0.247 OA
HETATM   11  H   UNL     1      42.278 -16.249   4.377  1.00  0.00     0.164 HD
HETATM   12  H   UNL     1      44.184 -15.402   1.658  1.00  0.00     0.172 HD
BRANCH   9  13
HETATM   13  C   UNL     1      42.053 -14.406   5.454  1.00  0.00     0.082 C 
HETATM   14  C   UNL     1      40.817 -13.681   4.926  1.00  0.00     0.032 C 
BRANCH  13  15
HETATM   15  C   UNL     1      43.116 -13.440   6.012  1.00  0.00     0.029 C 
BRANCH  15  16
HETATM   16  C   UNL     1      44.155 -14.101   6.879  1.00  0.00    -0.013 A 
HETATM   17  C   UNL     1      45.602 -13.681   6.819  1.00  0.00     0.005 A 
HETATM   18  C   UNL     1      44.767 -13.323   8.017  1.00  0.00     0.005 A 
ENDBRANCH  15  16
ENDBRANCH  13  15
ENDBRANCH   9  13
ENDBRANCH   3   7
BRANCH   5  19
HETATM   19  C   UNL     1      44.057 -20.397   3.520  1.00  0.00     0.079 A 
HETATM   20  C   UNL     1      44.307 -21.625   2.885  1.00  0.00     0.062 A 
HETATM   21 CL   UNL     1      44.206 -21.919   1.184  1.00  0.00    -0.082 Cl
HETATM   22  C   UNL     1      44.779 -22.716   3.636  1.00  0.00     0.026 A 
HETATM   23  C   UNL     1      45.021 -22.599   5.004  1.00  0.00     0.002 A 
HETATM   24  C   UNL     1      44.807 -21.382   5.637  1.00  0.00     0.002 A 
HETATM   25  C   UNL     1      44.335 -20.292   4.903  1.00  0.00     0.033 A 
ENDBRANCH   5  19
TORSDOF 5
ENDMDL
MODEL 9
REMARK VINA RESULT:      -7.1      2.191      4.051
REMARK  5 active torsions:
REMARK  status: ('A' for Active; 'I' for Inactive)
REMARK    1  A    between atoms: C_3  and  N_4 
REMARK       I    between atoms: N_4  and  C_5 
REMARK       I    between atoms: C_5  and  N_6 
REMARK    2  A    between atoms: N_6  and  C_7 
REMARK    3  A    between atoms: C_7  and  C_8 
REMARK    4  A    between atoms: C_8  and  C_9 
REMARK    5  A    between atoms: N_15  and  C_16 
ROOT
HETATM    1  C   UNL     1      41.553 -17.068   0.501  1.00  0.00     0.054 C 
HETATM    2  C   UNL     1      42.477 -17.675   1.488  1.00  0.00     0.003 A 
HETATM    3  C   UNL     1      43.441 -17.040   2.305  1.00  0.00     0.159 A 
HETATM    4  N   UNL     1      44.072 -17.918   3.088  1.00  0.00    -0.149 NA
HETATM    5  N   UNL     1      43.564 -19.140   2.766  1.00  0.00    -0.241 N 
HETATM    6  C   UNL     1      42.566 -19.009   1.829  1.00  0.00     0.129 A 
ENDROOT
BRANCH   3   7
HETATM    7  N   UNL     1      43.682 -15.683   2.319  1.00  0.00    -0.291 N 
HETATM    8  C   UNL     1      43.465 -14.787   3.323  1.00  0.00     0.322 C 
HETATM    9  N   UNL     1      43.043 -15.286   4.514  1.00  0.00    -0.339 N 
HETATM   10  O   UNL     1      43.694 -13.594   3.132  1.00  0.00    -0.247 OA
HETATM   11  H   UNL     1      42.729 -16.255   4.481  1.00  0.00     0.164 HD
HETATM   12  H   UNL     1      44.071 -15.267   1.487  1.00  0.00     0.172 HD
BRANCH   9  13
HETATM   13  C   UNL     1      42.718 -14.464   5.666  1.00  0.00     0.082 C 
HETATM   14  C   UNL     1      43.714 -14.733   6.792  1.00  0.00     0.032 C 
BRANCH  13  15
HETATM   15  C   UNL     1      41.253 -14.636   6.114  1.00  0.00     0.029 C 
BRANCH  15  16
HETATM   16  C   UNL     1      40.285 -13.711   5.426  1.00  0.00    -0.013 A 
HETATM   17  C   UNL     1      39.389 -12.790   6.216  1.00  0.00     0.005 A 
HETATM   18  C   UNL     1      40.548 -12.226   5.443  1.00  0.00     0.005 A 
ENDBRANCH  15  16
ENDBRANCH  13  15
ENDBRANCH   9  13
ENDBRANCH   3   7
BRANCH   5  19
HETATM   19  C   UNL     1      44.055 -20.302   3.437  1.00  0.00     0.079 A 
HETATM   20  C   UNL     1      44.244 -21.557   2.836  1.00  0.00     0.062 A 
HETATM   21 CL   UNL     1      44.098 -21.899   1.147  1.00  0.00    -0.082 Cl
HETATM   22  C   UNL     1      44.689 -22.643   3.612  1.00  0.00     0.026 A 
HETATM   23  C   UNL     1      44.963 -22.494   4.971  1.00  0.00     0.002 A 
HETATM   24  C   UNL     1      44.809 -21.251   5.568  1.00  0.00     0.002 A 
HETATM   25  C   UNL     1      44.365 -20.166   4.810  1.00  0.00     0.033 A 
ENDBRANCH   5  19
TORSDOF 5
ENDMDL
MODEL 10
REMARK VINA RESULT:      -7.0      3.071      4.011
REMARK  5 active torsions:
REMARK  status: ('A' for Active; 'I' for Inactive)
REMARK    1  A    between atoms: C_3  and  N_4 
REMARK       I    between atoms: N_4  and  C_5 
REMARK       I    between atoms: C_5  and  N_6 
REMARK    2  A    between atoms: N_6  and  C_7 
REMARK    3  A    between atoms: C_7  and  C_8 
REMARK    4  A    between atoms: C_8  and  C_9 
REMARK    5  A    between atoms: N_15  and  C_16 
ROOT
HETATM    1  C   UNL     1      42.171 -14.512   5.728  1.00  0.00     0.054 C 
HETATM    2  C   UNL     1      42.675 -15.492   4.737  1.00  0.00     0.003 A 
HETATM    3  C   UNL     1      43.094 -15.267   3.405  1.00  0.00     0.159 A 
HETATM    4  N   UNL     1      43.507 -16.396   2.826  1.00  0.00    -0.149 NA
HETATM    5  N   UNL     1      43.325 -17.380   3.750  1.00  0.00    -0.241 N 
HETATM    6  C   UNL     1      42.862 -16.845   4.929  1.00  0.00     0.129 A 
ENDROOT
BRANCH   3   7
HETATM    7  N   UNL     1      43.106 -14.034   2.787  1.00  0.00    -0.291 N 
HETATM    8  C   UNL     1      42.279 -13.559   1.813  1.00  0.00     0.322 C 
HETATM    9  N   UNL     1      41.237 -14.351   1.449  1.00  0.00    -0.339 N 
HETATM   10  O   UNL     1      42.477 -12.441   1.341  1.00  0.00    -0.247 OA
HETATM   11  H   UNL     1      41.292 -15.310   1.789  1.00  0.00     0.164 HD
HETATM   12  H   UNL     1      43.811 -13.373   3.074  1.00  0.00     0.172 HD
BRANCH   9  13
HETATM   13  C   UNL     1      40.296 -14.016   0.395  1.00  0.00     0.082 C 
HETATM   14  C   UNL     1      38.871 -14.309   0.859  1.00  0.00     0.032 C 
BRANCH  13  15
HETATM   15  C   UNL     1      40.641 -14.706  -0.939  1.00  0.00     0.029 C 
BRANCH  15  16
HETATM   16  C   UNL     1      40.482 -13.825  -2.149  1.00  0.00    -0.013 A 
HETATM   17  C   UNL     1      41.106 -14.194  -3.472  1.00  0.00     0.005 A 
HETATM   18  C   UNL     1      39.617 -14.294  -3.292  1.00  0.00     0.005 A 
ENDBRANCH  15  16
ENDBRANCH  13  15
ENDBRANCH   9  13
ENDBRANCH   3   7
BRANCH   5  19
HETATM   19  C   UNL     1      43.670 -18.726   3.418  1.00  0.00     0.079 A 
HETATM   20  C   UNL     1      44.438 -19.581   4.226  1.00  0.00     0.062 A 
HETATM   21 CL   UNL     1      44.958 -19.245   5.840  1.00  0.00    -0.082 Cl
HETATM   22  C   UNL     1      44.753 -20.874   3.770  1.00  0.00     0.026 A 
HETATM   23  C   UNL     1      44.303 -21.333   2.533  1.00  0.00     0.002 A 
HETATM   24  C   UNL     1      43.519 -20.507   1.740  1.00  0.00     0.002 A 
HETATM   25  C   UNL     1      43.201 -19.220   2.179  1.00  0.00     0.033 A 
ENDBRANCH   5  19
TORSDOF 5
ENDMDL
