MODEL 1
REMARK VINA RESULT:      -8.0      0.000      0.000
REMARK  9 active torsions:
REMARK  status: ('A' for Active; 'I' for Inactive)
REMARK    1  A    between atoms: C_2  and  C_3 
REMARK    2  A    between atoms: C_4  and  N_5 
REMARK    3  A    between atoms: C_6  and  S_7 
REMARK    4  A    between atoms: S_7  and  C_8 
REMARK    5  A    between atoms: C_8  and  C_9 
REMARK       I    between atoms: C_9  and  N_10 
REMARK    6  A    between atoms: N_10  and  C_11 
REMARK    7  A    between atoms: C_12  and  O_13 
REMARK    8  A    between atoms: C_16  and  O_17 
REMARK    9  A    between atoms: C_26  and  N_27 
ROOT
HETATM    1  N   UNL     1      39.594 -13.694   1.871  1.00  0.00    -0.275 N 
HETATM    2  C   UNL     1      40.183 -12.898   2.889  1.00  0.00     0.177 A 
HETATM    3  N   UNL     1      39.775 -11.710   3.265  1.00  0.00    -0.204 NA
HETATM    4  C   UNL     1      38.645 -11.300   2.644  1.00  0.00     0.162 A 
HETATM    5  C   UNL     1      37.923 -11.922   1.661  1.00  0.00     0.081 A 
HETATM    6  C   UNL     1      38.423 -13.175   1.182  1.00  0.00     0.124 A 
HETATM    7  N   UNL     1      37.934 -10.176   2.949  1.00  0.00    -0.260 N 
HETATM    8  H   UNL     1      38.134  -9.484   3.664  1.00  0.00     0.191 HD
HETATM    9  N   UNL     1      36.822 -10.033   2.197  1.00  0.00    -0.177 NA
HETATM   10  C   UNL     1      36.795 -11.126   1.419  1.00  0.00     0.068 A 
HETATM   11  C   UNL     1      35.650 -11.342   0.503  1.00  0.00     0.073 C 
ENDROOT
BRANCH   2  12
HETATM   12  S   UNL     1      41.556 -13.548   3.807  1.00  0.00    -0.082 SA
BRANCH  12  13
HETATM   13  C   UNL     1      40.721 -14.346   5.197  1.00  0.00     0.185 C 
BRANCH  13  14
HETATM   14  C   UNL     1      41.260 -15.748   5.439  1.00  0.00     0.232 C 
HETATM   15  N   UNL     1      42.486 -15.969   4.832  1.00  0.00    -0.324 N 
HETATM   16  H   UNL     1      42.791 -15.258   4.179  1.00  0.00     0.169 HD
HETATM   17  O   UNL     1      40.583 -16.585   6.031  1.00  0.00    -0.272 OA
BRANCH  15  18
HETATM   18  C   UNL     1      43.251 -17.155   4.886  1.00  0.00     0.070 A 
HETATM   19  C   UNL     1      43.939 -17.608   6.028  1.00  0.00     0.097 A 
HETATM   20  C   UNL     1      44.613 -18.839   5.985  1.00  0.00     0.077 A 
HETATM   21  C   UNL     1      44.632 -19.605   4.813  1.00  0.00     0.092 A 
HETATM   22  C   UNL     1      44.023 -19.099   3.660  1.00  0.00     0.069 A 
HETATM   23 CL   UNL     1      44.067 -19.961   2.162  1.00  0.00    -0.081 Cl
HETATM   24  C   UNL     1      43.341 -17.883   3.694  1.00  0.00     0.059 A 
BRANCH  19  25
HETATM   25  O   UNL     1      44.044 -16.737   7.080  1.00  0.00    -0.354 OA
HETATM   26  C   UNL     1      43.425 -17.101   8.305  1.00  0.00     0.210 C 
ENDBRANCH  19  25
BRANCH  21  27
HETATM   27  O   UNL     1      45.288 -20.804   4.709  1.00  0.00    -0.354 OA
HETATM   28  C   UNL     1      44.698 -21.896   5.410  1.00  0.00     0.210 C 
ENDBRANCH  21  27
ENDBRANCH  15  18
ENDBRANCH  13  14
ENDBRANCH  12  13
ENDBRANCH   2  12
BRANCH   1  29
HETATM   29  C   UNL     1      40.179 -14.928   1.451  1.00  0.00     0.049 A 
HETATM   30  C   UNL     1      41.205 -14.967   0.479  1.00  0.00    -0.031 A 
HETATM   31  C   UNL     1      41.812 -16.201   0.186  1.00  0.00     0.009 A 
HETATM   32  C   UNL     1      41.409 -17.373   0.828  1.00  0.00     0.001 A 
HETATM   33  C   UNL     1      40.394 -17.333   1.777  1.00  0.00     0.002 A 
HETATM   34  C   UNL     1      39.789 -16.118   2.094  1.00  0.00     0.031 A 
BRANCH  30  35
HETATM   35  C   UNL     1      41.666 -13.740  -0.279  1.00  0.00     0.036 C 
HETATM   36  C   UNL     1      41.079 -13.657  -1.681  1.00  0.00     0.010 C 
ENDBRANCH  30  35
ENDBRANCH   1  29
BRANCH   6  37
HETATM   37  N   UNL     1      37.862 -13.793   0.161  1.00  0.00    -0.384 N 
HETATM   38  H   UNL     1      38.244 -14.642  -0.228  1.00  0.00     0.157 HD
HETATM   39  H   UNL     1      37.007 -13.423  -0.239  1.00  0.00     0.157 HD
ENDBRANCH   6  37
TORSDOF 9
ENDMDL
MODEL 2
REMARK VINA RESULT:      -8.0      3.765      8.894
REMARK  9 active torsions:
REMARK  status: ('A' for Active; 'I' for Inactive)
REMARK    1  A    between atoms: C_2  and  C_3 
REMARK    2  A    between atoms: C_4  and  N_5 
REMARK    3  A    between atoms: C_6  and  S_7 
REMARK    4  A    between atoms: S_7  and  C_8 
REMARK    5  A    between atoms: C_8  and  C_9 
REMARK       I    between atoms: C_9  and  N_10 
REMARK    6  A    between atoms: N_10  and  C_11 
REMARK    7  A    between atoms: C_12  and  O_13 
REMARK    8  A    between atoms: C_16  and  O_17 
REMARK    9  A    between atoms: C_26  and  N_27 
ROOT
HETATM    1  N   UNL     1      42.992 -16.892   5.105  1.00  0.00    -0.275 N 
HETATM    2  C   UNL     1      43.601 -17.135   3.845  1.00  0.00     0.177 A 
HETATM    3  N   UNL     1      44.266 -18.215   3.511  1.00  0.00    -0.204 NA
HETATM    4  C   UNL     1      44.267 -19.172   4.467  1.00  0.00     0.162 A 
HETATM    5  C   UNL     1      43.726 -19.140   5.725  1.00  0.00     0.081 A 
HETATM    6  C   UNL     1      43.084 -17.924   6.126  1.00  0.00     0.124 A 
HETATM    7  N   UNL     1      44.758 -20.437   4.324  1.00  0.00    -0.260 N 
HETATM    8  H   UNL     1      45.194 -20.850   3.507  1.00  0.00     0.191 HD
HETATM    9  N   UNL     1      44.589 -21.198   5.428  1.00  0.00    -0.177 NA
HETATM   10  C   UNL     1      43.924 -20.409   6.286  1.00  0.00     0.068 A 
HETATM   11  C   UNL     1      43.496 -20.953   7.596  1.00  0.00     0.073 C 
ENDROOT
BRANCH   2  12
HETATM   12  S   UNL     1      43.424 -15.931   2.554  1.00  0.00    -0.082 SA
BRANCH  12  13
HETATM   13  C   UNL     1      43.153 -16.982   1.109  1.00  0.00     0.185 C 
BRANCH  13  14
HETATM   14  C   UNL     1      41.800 -16.707   0.468  1.00  0.00     0.232 C 
HETATM   15  N   UNL     1      41.817 -15.615  -0.385  1.00  0.00    -0.324 N 
HETATM   16  H   UNL     1      42.650 -15.042  -0.354  1.00  0.00     0.169 HD
HETATM   17  O   UNL     1      40.810 -17.357   0.796  1.00  0.00    -0.272 OA
BRANCH  15  18
HETATM   18  C   UNL     1      40.731 -15.120  -1.140  1.00  0.00     0.070 A 
HETATM   19  C   UNL     1      39.922 -14.035  -0.755  1.00  0.00     0.097 A 
HETATM   20  C   UNL     1      38.911 -13.585  -1.620  1.00  0.00     0.077 A 
HETATM   21  C   UNL     1      38.681 -14.222  -2.845  1.00  0.00     0.092 A 
HETATM   22  C   UNL     1      39.430 -15.357  -3.173  1.00  0.00     0.069 A 
HETATM   23 CL   UNL     1      39.153 -16.231  -4.638  1.00  0.00    -0.081 Cl
HETATM   24  C   UNL     1      40.444 -15.805  -2.327  1.00  0.00     0.059 A 
BRANCH  19  25
HETATM   25  O   UNL     1      40.066 -13.572   0.526  1.00  0.00    -0.354 OA
HETATM   26  C   UNL     1      39.161 -14.053   1.510  1.00  0.00     0.210 C 
ENDBRANCH  19  25
BRANCH  21  27
HETATM   27  O   UNL     1      37.697 -13.838  -3.719  1.00  0.00    -0.354 OA
HETATM   28  C   UNL     1      37.200 -12.514  -3.550  1.00  0.00     0.210 C 
ENDBRANCH  21  27
ENDBRANCH  15  18
ENDBRANCH  13  14
ENDBRANCH  12  13
ENDBRANCH   2  12
BRANCH   1  29
HETATM   29  C   UNL     1      42.388 -15.635   5.416  1.00  0.00     0.049 A 
HETATM   30  C   UNL     1      43.137 -14.570   5.964  1.00  0.00    -0.031 A 
HETATM   31  C   UNL     1      42.508 -13.326   6.149  1.00  0.00     0.009 A 
HETATM   32  C   UNL     1      41.166 -13.139   5.812  1.00  0.00     0.001 A 
HETATM   33  C   UNL     1      40.430 -14.191   5.279  1.00  0.00     0.002 A 
HETATM   34  C   UNL     1      41.038 -15.429   5.074  1.00  0.00     0.031 A 
BRANCH  30  35
HETATM   35  C   UNL     1      44.585 -14.714   6.384  1.00  0.00     0.036 C 
HETATM   36  C   UNL     1      45.012 -13.663   7.399  1.00  0.00     0.010 C 
ENDBRANCH  30  35
ENDBRANCH   1  29
BRANCH   6  37
HETATM   37  N   UNL     1      42.636 -17.757   7.354  1.00  0.00    -0.384 N 
HETATM   38  H   UNL     1      42.385 -18.537   7.944  1.00  0.00     0.157 HD
HETATM   39  H   UNL     1      42.559 -16.822   7.736  1.00  0.00     0.157 HD
ENDBRANCH   6  37
TORSDOF 9
ENDMDL
MODEL 3
REMARK VINA RESULT:      -7.8      4.218      9.151
REMARK  9 active torsions:
REMARK  status: ('A' for Active; 'I' for Inactive)
REMARK    1  A    between atoms: C_2  and  C_3 
REMARK    2  A    between atoms: C_4  and  N_5 
REMARK    3  A    between atoms: C_6  and  S_7 
REMARK    4  A    between atoms: S_7  and  C_8 
REMARK    5  A    between atoms: C_8  and  C_9 
REMARK       I    between atoms: C_9  and  N_10 
REMARK    6  A    between atoms: N_10  and  C_11 
REMARK    7  A    between atoms: C_12  and  O_13 
REMARK    8  A    between atoms: C_16  and  O_17 
REMARK    9  A    between atoms: C_26  and  N_27 
ROOT
HETATM    1  N   UNL     1      42.714 -16.515   4.998  1.00  0.00    -0.275 N 
HETATM    2  C   UNL     1      43.264 -16.721   3.705  1.00  0.00     0.177 A 
HETATM    3  N   UNL     1      43.971 -17.759   3.329  1.00  0.00    -0.204 NA
HETATM    4  C   UNL     1      44.081 -18.715   4.280  1.00  0.00     0.162 A 
HETATM    5  C   UNL     1      43.613 -18.716   5.566  1.00  0.00     0.081 A 
HETATM    6  C   UNL     1      42.924 -17.541   6.008  1.00  0.00     0.124 A 
HETATM    7  N   UNL     1      44.638 -19.949   4.104  1.00  0.00    -0.260 N 
HETATM    8  H   UNL     1      45.050 -20.335   3.262  1.00  0.00     0.191 HD
HETATM    9  N   UNL     1      44.576 -20.720   5.212  1.00  0.00    -0.177 NA
HETATM   10  C   UNL     1      43.916 -19.972   6.110  1.00  0.00     0.068 A 
HETATM   11  C   UNL     1      43.596 -20.542   7.440  1.00  0.00     0.073 C 
ENDROOT
BRANCH   2  12
HETATM   12  S   UNL     1      42.943 -15.527   2.431  1.00  0.00    -0.082 SA
BRANCH  12  13
HETATM   13  C   UNL     1      41.461 -16.212   1.655  1.00  0.00     0.185 C 
BRANCH  13  14
HETATM   14  C   UNL     1      40.882 -15.255   0.622  1.00  0.00     0.232 C 
HETATM   15  N   UNL     1      41.785 -14.925  -0.376  1.00  0.00    -0.324 N 
HETATM   16  H   UNL     1      42.744 -15.209  -0.217  1.00  0.00     0.169 HD
HETATM   17  O   UNL     1      39.760 -14.778   0.772  1.00  0.00    -0.272 OA
BRANCH  15  18
HETATM   18  C   UNL     1      41.546 -14.079  -1.482  1.00  0.00     0.070 A 
HETATM   19  C   UNL     1      40.723 -14.411  -2.574  1.00  0.00     0.097 A 
HETATM   20  C   UNL     1      40.504 -13.462  -3.587  1.00  0.00     0.077 A 
HETATM   21  C   UNL     1      41.116 -12.205  -3.536  1.00  0.00     0.092 A 
HETATM   22  C   UNL     1      42.004 -11.923  -2.492  1.00  0.00     0.069 A 
HETATM   23 CL   UNL     1      42.847 -10.416  -2.404  1.00  0.00    -0.081 Cl
HETATM   24  C   UNL     1      42.221 -12.853  -1.476  1.00  0.00     0.059 A 
BRANCH  19  25
HETATM   25  O   UNL     1      40.303 -15.711  -2.668  1.00  0.00    -0.354 OA
HETATM   26  C   UNL     1      39.473 -16.062  -3.766  1.00  0.00     0.210 C 
ENDBRANCH  19  25
BRANCH  21  27
HETATM   27  O   UNL     1      40.952 -11.249  -4.504  1.00  0.00    -0.354 OA
HETATM   28  C   UNL     1      39.636 -10.720  -4.636  1.00  0.00     0.210 C 
ENDBRANCH  21  27
ENDBRANCH  15  18
ENDBRANCH  13  14
ENDBRANCH  12  13
ENDBRANCH   2  12
BRANCH   1  29
HETATM   29  C   UNL     1      42.055 -15.296   5.348  1.00  0.00     0.049 A 
HETATM   30  C   UNL     1      42.783 -14.138   5.703  1.00  0.00    -0.031 A 
HETATM   31  C   UNL     1      42.080 -12.942   5.934  1.00  0.00     0.009 A 
HETATM   32  C   UNL     1      40.689 -12.892   5.829  1.00  0.00     0.001 A 
HETATM   33  C   UNL     1      39.975 -14.034   5.486  1.00  0.00     0.002 A 
HETATM   34  C   UNL     1      40.653 -15.227   5.238  1.00  0.00     0.031 A 
BRANCH  30  35
HETATM   35  C   UNL     1      44.288 -14.131   5.869  1.00  0.00     0.036 C 
HETATM   36  C   UNL     1      44.720 -14.065   7.327  1.00  0.00     0.010 C 
ENDBRANCH  30  35
ENDBRANCH   1  29
BRANCH   6  37
HETATM   37  N   UNL     1      42.537 -17.402   7.260  1.00  0.00    -0.384 N 
HETATM   38  H   UNL     1      42.850 -16.634   7.836  1.00  0.00     0.157 HD
HETATM   39  H   UNL     1      41.886 -18.068   7.660  1.00  0.00     0.157 HD
ENDBRANCH   6  37
TORSDOF 9
ENDMDL
MODEL 4
REMARK VINA RESULT:      -7.8      3.226      4.700
REMARK  9 active torsions:
REMARK  status: ('A' for Active; 'I' for Inactive)
REMARK    1  A    between atoms: C_2  and  C_3 
REMARK    2  A    between atoms: C_4  and  N_5 
REMARK    3  A    between atoms: C_6  and  S_7 
REMARK    4  A    between atoms: S_7  and  C_8 
REMARK    5  A    between atoms: C_8  and  C_9 
REMARK       I    between atoms: C_9  and  N_10 
REMARK    6  A    between atoms: N_10  and  C_11 
REMARK    7  A    between atoms: C_12  and  O_13 
REMARK    8  A    between atoms: C_16  and  O_17 
REMARK    9  A    between atoms: C_26  and  N_27 
ROOT
HETATM    1  N   UNL     1      40.641 -13.089  -2.115  1.00  0.00    -0.275 N 
HETATM    2  C   UNL     1      41.178 -13.270  -0.813  1.00  0.00     0.177 A 
HETATM    3  N   UNL     1      42.110 -12.531  -0.259  1.00  0.00    -0.204 NA
HETATM    4  C   UNL     1      42.490 -11.476  -1.016  1.00  0.00     0.162 A 
HETATM    5  C   UNL     1      42.083 -11.121  -2.274  1.00  0.00     0.081 A 
HETATM    6  C   UNL     1      41.138 -11.983  -2.918  1.00  0.00     0.124 A 
HETATM    7  N   UNL     1      43.331 -10.477  -0.620  1.00  0.00    -0.260 N 
HETATM    8  H   UNL     1      43.797 -10.369   0.274  1.00  0.00     0.191 HD
HETATM    9  N   UNL     1      43.504  -9.527  -1.564  1.00  0.00    -0.177 NA
HETATM   10  C   UNL     1      42.711  -9.905  -2.578  1.00  0.00     0.068 A 
HETATM   11  C   UNL     1      42.591  -9.039  -3.774  1.00  0.00     0.073 C 
ENDROOT
BRANCH   2  12
HETATM   12  S   UNL     1      40.524 -14.555   0.220  1.00  0.00    -0.082 SA
BRANCH  12  13
HETATM   13  C   UNL     1      41.608 -15.942  -0.192  1.00  0.00     0.185 C 
BRANCH  13  14
HETATM   14  C   UNL     1      41.745 -16.906   0.977  1.00  0.00     0.232 C 
HETATM   15  N   UNL     1      43.057 -17.282   1.219  1.00  0.00    -0.324 N 
HETATM   16  H   UNL     1      43.731 -17.018   0.510  1.00  0.00     0.169 HD
HETATM   17  O   UNL     1      40.748 -17.352   1.541  1.00  0.00    -0.272 OA
BRANCH  15  18
HETATM   18  C   UNL     1      43.512 -18.145   2.239  1.00  0.00     0.070 A 
HETATM   19  C   UNL     1      43.701 -17.763   3.581  1.00  0.00     0.097 A 
HETATM   20  C   UNL     1      44.093 -18.725   4.525  1.00  0.00     0.077 A 
HETATM   21  C   UNL     1      44.323 -20.052   4.143  1.00  0.00     0.092 A 
HETATM   22  C   UNL     1      44.221 -20.398   2.791  1.00  0.00     0.069 A 
HETATM   23 CL   UNL     1      44.557 -22.001   2.240  1.00  0.00    -0.081 Cl
HETATM   24  C   UNL     1      43.822 -19.452   1.846  1.00  0.00     0.059 A 
BRANCH  19  25
HETATM   25  O   UNL     1      43.645 -16.423   3.861  1.00  0.00    -0.354 OA
HETATM   26  C   UNL     1      42.542 -15.952   4.622  1.00  0.00     0.210 C 
ENDBRANCH  19  25
BRANCH  21  27
HETATM   27  O   UNL     1      44.723 -21.028   5.018  1.00  0.00    -0.354 OA
HETATM   28  C   UNL     1      44.059 -21.041   6.278  1.00  0.00     0.210 C 
ENDBRANCH  21  27
ENDBRANCH  15  18
ENDBRANCH  13  14
ENDBRANCH  12  13
ENDBRANCH   2  12
BRANCH   1  29
HETATM   29  C   UNL     1      39.710 -14.016  -2.678  1.00  0.00     0.049 A 
HETATM   30  C   UNL     1      38.316 -13.802  -2.600  1.00  0.00    -0.031 A 
HETATM   31  C   UNL     1      37.457 -14.697  -3.264  1.00  0.00     0.009 A 
HETATM   32  C   UNL     1      37.961 -15.783  -3.979  1.00  0.00     0.001 A 
HETATM   33  C   UNL     1      39.333 -15.995  -4.049  1.00  0.00     0.002 A 
HETATM   34  C   UNL     1      40.204 -15.113  -3.410  1.00  0.00     0.031 A 
BRANCH  30  35
HETATM   35  C   UNL     1      37.701 -12.665  -1.812  1.00  0.00     0.036 C 
HETATM   36  C   UNL     1      37.371 -11.458  -2.678  1.00  0.00     0.010 C 
ENDBRANCH  30  35
ENDBRANCH   1  29
BRANCH   6  37
HETATM   37  N   UNL     1      40.773 -11.787  -4.170  1.00  0.00    -0.384 N 
HETATM   38  H   UNL     1      40.174 -11.021  -4.441  1.00  0.00     0.157 HD
HETATM   39  H   UNL     1      41.119 -12.407  -4.894  1.00  0.00     0.157 HD
ENDBRANCH   6  37
TORSDOF 9
ENDMDL
MODEL 5
REMARK VINA RESULT:      -7.6      3.437      9.005
REMARK  9 active torsions:
REMARK  status: ('A' for Active; 'I' for Inactive)
REMARK    1  A    between atoms: C_2  and  C_3 
REMARK    2  A    between atoms: C_4  and  N_5 
REMARK    3  A    between atoms: C_6  and  S_7 
REMARK    4  A    between atoms: S_7  and  C_8 
REMARK    5  A    between atoms: C_8  and  C_9 
REMARK       I    between atoms: C_9  and  N_10 
REMARK    6  A    between atoms: N_10  and  C_11 
REMARK    7  A    between atoms: C_12  and  O_13 
REMARK    8  A    between atoms: C_16  and  O_17 
REMARK    9  A    between atoms: C_26  and  N_27 
ROOT
HETATM    1  N   UNL     1      42.763 -16.724   5.072  1.00  0.00    -0.275 N 
HETATM    2  C   UNL     1      43.357 -16.946   3.801  1.00  0.00     0.177 A 
HETATM    3  N   UNL     1      44.081 -17.987   3.465  1.00  0.00    -0.204 NA
HETATM    4  C   UNL     1      44.164 -18.928   4.433  1.00  0.00     0.162 A 
HETATM    5  C   UNL     1      43.652 -18.912   5.704  1.00  0.00     0.081 A 
HETATM    6  C   UNL     1      42.944 -17.734   6.103  1.00  0.00     0.124 A 
HETATM    7  N   UNL     1      44.732 -20.161   4.295  1.00  0.00    -0.260 N 
HETATM    8  H   UNL     1      45.174 -20.557   3.473  1.00  0.00     0.191 HD
HETATM    9  N   UNL     1      44.637 -20.915   5.412  1.00  0.00    -0.177 NA
HETATM   10  C   UNL     1      43.943 -20.158   6.276  1.00  0.00     0.068 A 
HETATM   11  C   UNL     1      43.582 -20.709   7.602  1.00  0.00     0.073 C 
ENDROOT
BRANCH   2  12
HETATM   12  S   UNL     1      43.074 -15.774   2.500  1.00  0.00    -0.082 SA
BRANCH  12  13
HETATM   13  C   UNL     1      41.802 -16.611   1.525  1.00  0.00     0.185 C 
BRANCH  13  14
HETATM   14  C   UNL     1      40.471 -15.878   1.601  1.00  0.00     0.232 C 
HETATM   15  N   UNL     1      40.561 -14.550   1.215  1.00  0.00    -0.324 N 
HETATM   16  H   UNL     1      41.499 -14.186   1.096  1.00  0.00     0.169 HD
HETATM   17  O   UNL     1      39.478 -16.433   2.065  1.00  0.00    -0.272 OA
BRANCH  15  18
HETATM   18  C   UNL     1      39.503 -13.616   1.158  1.00  0.00     0.070 A 
HETATM   19  C   UNL     1      38.615 -13.484   0.074  1.00  0.00     0.097 A 
HETATM   20  C   UNL     1      37.556 -12.565   0.156  1.00  0.00     0.077 A 
HETATM   21  C   UNL     1      37.392 -11.761   1.291  1.00  0.00     0.092 A 
HETATM   22  C   UNL     1      38.335 -11.838   2.321  1.00  0.00     0.069 A 
HETATM   23 CL   UNL     1      38.230 -10.827   3.720  1.00  0.00    -0.081 Cl
HETATM   24  C   UNL     1      39.384 -12.755   2.254  1.00  0.00     0.059 A 
BRANCH  19  25
HETATM   25  O   UNL     1      38.932 -14.155  -1.078  1.00  0.00    -0.354 OA
HETATM   26  C   UNL     1      38.889 -13.430  -2.299  1.00  0.00     0.210 C 
ENDBRANCH  19  25
BRANCH  21  27
HETATM   27  O   UNL     1      36.388 -10.836   1.418  1.00  0.00    -0.354 OA
HETATM   28  C   UNL     1      36.608  -9.590   0.765  1.00  0.00     0.210 C 
ENDBRANCH  21  27
ENDBRANCH  15  18
ENDBRANCH  13  14
ENDBRANCH  12  13
ENDBRANCH   2  12
BRANCH   1  29
HETATM   29  C   UNL     1      42.087 -15.504   5.381  1.00  0.00     0.049 A 
HETATM   30  C   UNL     1      42.798 -14.330   5.721  1.00  0.00    -0.031 A 
HETATM   31  C   UNL     1      42.079 -13.137   5.911  1.00  0.00     0.009 A 
HETATM   32  C   UNL     1      40.690 -13.102   5.781  1.00  0.00     0.001 A 
HETATM   33  C   UNL     1      39.993 -14.259   5.454  1.00  0.00     0.002 A 
HETATM   34  C   UNL     1      40.686 -15.451   5.246  1.00  0.00     0.031 A 
BRANCH  30  35
HETATM   35  C   UNL     1      44.300 -14.305   5.912  1.00  0.00     0.036 C 
HETATM   36  C   UNL     1      44.706 -14.063   7.359  1.00  0.00     0.010 C 
ENDBRANCH  30  35
ENDBRANCH   1  29
BRANCH   6  37
HETATM   37  N   UNL     1      42.514 -17.578   7.340  1.00  0.00    -0.384 N 
HETATM   38  H   UNL     1      43.004 -17.003   8.010  1.00  0.00     0.157 HD
HETATM   39  H   UNL     1      41.653 -18.027   7.631  1.00  0.00     0.157 HD
ENDBRANCH   6  37
TORSDOF 9
ENDMDL
MODEL 6
REMARK VINA RESULT:      -7.6      4.602      9.561
REMARK  9 active torsions:
REMARK  status: ('A' for Active; 'I' for Inactive)
REMARK    1  A    between atoms: C_2  and  C_3 
REMARK    2  A    between atoms: C_4  and  N_5 
REMARK    3  A    between atoms: C_6  and  S_7 
REMARK    4  A    between atoms: S_7  and  C_8 
REMARK    5  A    between atoms: C_8  and  C_9 
REMARK       I    between atoms: C_9  and  N_10 
REMARK    6  A    between atoms: N_10  and  C_11 
REMARK    7  A    between atoms: C_12  and  O_13 
REMARK    8  A    between atoms: C_16  and  O_17 
REMARK    9  A    between atoms: C_26  and  N_27 
ROOT
HETATM    1  N   UNL     1      43.094 -17.379   3.646  1.00  0.00    -0.275 N 
HETATM    2  C   UNL     1      42.343 -17.640   2.469  1.00  0.00     0.177 A 
HETATM    3  N   UNL     1      42.399 -18.737   1.752  1.00  0.00    -0.204 NA
HETATM    4  C   UNL     1      43.201 -19.691   2.277  1.00  0.00     0.162 A 
HETATM    5  C   UNL     1      43.985 -19.643   3.399  1.00  0.00     0.081 A 
HETATM    6  C   UNL     1      43.998 -18.411   4.129  1.00  0.00     0.124 A 
HETATM    7  N   UNL     1      43.326 -20.968   1.812  1.00  0.00    -0.260 N 
HETATM    8  H   UNL     1      42.859 -21.393   1.019  1.00  0.00     0.191 HD
HETATM    9  N   UNL     1      44.166 -21.721   2.555  1.00  0.00    -0.177 NA
HETATM   10  C   UNL     1      44.552 -20.914   3.555  1.00  0.00     0.068 A 
HETATM   11  C   UNL     1      45.433 -21.445   4.622  1.00  0.00     0.073 C 
ENDROOT
BRANCH   2  12
HETATM   12  S   UNL     1      41.165 -16.435   1.912  1.00  0.00    -0.082 SA
BRANCH  12  13
HETATM   13  C   UNL     1      41.450 -16.446   0.126  1.00  0.00     0.185 C 
BRANCH  13  14
HETATM   14  C   UNL     1      41.040 -15.126  -0.510  1.00  0.00     0.232 C 
HETATM   15  N   UNL     1      41.978 -14.643  -1.408  1.00  0.00    -0.324 N 
HETATM   16  H   UNL     1      42.873 -15.117  -1.411  1.00  0.00     0.169 HD
HETATM   17  O   UNL     1      40.020 -14.546  -0.144  1.00  0.00    -0.272 OA
BRANCH  15  18
HETATM   18  C   UNL     1      41.882 -13.459  -2.171  1.00  0.00     0.070 A 
HETATM   19  C   UNL     1      41.109 -13.325  -3.340  1.00  0.00     0.097 A 
HETATM   20  C   UNL     1      41.035 -12.077  -3.980  1.00  0.00     0.077 A 
HETATM   21  C   UNL     1      41.741 -10.975  -3.485  1.00  0.00     0.092 A 
HETATM   22  C   UNL     1      42.577 -11.145  -2.377  1.00  0.00     0.069 A 
HETATM   23 CL   UNL     1      43.530  -9.844  -1.754  1.00  0.00    -0.081 Cl
HETATM   24  C   UNL     1      42.650 -12.377  -1.727  1.00  0.00     0.059 A 
BRANCH  19  25
HETATM   25  O   UNL     1      40.594 -14.473  -3.883  1.00  0.00    -0.354 OA
HETATM   26  C   UNL     1      39.219 -14.750  -3.661  1.00  0.00     0.210 C 
ENDBRANCH  19  25
BRANCH  21  27
HETATM   27  O   UNL     1      41.719  -9.739  -4.078  1.00  0.00    -0.354 OA
HETATM   28  C   UNL     1      42.499  -9.607  -5.263  1.00  0.00     0.210 C 
ENDBRANCH  21  27
ENDBRANCH  15  18
ENDBRANCH  13  14
ENDBRANCH  12  13
ENDBRANCH   2  12
BRANCH   1  29
HETATM   29  C   UNL     1      43.051 -16.107   4.296  1.00  0.00     0.049 A 
HETATM   30  C   UNL     1      42.492 -15.955   5.585  1.00  0.00    -0.031 A 
HETATM   31  C   UNL     1      42.575 -14.699   6.213  1.00  0.00     0.009 A 
HETATM   32  C   UNL     1      43.186 -13.615   5.580  1.00  0.00     0.001 A 
HETATM   33  C   UNL     1      43.729 -13.767   4.310  1.00  0.00     0.002 A 
HETATM   34  C   UNL     1      43.670 -15.006   3.674  1.00  0.00     0.031 A 
BRANCH  30  35
HETATM   35  C   UNL     1      41.785 -17.078   6.313  1.00  0.00     0.036 C 
HETATM   36  C   UNL     1      40.271 -16.922   6.311  1.00  0.00     0.010 C 
ENDBRANCH  30  35
ENDBRANCH   1  29
BRANCH   6  37
HETATM   37  N   UNL     1      44.806 -18.230   5.155  1.00  0.00    -0.384 N 
HETATM   38  H   UNL     1      45.445 -17.449   5.204  1.00  0.00     0.157 HD
HETATM   39  H   UNL     1      44.777 -18.877   5.935  1.00  0.00     0.157 HD
ENDBRANCH   6  37
TORSDOF 9
ENDMDL
MODEL 7
REMARK VINA RESULT:      -7.6      3.290      4.849
REMARK  9 active torsions:
REMARK  status: ('A' for Active; 'I' for Inactive)
REMARK    1  A    between atoms: C_2  and  C_3 
REMARK    2  A    between atoms: C_4  and  N_5 
REMARK    3  A    between atoms: C_6  and  S_7 
REMARK    4  A    between atoms: S_7  and  C_8 
REMARK    5  A    between atoms: C_8  and  C_9 
REMARK       I    between atoms: C_9  and  N_10 
REMARK    6  A    between atoms: N_10  and  C_11 
REMARK    7  A    between atoms: C_12  and  O_13 
REMARK    8  A    between atoms: C_16  and  O_17 
REMARK    9  A    between atoms: C_26  and  N_27 
ROOT
HETATM    1  N   UNL     1      40.640 -13.186  -1.842  1.00  0.00    -0.275 N 
HETATM    2  C   UNL     1      41.074 -13.374  -0.503  1.00  0.00     0.177 A 
HETATM    3  N   UNL     1      41.934 -12.617   0.137  1.00  0.00    -0.204 NA
HETATM    4  C   UNL     1      42.343 -11.539  -0.570  1.00  0.00     0.162 A 
HETATM    5  C   UNL     1      42.029 -11.174  -1.852  1.00  0.00     0.081 A 
HETATM    6  C   UNL     1      41.167 -12.052  -2.585  1.00  0.00     0.124 A 
HETATM    7  N   UNL     1      43.118 -10.523  -0.092  1.00  0.00    -0.260 N 
HETATM    8  H   UNL     1      43.505 -10.417   0.839  1.00  0.00     0.191 HD
HETATM    9  N   UNL     1      43.338  -9.552  -1.004  1.00  0.00    -0.177 NA
HETATM   10  C   UNL     1      42.642  -9.936  -2.085  1.00  0.00     0.068 A 
HETATM   11  C   UNL     1      42.595  -9.053  -3.274  1.00  0.00     0.073 C 
ENDROOT
BRANCH   2  12
HETATM   12  S   UNL     1      40.376 -14.696   0.453  1.00  0.00    -0.082 SA
BRANCH  12  13
HETATM   13  C   UNL     1      41.584 -16.014   0.188  1.00  0.00     0.185 C 
BRANCH  13  14
HETATM   14  C   UNL     1      42.350 -16.331   1.464  1.00  0.00     0.232 C 
HETATM   15  N   UNL     1      42.066 -17.590   1.968  1.00  0.00    -0.324 N 
HETATM   16  H   UNL     1      41.282 -18.071   1.543  1.00  0.00     0.169 HD
HETATM   17  O   UNL     1      43.052 -15.477   2.001  1.00  0.00    -0.272 OA
BRANCH  15  18
HETATM   18  C   UNL     1      42.626 -18.182   3.122  1.00  0.00     0.070 A 
HETATM   19  C   UNL     1      43.546 -19.247   3.104  1.00  0.00     0.097 A 
HETATM   20  C   UNL     1      44.090 -19.711   4.313  1.00  0.00     0.077 A 
HETATM   21  C   UNL     1      43.706 -19.146   5.535  1.00  0.00     0.092 A 
HETATM   22  C   UNL     1      42.722 -18.151   5.544  1.00  0.00     0.069 A 
HETATM   23 CL   UNL     1      42.153 -17.457   7.022  1.00  0.00    -0.081 Cl
HETATM   24  C   UNL     1      42.184 -17.675   4.349  1.00  0.00     0.059 A 
BRANCH  19  25
HETATM   25  O   UNL     1      43.742 -19.883   1.906  1.00  0.00    -0.354 OA
HETATM   26  C   UNL     1      43.707 -21.303   1.898  1.00  0.00     0.210 C 
ENDBRANCH  19  25
BRANCH  21  27
HETATM   27  O   UNL     1      44.191 -19.570   6.745  1.00  0.00    -0.354 OA
HETATM   28  C   UNL     1      43.652 -20.795   7.232  1.00  0.00     0.210 C 
ENDBRANCH  21  27
ENDBRANCH  15  18
ENDBRANCH  13  14
ENDBRANCH  12  13
ENDBRANCH   2  12
BRANCH   1  29
HETATM   29  C   UNL     1      39.787 -14.130  -2.494  1.00  0.00     0.049 A 
HETATM   30  C   UNL     1      38.390 -13.934  -2.571  1.00  0.00    -0.031 A 
HETATM   31  C   UNL     1      37.620 -14.845  -3.315  1.00  0.00     0.009 A 
HETATM   32  C   UNL     1      38.212 -15.932  -3.960  1.00  0.00     0.001 A 
HETATM   33  C   UNL     1      39.586 -16.126  -3.877  1.00  0.00     0.002 A 
HETATM   34  C   UNL     1      40.371 -15.227  -3.156  1.00  0.00     0.031 A 
BRANCH  30  35
HETATM   35  C   UNL     1      37.679 -12.797  -1.866  1.00  0.00     0.036 C 
HETATM   36  C   UNL     1      37.191 -11.721  -2.827  1.00  0.00     0.010 C 
ENDBRANCH  30  35
ENDBRANCH   1  29
BRANCH   6  37
HETATM   37  N   UNL     1      40.900 -11.846  -3.860  1.00  0.00    -0.384 N 
HETATM   38  H   UNL     1      40.505 -12.564  -4.448  1.00  0.00     0.157 HD
HETATM   39  H   UNL     1      41.073 -10.933  -4.265  1.00  0.00     0.157 HD
ENDBRANCH   6  37
TORSDOF 9
ENDMDL
MODEL 8
REMARK VINA RESULT:      -7.5      5.203      7.002
REMARK  9 active torsions:
REMARK  status: ('A' for Active; 'I' for Inactive)
REMARK    1  A    between atoms: C_2  and  C_3 
REMARK    2  A    between atoms: C_4  and  N_5 
REMARK    3  A    between atoms: C_6  and  S_7 
REMARK    4  A    between atoms: S_7  and  C_8 
REMARK    5  A    between atoms: C_8  and  C_9 
REMARK       I    between atoms: C_9  and  N_10 
REMARK    6  A    between atoms: N_10  and  C_11 
REMARK    7  A    between atoms: C_12  and  O_13 
REMARK    8  A    between atoms: C_16  and  O_17 
REMARK    9  A    between atoms: C_26  and  N_27 
ROOT
HETATM    1  N   UNL     1      40.583 -14.152   4.145  1.00  0.00    -0.275 N 
HETATM    2  C   UNL     1      40.801 -12.788   4.475  1.00  0.00     0.177 A 
HETATM    3  N   UNL     1      40.299 -11.757   3.838  1.00  0.00    -0.204 NA
HETATM    4  C   UNL     1      39.448 -12.093   2.842  1.00  0.00     0.162 A 
HETATM    5  C   UNL     1      39.095 -13.335   2.386  1.00  0.00     0.081 A 
HETATM    6  C   UNL     1      39.717 -14.459   3.018  1.00  0.00     0.124 A 
HETATM    7  N   UNL     1      38.685 -11.220   2.122  1.00  0.00    -0.260 N 
HETATM    8  H   UNL     1      38.638 -10.211   2.209  1.00  0.00     0.191 HD
HETATM    9  N   UNL     1      37.893 -11.834   1.216  1.00  0.00    -0.177 NA
HETATM   10  C   UNL     1      38.121 -13.144   1.397  1.00  0.00     0.068 A 
HETATM   11  C   UNL     1      37.350 -14.134   0.610  1.00  0.00     0.073 C 
ENDROOT
BRANCH   2  12
HETATM   12  S   UNL     1      41.779 -12.390   5.901  1.00  0.00    -0.082 SA
BRANCH  12  13
HETATM   13  C   UNL     1      41.526 -10.605   6.030  1.00  0.00     0.185 C 
BRANCH  13  14
HETATM   14  C   UNL     1      41.695 -10.122   7.463  1.00  0.00     0.232 C 
HETATM   15  N   UNL     1      42.283 -11.068   8.288  1.00  0.00    -0.324 N 
HETATM   16  H   UNL     1      42.373 -11.999   7.900  1.00  0.00     0.169 HD
HETATM   17  O   UNL     1      41.239  -9.036   7.815  1.00  0.00    -0.272 OA
BRANCH  15  18
HETATM   18  C   UNL     1      42.591 -10.916   9.658  1.00  0.00     0.070 A 
HETATM   19  C   UNL     1      43.868 -10.601  10.157  1.00  0.00     0.097 A 
HETATM   20  C   UNL     1      44.042 -10.407  11.538  1.00  0.00     0.077 A 
HETATM   21  C   UNL     1      42.967 -10.553  12.422  1.00  0.00     0.092 A 
HETATM   22  C   UNL     1      41.725 -10.957  11.922  1.00  0.00     0.069 A 
HETATM   23 CL   UNL     1      40.372 -11.220  12.966  1.00  0.00    -0.081 Cl
HETATM   24  C   UNL     1      41.538 -11.141  10.552  1.00  0.00     0.059 A 
BRANCH  19  25
HETATM   25  O   UNL     1      44.915 -10.656   9.275  1.00  0.00    -0.354 OA
HETATM   26  C   UNL     1      45.644 -11.872   9.189  1.00  0.00     0.210 C 
ENDBRANCH  19  25
BRANCH  21  27
HETATM   27  O   UNL     1      43.083 -10.393  13.779  1.00  0.00    -0.354 OA
HETATM   28  C   UNL     1      42.997  -9.053  14.255  1.00  0.00     0.210 C 
ENDBRANCH  21  27
ENDBRANCH  15  18
ENDBRANCH  13  14
ENDBRANCH  12  13
ENDBRANCH   2  12
BRANCH   1  29
HETATM   29  C   UNL     1      41.266 -15.207   4.826  1.00  0.00     0.049 A 
HETATM   30  C   UNL     1      42.571 -15.604   4.455  1.00  0.00    -0.031 A 
HETATM   31  C   UNL     1      43.228 -16.575   5.231  1.00  0.00     0.009 A 
HETATM   32  C   UNL     1      42.609 -17.150   6.342  1.00  0.00     0.001 A 
HETATM   33  C   UNL     1      41.324 -16.763   6.701  1.00  0.00     0.002 A 
HETATM   34  C   UNL     1      40.658 -15.791   5.954  1.00  0.00     0.031 A 
BRANCH  30  35
HETATM   35  C   UNL     1      43.286 -15.047   3.242  1.00  0.00     0.036 C 
HETATM   36  C   UNL     1      43.135 -15.930   2.011  1.00  0.00     0.010 C 
ENDBRANCH  30  35
ENDBRANCH   1  29
BRANCH   6  37
HETATM   37  N   UNL     1      39.528 -15.686   2.574  1.00  0.00    -0.384 N 
HETATM   38  H   UNL     1      39.580 -16.491   3.182  1.00  0.00     0.157 HD
HETATM   39  H   UNL     1      39.300 -15.836   1.598  1.00  0.00     0.157 HD
ENDBRANCH   6  37
TORSDOF 9
ENDMDL
MODEL 9
REMARK VINA RESULT:      -7.4      2.081      4.407
REMARK  9 active torsions:
REMARK  status: ('A' for Active; 'I' for Inactive)
REMARK    1  A    between atoms: C_2  and  C_3 
REMARK    2  A    between atoms: C_4  and  N_5 
REMARK    3  A    between atoms: C_6  and  S_7 
REMARK    4  A    between atoms: S_7  and  C_8 
REMARK    5  A    between atoms: C_8  and  C_9 
REMARK       I    between atoms: C_9  and  N_10 
REMARK    6  A    between atoms: N_10  and  C_11 
REMARK    7  A    between atoms: C_12  and  O_13 
REMARK    8  A    between atoms: C_16  and  O_17 
REMARK    9  A    between atoms: C_26  and  N_27 
ROOT
HETATM    1  N   UNL     1      40.262 -12.965   0.518  1.00  0.00    -0.275 N 
HETATM    2  C   UNL     1      40.253 -14.373   0.707  1.00  0.00     0.177 A 
HETATM    3  N   UNL     1      40.513 -15.271  -0.214  1.00  0.00    -0.204 NA
HETATM    4  C   UNL     1      40.891 -14.741  -1.400  1.00  0.00     0.162 A 
HETATM    5  C   UNL     1      40.982 -13.427  -1.772  1.00  0.00     0.081 A 
HETATM    6  C   UNL     1      40.605 -12.448  -0.797  1.00  0.00     0.124 A 
HETATM    7  N   UNL     1      41.352 -15.447  -2.474  1.00  0.00    -0.260 N 
HETATM    8  H   UNL     1      41.475 -16.450  -2.556  1.00  0.00     0.191 HD
HETATM    9  N   UNL     1      41.699 -14.659  -3.514  1.00  0.00    -0.177 NA
HETATM   10  C   UNL     1      41.500 -13.407  -3.074  1.00  0.00     0.068 A 
HETATM   11  C   UNL     1      41.856 -12.262  -3.945  1.00  0.00     0.073 C 
ENDROOT
BRANCH   2  12
HETATM   12  S   UNL     1      39.929 -15.025   2.325  1.00  0.00    -0.082 SA
BRANCH  12  13
HETATM   13  C   UNL     1      41.600 -15.186   2.995  1.00  0.00     0.185 C 
BRANCH  13  14
HETATM   14  C   UNL     1      41.869 -16.601   3.486  1.00  0.00     0.232 C 
HETATM   15  N   UNL     1      43.129 -17.063   3.143  1.00  0.00    -0.324 N 
HETATM   16  H   UNL     1      43.645 -16.495   2.482  1.00  0.00     0.169 HD
HETATM   17  O   UNL     1      40.981 -17.252   4.032  1.00  0.00    -0.272 OA
BRANCH  15  18
HETATM   18  C   UNL     1      43.682 -18.322   3.467  1.00  0.00     0.070 A 
HETATM   19  C   UNL     1      44.284 -18.633   4.700  1.00  0.00     0.097 A 
HETATM   20  C   UNL     1      44.739 -19.941   4.936  1.00  0.00     0.077 A 
HETATM   21  C   UNL     1      44.627 -20.928   3.950  1.00  0.00     0.092 A 
HETATM   22  C   UNL     1      44.111 -20.581   2.697  1.00  0.00     0.069 A 
HETATM   23 CL   UNL     1      44.006 -21.732   1.412  1.00  0.00    -0.081 Cl
HETATM   24  C   UNL     1      43.646 -19.288   2.455  1.00  0.00     0.059 A 
BRANCH  19  25
HETATM   25  O   UNL     1      44.538 -17.591   5.552  1.00  0.00    -0.354 OA
HETATM   26  C   UNL     1      43.716 -17.463   6.705  1.00  0.00     0.210 C 
ENDBRANCH  19  25
BRANCH  21  27
HETATM   27  O   UNL     1      45.069 -22.214   4.119  1.00  0.00    -0.354 OA
HETATM   28  C   UNL     1      45.120 -22.680   5.464  1.00  0.00     0.210 C 
ENDBRANCH  21  27
ENDBRANCH  15  18
ENDBRANCH  13  14
ENDBRANCH  12  13
ENDBRANCH   2  12
BRANCH   1  29
HETATM   29  C   UNL     1      39.853 -12.068   1.552  1.00  0.00     0.049 A 
HETATM   30  C   UNL     1      38.486 -11.826   1.822  1.00  0.00    -0.031 A 
HETATM   31  C   UNL     1      38.148 -11.014   2.919  1.00  0.00     0.009 A 
HETATM   32  C   UNL     1      39.134 -10.445   3.726  1.00  0.00     0.001 A 
HETATM   33  C   UNL     1      40.477 -10.679   3.454  1.00  0.00     0.002 A 
HETATM   34  C   UNL     1      40.835 -11.492   2.379  1.00  0.00     0.031 A 
BRANCH  30  35
HETATM   35  C   UNL     1      37.368 -12.383   0.967  1.00  0.00     0.036 C 
HETATM   36  C   UNL     1      37.038 -11.495  -0.225  1.00  0.00     0.010 C 
ENDBRANCH  30  35
ENDBRANCH   1  29
BRANCH   6  37
HETATM   37  N   UNL     1      40.549 -11.166  -1.098  1.00  0.00    -0.384 N 
HETATM   38  H   UNL     1      40.189 -10.837  -1.982  1.00  0.00     0.157 HD
HETATM   39  H   UNL     1      40.854 -10.479  -0.418  1.00  0.00     0.157 HD
ENDBRANCH   6  37
TORSDOF 9
ENDMDL
MODEL 10
REMARK VINA RESULT:      -7.3      2.770      4.935
REMARK  9 active torsions:
REMARK  status: ('A' for Active; 'I' for Inactive)
REMARK    1  A    between atoms: C_2  and  C_3 
REMARK    2  A    between atoms: C_4  and  N_5 
REMARK    3  A    between atoms: C_6  and  S_7 
REMARK    4  A    between atoms: S_7  and  C_8 
REMARK    5  A    between atoms: C_8  and  C_9 
REMARK       I    between atoms: C_9  and  N_10 
REMARK    6  A    between atoms: N_10  and  C_11 
REMARK    7  A    between atoms: C_12  and  O_13 
REMARK    8  A    between atoms: C_16  and  O_17 
REMARK    9  A    between atoms: C_26  and  N_27 
ROOT
HETATM    1  N   UNL     1      41.655 -13.124   0.884  1.00  0.00    -0.275 N 
HETATM    2  C   UNL     1      41.391 -14.313   0.152  1.00  0.00     0.177 A 
HETATM    3  N   UNL     1      41.446 -14.438  -1.152  1.00  0.00    -0.204 NA
HETATM    4  C   UNL     1      41.875 -13.323  -1.788  1.00  0.00     0.162 A 
HETATM    5  C   UNL     1      42.196 -12.098  -1.268  1.00  0.00     0.081 A 
HETATM    6  C   UNL     1      42.041 -11.932   0.146  1.00  0.00     0.124 A 
HETATM    7  N   UNL     1      42.159 -13.228  -3.120  1.00  0.00    -0.260 N 
HETATM    8  H   UNL     1      42.090 -13.952  -3.827  1.00  0.00     0.191 HD
HETATM    9  N   UNL     1      42.610 -12.007  -3.478  1.00  0.00    -0.177 NA
HETATM   10  C   UNL     1      42.663 -11.313  -2.331  1.00  0.00     0.068 A 
HETATM   11  C   UNL     1      43.195  -9.930  -2.338  1.00  0.00     0.073 C 
ENDROOT
BRANCH   2  12
HETATM   12  S   UNL     1      41.007 -15.803   1.036  1.00  0.00    -0.082 SA
BRANCH  12  13
HETATM   13  C   UNL     1      42.305 -16.918   0.451  1.00  0.00     0.185 C 
BRANCH  13  14
HETATM   14  C   UNL     1      43.297 -17.245   1.558  1.00  0.00     0.232 C 
HETATM   15  N   UNL     1      42.692 -17.420   2.792  1.00  0.00    -0.324 N 
HETATM   16  H   UNL     1      41.718 -17.151   2.851  1.00  0.00     0.169 HD
HETATM   17  O   UNL     1      44.505 -17.235   1.336  1.00  0.00    -0.272 OA
BRANCH  15  18
HETATM   18  C   UNL     1      43.336 -17.749   4.006  1.00  0.00     0.070 A 
HETATM   19  C   UNL     1      43.976 -18.976   4.261  1.00  0.00     0.097 A 
HETATM   20  C   UNL     1      44.643 -19.166   5.482  1.00  0.00     0.077 A 
HETATM   21  C   UNL     1      44.654 -18.162   6.457  1.00  0.00     0.092 A 
HETATM   22  C   UNL     1      43.935 -16.984   6.228  1.00  0.00     0.069 A 
HETATM   23 CL   UNL     1      43.850 -15.731   7.416  1.00  0.00    -0.081 Cl
HETATM   24  C   UNL     1      43.279 -16.780   5.014  1.00  0.00     0.059 A 
BRANCH  19  25
HETATM   25  O   UNL     1      43.776 -19.984   3.355  1.00  0.00    -0.354 OA
HETATM   26  C   UNL     1      44.716 -21.050   3.333  1.00  0.00     0.210 C 
ENDBRANCH  19  25
BRANCH  21  27
HETATM   27  O   UNL     1      45.273 -18.301   7.672  1.00  0.00    -0.354 OA
HETATM   28  C   UNL     1      44.496 -18.911   8.698  1.00  0.00     0.210 C 
ENDBRANCH  21  27
ENDBRANCH  15  18
ENDBRANCH  13  14
ENDBRANCH  12  13
ENDBRANCH   2  12
BRANCH   1  29
HETATM   29  C   UNL     1      41.455 -13.054   2.298  1.00  0.00     0.049 A 
HETATM   30  C   UNL     1      40.165 -12.902   2.855  1.00  0.00    -0.031 A 
HETATM   31  C   UNL     1      40.025 -12.945   4.254  1.00  0.00     0.009 A 
HETATM   32  C   UNL     1      41.132 -13.123   5.085  1.00  0.00     0.001 A 
HETATM   33  C   UNL     1      42.400 -13.265   4.534  1.00  0.00     0.002 A 
HETATM   34  C   UNL     1      42.561 -13.240   3.149  1.00  0.00     0.031 A 
BRANCH  30  35
HETATM   35  C   UNL     1      38.927 -12.671   2.013  1.00  0.00     0.036 C 
HETATM   36  C   UNL     1      38.456 -11.224   2.043  1.00  0.00     0.010 C 
ENDBRANCH  30  35
ENDBRANCH   1  29
BRANCH   6  37
HETATM   37  N   UNL     1      42.215 -10.759   0.723  1.00  0.00    -0.384 N 
HETATM   38  H   UNL     1      42.825 -10.055   0.334  1.00  0.00     0.157 HD
HETATM   39  H   UNL     1      41.705 -10.538   1.571  1.00  0.00     0.157 HD
ENDBRANCH   6  37
TORSDOF 9
ENDMDL
