MODEL 1
REMARK VINA RESULT:      -8.2      0.000      0.000
REMARK  2 active torsions:
REMARK  status: ('A' for Active; 'I' for Inactive)
REMARK    1  A    between atoms: C_5  and  C_6 
REMARK       I    between atoms: C_6  and  N_7 
REMARK    2  A    between atoms: N_7  and  C_8 
ROOT
HETATM    1  C   UNL     1      44.607 -13.401   7.507  1.00  0.00     0.262 C 
HETATM    2  N   UNL     1      43.499 -14.114   7.109  1.00  0.00    -0.306 N 
HETATM    3  O   UNL     1      45.740 -13.472   7.037  1.00  0.00    -0.267 OA
HETATM    4  H   UNL     1      42.618 -13.945   7.590  1.00  0.00     0.170 HD
ENDROOT
BRANCH   2   5
HETATM    5  C   UNL     1      43.470 -15.075   6.123  1.00  0.00     0.152 A 
HETATM    6  N   UNL     1      42.991 -14.912   4.891  1.00  0.00    -0.156 NA
HETATM    7  N   UNL     1      43.191 -16.093   4.292  1.00  0.00    -0.275 N 
HETATM    8  H   UNL     1      42.900 -16.198   3.326  1.00  0.00     0.189 HD
HETATM    9  C   UNL     1      43.793 -17.028   5.090  1.00  0.00     0.071 A 
HETATM   10  C   UNL     1      44.135 -18.355   4.666  1.00  0.00     0.034 A 
HETATM   11  C   UNL     1      43.972 -16.388   6.299  1.00  0.00     0.084 A 
HETATM   12  S   UNL     1      43.819 -18.914   3.070  1.00  0.00    -0.076 SA
HETATM   13  C   UNL     1      44.746 -19.342   5.422  1.00  0.00     0.023 A 
HETATM   14  C   UNL     1      44.494 -20.426   3.402  1.00  0.00     0.075 A 
HETATM   15 CL   UNL     1      44.547 -21.625   2.175  1.00  0.00    -0.076 Cl
HETATM   16  C   UNL     1      44.956 -20.547   4.685  1.00  0.00     0.033 A 
ENDBRANCH   2   5
BRANCH   1  17
HETATM   17  C   UNL     1      44.342 -12.469   8.645  1.00  0.00     0.097 A 
HETATM   18  C   UNL     1      45.100 -12.548   9.752  1.00  0.00     0.109 A 
HETATM   19  N   UNL     1      44.928 -11.748  10.854  1.00  0.00    -0.368 N 
HETATM   20  C   UNL     1      43.948 -10.782  10.916  1.00  0.00     0.008 A 
HETATM   21  H   UNL     1      45.542 -11.882  11.654  1.00  0.00     0.165 HD
HETATM   22  C   UNL     1      43.848  -9.969  12.173  1.00  0.00     0.068 C 
HETATM   23  C   UNL     1      43.116 -10.586   9.877  1.00  0.00     0.080 A 
HETATM   24  C   UNL     1      43.266 -11.435   8.663  1.00  0.00     0.190 A 
HETATM   25  O   UNL     1      42.506 -11.278   7.709  1.00  0.00    -0.287 OA
ENDBRANCH   1  17
TORSDOF 2
ENDMDL
MODEL 2
REMARK VINA RESULT:      -7.8      6.825      8.767
REMARK  2 active torsions:
REMARK  status: ('A' for Active; 'I' for Inactive)
REMARK    1  A    between atoms: C_5  and  C_6 
REMARK       I    between atoms: C_6  and  N_7 
REMARK    2  A    between atoms: N_7  and  C_8 
ROOT
HETATM    1  C   UNL     1      41.070 -15.058   0.243  1.00  0.00     0.262 C 
HETATM    2  N   UNL     1      42.370 -15.506   0.314  1.00  0.00    -0.306 N 
HETATM    3  O   UNL     1      40.164 -15.290   1.039  1.00  0.00    -0.267 OA
HETATM    4  H   UNL     1      43.017 -15.227  -0.419  1.00  0.00     0.170 HD
ENDROOT
BRANCH   2   5
HETATM    5  C   UNL     1      42.884 -16.338   1.284  1.00  0.00     0.152 A 
HETATM    6  N   UNL     1      43.231 -15.974   2.517  1.00  0.00    -0.156 NA
HETATM    7  N   UNL     1      43.651 -17.106   3.097  1.00  0.00    -0.275 N 
HETATM    8  H   UNL     1      43.966 -17.064   4.060  1.00  0.00     0.189 HD
HETATM    9  C   UNL     1      43.586 -18.206   2.285  1.00  0.00     0.071 A 
HETATM   10  C   UNL     1      43.955 -19.532   2.689  1.00  0.00     0.034 A 
HETATM   11  C   UNL     1      43.100 -17.725   1.088  1.00  0.00     0.084 A 
HETATM   12  S   UNL     1      44.524 -19.880   4.275  1.00  0.00    -0.076 SA
HETATM   13  C   UNL     1      43.908 -20.682   1.919  1.00  0.00     0.023 A 
HETATM   14  C   UNL     1      44.687 -21.523   3.919  1.00  0.00     0.075 A 
HETATM   15 CL   UNL     1      45.251 -22.605   5.127  1.00  0.00    -0.076 Cl
HETATM   16  C   UNL     1      44.334 -21.842   2.636  1.00  0.00     0.033 A 
ENDBRANCH   2   5
BRANCH   1  17
HETATM   17  C   UNL     1      40.794 -14.215  -0.960  1.00  0.00     0.097 A 
HETATM   18  C   UNL     1      40.476 -12.919  -0.798  1.00  0.00     0.109 A 
HETATM   19  N   UNL     1      40.192 -12.067  -1.836  1.00  0.00    -0.368 N 
HETATM   20  C   UNL     1      40.211 -12.477  -3.150  1.00  0.00     0.008 A 
HETATM   21  H   UNL     1      39.952 -11.102  -1.621  1.00  0.00     0.165 HD
HETATM   22  C   UNL     1      39.878 -11.460  -4.203  1.00  0.00     0.068 C 
HETATM   23  C   UNL     1      40.517 -13.748  -3.464  1.00  0.00     0.080 A 
HETATM   24  C   UNL     1      40.828 -14.707  -2.368  1.00  0.00     0.190 A 
HETATM   25  O   UNL     1      41.098 -15.877  -2.637  1.00  0.00    -0.287 OA
ENDBRANCH   1  17
TORSDOF 2
ENDMDL
MODEL 3
REMARK VINA RESULT:      -7.7      7.063      9.316
REMARK  2 active torsions:
REMARK  status: ('A' for Active; 'I' for Inactive)
REMARK    1  A    between atoms: C_5  and  C_6 
REMARK       I    between atoms: C_6  and  N_7 
REMARK    2  A    between atoms: N_7  and  C_8 
ROOT
HETATM    1  C   UNL     1      43.009 -17.604   2.883  1.00  0.00     0.262 C 
HETATM    2  N   UNL     1      41.950 -17.791   2.025  1.00  0.00    -0.306 N 
HETATM    3  O   UNL     1      43.500 -16.533   3.229  1.00  0.00    -0.267 OA
HETATM    4  H   UNL     1      41.645 -18.743   1.834  1.00  0.00     0.170 HD
ENDROOT
BRANCH   2   5
HETATM    5  C   UNL     1      41.265 -16.797   1.361  1.00  0.00     0.152 A 
HETATM    6  N   UNL     1      40.247 -16.092   1.852  1.00  0.00    -0.156 NA
HETATM    7  N   UNL     1      39.923 -15.240   0.871  1.00  0.00    -0.275 N 
HETATM    8  H   UNL     1      39.160 -14.591   1.031  1.00  0.00     0.189 HD
HETATM    9  C   UNL     1      40.700 -15.358  -0.250  1.00  0.00     0.071 A 
HETATM   10  C   UNL     1      40.562 -14.540  -1.420  1.00  0.00     0.034 A 
HETATM   11  C   UNL     1      41.576 -16.382   0.042  1.00  0.00     0.084 A 
HETATM   12  S   UNL     1      39.381 -13.294  -1.529  1.00  0.00    -0.076 SA
HETATM   13  C   UNL     1      41.316 -14.608  -2.579  1.00  0.00     0.023 A 
HETATM   14  C   UNL     1      39.888 -12.868  -3.083  1.00  0.00     0.075 A 
HETATM   15 CL   UNL     1      39.110 -11.582  -3.913  1.00  0.00    -0.076 Cl
HETATM   16  C   UNL     1      40.924 -13.633  -3.548  1.00  0.00     0.033 A 
ENDBRANCH   2   5
BRANCH   1  17
HETATM   17  C   UNL     1      43.587 -18.880   3.405  1.00  0.00     0.097 A 
HETATM   18  C   UNL     1      43.872 -18.987   4.714  1.00  0.00     0.109 A 
HETATM   19  N   UNL     1      44.416 -20.109   5.288  1.00  0.00    -0.368 N 
HETATM   20  C   UNL     1      44.720 -21.236   4.556  1.00  0.00     0.008 A 
HETATM   21  H   UNL     1      44.609 -20.101   6.287  1.00  0.00     0.165 HD
HETATM   22  C   UNL     1      45.317 -22.403   5.288  1.00  0.00     0.068 C 
HETATM   23  C   UNL     1      44.484 -21.274   3.233  1.00  0.00     0.080 A 
HETATM   24  C   UNL     1      43.898 -20.077   2.570  1.00  0.00     0.190 A 
HETATM   25  O   UNL     1      43.687 -20.090   1.358  1.00  0.00    -0.287 OA
ENDBRANCH   1  17
TORSDOF 2
ENDMDL
MODEL 4
REMARK VINA RESULT:      -7.5      7.104      9.209
REMARK  2 active torsions:
REMARK  status: ('A' for Active; 'I' for Inactive)
REMARK    1  A    between atoms: C_5  and  C_6 
REMARK       I    between atoms: C_6  and  N_7 
REMARK    2  A    between atoms: N_7  and  C_8 
ROOT
HETATM    1  C   UNL     1      43.422 -17.841   2.123  1.00  0.00     0.262 C 
HETATM    2  N   UNL     1      42.080 -17.574   2.271  1.00  0.00    -0.306 N 
HETATM    3  O   UNL     1      44.211 -17.270   1.375  1.00  0.00    -0.267 OA
HETATM    4  H   UNL     1      41.548 -18.128   2.939  1.00  0.00     0.170 HD
ENDROOT
BRANCH   2   5
HETATM    5  C   UNL     1      41.363 -16.630   1.569  1.00  0.00     0.152 A 
HETATM    6  N   UNL     1      40.362 -15.896   2.050  1.00  0.00    -0.156 NA
HETATM    7  N   UNL     1      39.994 -15.114   1.027  1.00  0.00    -0.275 N 
HETATM    8  H   UNL     1      39.234 -14.458   1.172  1.00  0.00     0.189 HD
HETATM    9  C   UNL     1      40.727 -15.307  -0.113  1.00  0.00     0.071 A 
HETATM   10  C   UNL     1      40.539 -14.571  -1.330  1.00  0.00     0.034 A 
HETATM   11  C   UNL     1      41.621 -16.305   0.214  1.00  0.00     0.084 A 
HETATM   12  S   UNL     1      39.347 -13.339  -1.478  1.00  0.00    -0.076 SA
HETATM   13  C   UNL     1      41.247 -14.715  -2.511  1.00  0.00     0.023 A 
HETATM   14  C   UNL     1      39.791 -13.020  -3.076  1.00  0.00     0.075 A 
HETATM   15 CL   UNL     1      38.973 -11.796  -3.961  1.00  0.00    -0.076 Cl
HETATM   16  C   UNL     1      40.812 -13.811  -3.527  1.00  0.00     0.033 A 
ENDBRANCH   2   5
BRANCH   1  17
HETATM   17  C   UNL     1      43.906 -18.964   2.983  1.00  0.00     0.097 A 
HETATM   18  C   UNL     1      44.159 -20.160   2.423  1.00  0.00     0.109 A 
HETATM   19  N   UNL     1      44.594 -21.255   3.127  1.00  0.00    -0.368 N 
HETATM   20  C   UNL     1      44.810 -21.218   4.486  1.00  0.00     0.008 A 
HETATM   21  H   UNL     1      44.752 -22.125   2.624  1.00  0.00     0.165 HD
HETATM   22  C   UNL     1      45.279 -22.478   5.153  1.00  0.00     0.068 C 
HETATM   23  C   UNL     1      44.601 -20.085   5.180  1.00  0.00     0.080 A 
HETATM   24  C   UNL     1      44.126 -18.873   4.456  1.00  0.00     0.190 A 
HETATM   25  O   UNL     1      43.918 -17.832   5.076  1.00  0.00    -0.287 OA
ENDBRANCH   1  17
TORSDOF 2
ENDMDL
MODEL 5
REMARK VINA RESULT:      -7.5      5.420      9.157
REMARK  2 active torsions:
REMARK  status: ('A' for Active; 'I' for Inactive)
REMARK    1  A    between atoms: C_5  and  C_6 
REMARK       I    between atoms: C_6  and  N_7 
REMARK    2  A    between atoms: N_7  and  C_8 
ROOT
HETATM    1  C   UNL     1      43.054 -17.355   4.818  1.00  0.00     0.262 C 
HETATM    2  N   UNL     1      41.799 -16.843   4.577  1.00  0.00    -0.306 N 
HETATM    3  O   UNL     1      43.884 -16.930   5.616  1.00  0.00    -0.267 OA
HETATM    4  H   UNL     1      41.213 -17.306   3.886  1.00  0.00     0.170 HD
ENDROOT
BRANCH   2   5
HETATM    5  C   UNL     1      41.256 -15.726   5.172  1.00  0.00     0.152 A 
HETATM    6  N   UNL     1      40.427 -15.723   6.213  1.00  0.00    -0.156 NA
HETATM    7  N   UNL     1      40.186 -14.427   6.451  1.00  0.00    -0.275 N 
HETATM    8  H   UNL     1      39.570 -14.185   7.219  1.00  0.00     0.189 HD
HETATM    9  C   UNL     1      40.837 -13.575   5.600  1.00  0.00     0.071 A 
HETATM   10  C   UNL     1      40.759 -12.144   5.672  1.00  0.00     0.034 A 
HETATM   11  C   UNL     1      41.533 -14.403   4.744  1.00  0.00     0.084 A 
HETATM   12  S   UNL     1      39.820 -11.339   6.868  1.00  0.00    -0.076 SA
HETATM   13  C   UNL     1      41.394 -11.231   4.846  1.00  0.00     0.023 A 
HETATM   14  C   UNL     1      40.272  -9.820   6.284  1.00  0.00     0.075 A 
HETATM   15 CL   UNL     1      39.679  -8.401   7.047  1.00  0.00    -0.076 Cl
HETATM   16  C   UNL     1      41.111  -9.877   5.204  1.00  0.00     0.033 A 
ENDBRANCH   2   5
BRANCH   1  17
HETATM   17  C   UNL     1      43.385 -18.544   3.975  1.00  0.00     0.097 A 
HETATM   18  C   UNL     1      44.199 -19.494   4.468  1.00  0.00     0.109 A 
HETATM   19  N   UNL     1      44.573 -20.615   3.771  1.00  0.00    -0.368 N 
HETATM   20  C   UNL     1      44.139 -20.863   2.487  1.00  0.00     0.008 A 
HETATM   21  H   UNL     1      45.201 -21.280   4.218  1.00  0.00     0.165 HD
HETATM   22  C   UNL     1      44.617 -22.119   1.819  1.00  0.00     0.068 C 
HETATM   23  C   UNL     1      43.315 -19.999   1.867  1.00  0.00     0.080 A 
HETATM   24  C   UNL     1      42.887 -18.768   2.587  1.00  0.00     0.190 A 
HETATM   25  O   UNL     1      42.144 -17.961   2.030  1.00  0.00    -0.287 OA
ENDBRANCH   1  17
TORSDOF 2
ENDMDL
MODEL 6
REMARK VINA RESULT:      -7.5      7.182      9.274
REMARK  2 active torsions:
REMARK  status: ('A' for Active; 'I' for Inactive)
REMARK    1  A    between atoms: C_5  and  C_6 
REMARK       I    between atoms: C_6  and  N_7 
REMARK    2  A    between atoms: N_7  and  C_8 
ROOT
HETATM    1  C   UNL     1      43.512 -17.833   1.993  1.00  0.00     0.262 C 
HETATM    2  N   UNL     1      42.156 -17.598   2.005  1.00  0.00    -0.306 N 
HETATM    3  O   UNL     1      44.356 -17.257   1.312  1.00  0.00    -0.267 OA
HETATM    4  H   UNL     1      41.575 -18.153   2.630  1.00  0.00     0.170 HD
ENDROOT
BRANCH   2   5
HETATM    5  C   UNL     1      41.489 -16.686   1.218  1.00  0.00     0.152 A 
HETATM    6  N   UNL     1      41.573 -16.593  -0.108  1.00  0.00    -0.156 NA
HETATM    7  N   UNL     1      40.745 -15.591  -0.430  1.00  0.00    -0.275 N 
HETATM    8  H   UNL     1      40.647 -15.343  -1.409  1.00  0.00     0.189 HD
HETATM    9  C   UNL     1      40.113 -15.023   0.644  1.00  0.00     0.071 A 
HETATM   10  C   UNL     1      39.161 -13.954   0.550  1.00  0.00     0.034 A 
HETATM   11  C   UNL     1      40.595 -15.714   1.735  1.00  0.00     0.084 A 
HETATM   12  S   UNL     1      38.706 -13.266  -0.960  1.00  0.00    -0.076 SA
HETATM   13  C   UNL     1      38.488 -13.342   1.593  1.00  0.00     0.023 A 
HETATM   14  C   UNL     1      37.635 -12.193  -0.215  1.00  0.00     0.075 A 
HETATM   15 CL   UNL     1      36.726 -11.093  -1.169  1.00  0.00    -0.076 Cl
HETATM   16  C   UNL     1      37.598 -12.318   1.148  1.00  0.00     0.033 A 
ENDBRANCH   2   5
BRANCH   1  17
HETATM   17  C   UNL     1      43.936 -18.928   2.918  1.00  0.00     0.097 A 
HETATM   18  C   UNL     1      44.265 -20.129   2.412  1.00  0.00     0.109 A 
HETATM   19  N   UNL     1      44.655 -21.199   3.177  1.00  0.00    -0.368 N 
HETATM   20  C   UNL     1      44.741 -21.130   4.549  1.00  0.00     0.008 A 
HETATM   21  H   UNL     1      44.878 -22.076   2.710  1.00  0.00     0.165 HD
HETATM   22  C   UNL     1      45.172 -22.366   5.285  1.00  0.00     0.068 C 
HETATM   23  C   UNL     1      44.445 -19.988   5.195  1.00  0.00     0.080 A 
HETATM   24  C   UNL     1      44.015 -18.803   4.403  1.00  0.00     0.190 A 
HETATM   25  O   UNL     1      43.728 -17.754   4.979  1.00  0.00    -0.287 OA
ENDBRANCH   1  17
TORSDOF 2
ENDMDL
MODEL 7
REMARK VINA RESULT:      -7.4      4.466      8.855
REMARK  2 active torsions:
REMARK  status: ('A' for Active; 'I' for Inactive)
REMARK    1  A    between atoms: C_5  and  C_6 
REMARK       I    between atoms: C_6  and  N_7 
REMARK    2  A    between atoms: N_7  and  C_8 
ROOT
HETATM    1  C   UNL     1      43.248 -17.613   5.404  1.00  0.00     0.262 C 
HETATM    2  N   UNL     1      43.382 -16.330   4.923  1.00  0.00    -0.306 N 
HETATM    3  O   UNL     1      42.937 -17.946   6.544  1.00  0.00    -0.267 OA
HETATM    4  H   UNL     1      43.641 -16.204   3.948  1.00  0.00     0.170 HD
ENDROOT
BRANCH   2   5
HETATM    5  C   UNL     1      43.226 -15.174   5.657  1.00  0.00     0.152 A 
HETATM    6  N   UNL     1      42.213 -14.317   5.553  1.00  0.00    -0.156 NA
HETATM    7  N   UNL     1      42.475 -13.372   6.465  1.00  0.00    -0.275 N 
HETATM    8  H   UNL     1      41.819 -12.605   6.565  1.00  0.00     0.189 HD
HETATM    9  C   UNL     1      43.628 -13.584   7.171  1.00  0.00     0.071 A 
HETATM   10  C   UNL     1      44.105 -12.726   8.217  1.00  0.00     0.034 A 
HETATM   11  C   UNL     1      44.146 -14.751   6.649  1.00  0.00     0.084 A 
HETATM   12  S   UNL     1      43.249 -11.315   8.703  1.00  0.00    -0.076 SA
HETATM   13  C   UNL     1      45.258 -12.887   8.968  1.00  0.00     0.023 A 
HETATM   14  C   UNL     1      44.399 -10.954   9.887  1.00  0.00     0.075 A 
HETATM   15 CL   UNL     1      44.200  -9.564  10.875  1.00  0.00    -0.076 Cl
HETATM   16  C   UNL     1      45.428 -11.855   9.942  1.00  0.00     0.033 A 
ENDBRANCH   2   5
BRANCH   1  17
HETATM   17  C   UNL     1      43.537 -18.666   4.383  1.00  0.00     0.097 A 
HETATM   18  C   UNL     1      44.378 -19.669   4.691  1.00  0.00     0.109 A 
HETATM   19  N   UNL     1      44.717 -20.675   3.822  1.00  0.00    -0.368 N 
HETATM   20  C   UNL     1      44.215 -20.741   2.541  1.00  0.00     0.008 A 
HETATM   21  H   UNL     1      45.369 -21.390   4.136  1.00  0.00     0.165 HD
HETATM   22  C   UNL     1      44.661 -21.883   1.675  1.00  0.00     0.068 C 
HETATM   23  C   UNL     1      43.358 -19.805   2.095  1.00  0.00     0.080 A 
HETATM   24  C   UNL     1      42.966 -18.694   3.005  1.00  0.00     0.190 A 
HETATM   25  O   UNL     1      42.192 -17.823   2.609  1.00  0.00    -0.287 OA
ENDBRANCH   1  17
TORSDOF 2
ENDMDL
MODEL 8
REMARK VINA RESULT:      -7.2      6.439      9.032
REMARK  2 active torsions:
REMARK  status: ('A' for Active; 'I' for Inactive)
REMARK    1  A    between atoms: C_5  and  C_6 
REMARK       I    between atoms: C_6  and  N_7 
REMARK    2  A    between atoms: N_7  and  C_8 
ROOT
HETATM    1  C   UNL     1      43.345 -17.411   3.253  1.00  0.00     0.262 C 
HETATM    2  N   UNL     1      42.170 -17.049   3.870  1.00  0.00    -0.306 N 
HETATM    3  O   UNL     1      43.985 -16.754   2.436  1.00  0.00    -0.267 OA
HETATM    4  H   UNL     1      41.754 -17.698   4.535  1.00  0.00     0.170 HD
ENDROOT
BRANCH   2   5
HETATM    5  C   UNL     1      41.470 -15.883   3.651  1.00  0.00     0.152 A 
HETATM    6  N   UNL     1      41.693 -14.717   4.253  1.00  0.00    -0.156 NA
HETATM    7  N   UNL     1      40.796 -13.881   3.713  1.00  0.00    -0.275 N 
HETATM    8  H   UNL     1      40.787 -12.917   4.027  1.00  0.00     0.189 HD
HETATM    9  C   UNL     1      39.992 -14.461   2.768  1.00  0.00     0.071 A 
HETATM   10  C   UNL     1      38.976 -13.765   2.033  1.00  0.00     0.034 A 
HETATM   11  C   UNL     1      40.406 -15.776   2.721  1.00  0.00     0.084 A 
HETATM   12  S   UNL     1      38.665 -12.089   2.267  1.00  0.00    -0.076 SA
HETATM   13  C   UNL     1      38.137 -14.292   1.066  1.00  0.00     0.023 A 
HETATM   14  C   UNL     1      37.448 -12.091   1.096  1.00  0.00     0.075 A 
HETATM   15 CL   UNL     1      36.605 -10.639   0.737  1.00  0.00    -0.076 Cl
HETATM   16  C   UNL     1      37.247 -13.317   0.519  1.00  0.00     0.033 A 
ENDBRANCH   2   5
BRANCH   1  17
HETATM   17  C   UNL     1      43.837 -18.765   3.652  1.00  0.00     0.097 A 
HETATM   18  C   UNL     1      44.226 -18.978   4.922  1.00  0.00     0.109 A 
HETATM   19  N   UNL     1      44.703 -20.179   5.383  1.00  0.00    -0.368 N 
HETATM   20  C   UNL     1      44.825 -21.283   4.570  1.00  0.00     0.008 A 
HETATM   21  H   UNL     1      44.984 -20.249   6.359  1.00  0.00     0.165 HD
HETATM   22  C   UNL     1      45.365 -22.544   5.181  1.00  0.00     0.068 C 
HETATM   23  C   UNL     1      44.470 -21.220   3.274  1.00  0.00     0.080 A 
HETATM   24  C   UNL     1      43.950 -19.934   2.732  1.00  0.00     0.190 A 
HETATM   25  O   UNL     1      43.632 -19.855   1.546  1.00  0.00    -0.287 OA
ENDBRANCH   1  17
TORSDOF 2
ENDMDL
MODEL 9
REMARK VINA RESULT:      -7.1      6.559      8.962
REMARK  2 active torsions:
REMARK  status: ('A' for Active; 'I' for Inactive)
REMARK    1  A    between atoms: C_5  and  C_6 
REMARK       I    between atoms: C_6  and  N_7 
REMARK    2  A    between atoms: N_7  and  C_8 
ROOT
HETATM    1  C   UNL     1      43.061 -17.512   3.132  1.00  0.00     0.262 C 
HETATM    2  N   UNL     1      41.691 -17.421   3.235  1.00  0.00    -0.306 N 
HETATM    3  O   UNL     1      43.815 -16.716   2.578  1.00  0.00    -0.267 OA
HETATM    4  H   UNL     1      41.194 -18.157   3.731  1.00  0.00     0.170 HD
ENDROOT
BRANCH   2   5
HETATM    5  C   UNL     1      40.907 -16.425   2.696  1.00  0.00     0.152 A 
HETATM    6  N   UNL     1      40.268 -16.483   1.529  1.00  0.00    -0.156 NA
HETATM    7  N   UNL     1      39.626 -15.311   1.436  1.00  0.00    -0.275 N 
HETATM    8  H   UNL     1      39.062 -15.135   0.613  1.00  0.00     0.189 HD
HETATM    9  C   UNL     1      39.818 -14.484   2.511  1.00  0.00     0.071 A 
HETATM   10  C   UNL     1      39.215 -13.191   2.654  1.00  0.00     0.034 A 
HETATM   11  C   UNL     1      40.665 -15.187   3.342  1.00  0.00     0.084 A 
HETATM   12  S   UNL     1      38.160 -12.537   1.463  1.00  0.00    -0.076 SA
HETATM   13  C   UNL     1      39.366 -12.312   3.714  1.00  0.00     0.023 A 
HETATM   14  C   UNL     1      37.920 -11.129   2.363  1.00  0.00     0.075 A 
HETATM   15 CL   UNL     1      36.887  -9.896   1.761  1.00  0.00    -0.076 Cl
HETATM   16  C   UNL     1      38.611 -11.112   3.545  1.00  0.00     0.033 A 
ENDBRANCH   2   5
BRANCH   1  17
HETATM   17  C   UNL     1      43.627 -18.739   3.769  1.00  0.00     0.097 A 
HETATM   18  C   UNL     1      44.165 -19.697   2.994  1.00  0.00     0.109 A 
HETATM   19  N   UNL     1      44.699 -20.863   3.481  1.00  0.00    -0.368 N 
HETATM   20  C   UNL     1      44.727 -21.154   4.827  1.00  0.00     0.008 A 
HETATM   21  H   UNL     1      45.077 -21.539   2.820  1.00  0.00     0.165 HD
HETATM   22  C   UNL     1      45.330 -22.463   5.245  1.00  0.00     0.068 C 
HETATM   23  C   UNL     1      44.227 -20.285   5.723  1.00  0.00     0.080 A 
HETATM   24  C   UNL     1      43.636 -19.008   5.237  1.00  0.00     0.190 A 
HETATM   25  O   UNL     1      43.163 -18.207   6.043  1.00  0.00    -0.287 OA
ENDBRANCH   1  17
TORSDOF 2
ENDMDL
MODEL 10
REMARK VINA RESULT:      -6.9      5.925      9.282
REMARK  2 active torsions:
REMARK  status: ('A' for Active; 'I' for Inactive)
REMARK    1  A    between atoms: C_5  and  C_6 
REMARK       I    between atoms: C_6  and  N_7 
REMARK    2  A    between atoms: N_7  and  C_8 
ROOT
HETATM    1  C   UNL     1      43.119 -17.013   4.226  1.00  0.00     0.262 C 
HETATM    2  N   UNL     1      42.823 -16.044   3.294  1.00  0.00    -0.306 N 
HETATM    3  O   UNL     1      43.150 -16.880   5.446  1.00  0.00    -0.267 OA
HETATM    4  H   UNL     1      42.830 -16.303   2.310  1.00  0.00     0.170 HD
ENDROOT
BRANCH   2   5
HETATM    5  C   UNL     1      42.543 -14.723   3.565  1.00  0.00     0.152 A 
HETATM    6  N   UNL     1      43.440 -13.770   3.808  1.00  0.00    -0.156 NA
HETATM    7  N   UNL     1      42.714 -12.660   3.992  1.00  0.00    -0.275 N 
HETATM    8  H   UNL     1      43.202 -11.794   4.190  1.00  0.00     0.189 HD
HETATM    9  C   UNL     1      41.364 -12.852   3.873  1.00  0.00     0.071 A 
HETATM   10  C   UNL     1      40.384 -11.812   4.002  1.00  0.00     0.034 A 
HETATM   11  C   UNL     1      41.226 -14.199   3.608  1.00  0.00     0.084 A 
HETATM   12  S   UNL     1      40.822 -10.179   4.320  1.00  0.00    -0.076 SA
HETATM   13  C   UNL     1      39.010 -11.940   3.889  1.00  0.00     0.023 A 
HETATM   14  C   UNL     1      39.209  -9.679   4.294  1.00  0.00     0.075 A 
HETATM   15 CL   UNL     1      38.823  -8.026   4.551  1.00  0.00    -0.076 Cl
HETATM   16  C   UNL     1      38.326 -10.698   4.058  1.00  0.00     0.033 A 
ENDBRANCH   2   5
BRANCH   1  17
HETATM   17  C   UNL     1      43.439 -18.343   3.624  1.00  0.00     0.097 A 
HETATM   18  C   UNL     1      44.314 -19.153   4.244  1.00  0.00     0.109 A 
HETATM   19  N   UNL     1      44.683 -20.386   3.767  1.00  0.00    -0.368 N 
HETATM   20  C   UNL     1      44.179 -20.902   2.593  1.00  0.00     0.008 A 
HETATM   21  H   UNL     1      45.361 -20.930   4.296  1.00  0.00     0.165 HD
HETATM   22  C   UNL     1      44.659 -22.258   2.164  1.00  0.00     0.068 C 
HETATM   23  C   UNL     1      43.289 -20.203   1.867  1.00  0.00     0.080 A 
HETATM   24  C   UNL     1      42.863 -18.859   2.347  1.00  0.00     0.190 A 
HETATM   25  O   UNL     1      42.059 -18.201   1.689  1.00  0.00    -0.287 OA
ENDBRANCH   1  17
TORSDOF 2
ENDMDL
