MODEL 1
REMARK VINA RESULT:      -8.3      0.000      0.000
REMARK  11 active torsions:
REMARK  status: ('A' for Active; 'I' for Inactive)
REMARK    1  A    between atoms: C_2  and  N_3 
REMARK    2  A    between atoms: N_3  and  C_5 
REMARK    3  A    between atoms: N_3  and  C_12 
REMARK    4  A    between atoms: C_5  and  C_6 
REMARK    5  A    between atoms: C_12  and  C_13 
REMARK    6  A    between atoms: C_13  and  N_14 
REMARK       I    between atoms: N_14  and  C_15 
REMARK    7  A    between atoms: C_15  and  C_16 
REMARK    8  A    between atoms: C_24  and  N_25 
REMARK    9  A    between atoms: N_25  and  C_26 
REMARK   10  A    between atoms: C_27  and  O_28 
REMARK   11  A    between atoms: C_31  and  O_32 
ROOT
HETATM    1  C   UNL     1      43.590 -14.304   5.472  1.00  0.00     0.048 A 
HETATM    2  C   UNL     1      43.416 -15.638   5.874  1.00  0.00     0.009 A 
HETATM    3  C   UNL     1      43.787 -15.925   7.199  1.00  0.00     0.070 A 
HETATM    4  C   UNL     1      43.657 -17.228   7.659  1.00  0.00     0.032 A 
HETATM    5  C   UNL     1      43.173 -18.253   6.843  1.00  0.00     0.002 A 
HETATM    6  C   UNL     1      42.800 -17.977   5.536  1.00  0.00     0.001 A 
HETATM    7  C   UNL     1      42.916 -16.677   5.049  1.00  0.00     0.015 A 
HETATM    8  N   UNL     1      44.263 -14.990   8.039  1.00  0.00    -0.231 NA
HETATM    9  C   UNL     1      44.427 -13.719   7.624  1.00  0.00     0.129 A 
HETATM   10  C   UNL     1      44.106 -13.341   6.335  1.00  0.00     0.068 A 
ENDROOT
BRANCH   1  11
HETATM   11  C   UNL     1      43.177 -13.834   4.141  1.00  0.00     0.252 C 
HETATM   12  N   UNL     1      41.857 -13.479   4.022  1.00  0.00    -0.355 N 
HETATM   13  H   UNL     1      41.285 -13.572   4.859  1.00  0.00     0.162 HD
HETATM   14  O   UNL     1      43.981 -13.825   3.218  1.00  0.00    -0.268 OA
BRANCH  12  15
HETATM   15  C   UNL     1      41.137 -13.273   2.769  1.00  0.00     0.150 C 
BRANCH  15  16
HETATM   16  C   UNL     1      40.157 -14.370   2.293  1.00  0.00     0.255 C 
BRANCH  16  17
HETATM   17  N   UNL     1      40.523 -15.041   0.974  1.00  0.00    -0.062 N 
HETATM   18  H   UNL     1      40.125 -15.998   1.082  1.00  0.00     0.280 HD
BRANCH  17  19
HETATM   19  C   UNL     1      39.840 -14.494  -0.270  1.00  0.00     0.180 C 
HETATM   20  C   UNL     1      40.798 -13.619  -1.079  1.00  0.00     0.039 C 
HETATM   21  C   UNL     1      38.552 -13.757   0.076  1.00  0.00     0.039 C 
ENDBRANCH  17  19
BRANCH  17  22
HETATM   22  C   UNL     1      42.019 -15.252   0.844  1.00  0.00     0.273 C 
BRANCH  22  23
HETATM   23  C   UNL     1      42.492 -16.617   1.271  1.00  0.00    -0.033 A 
HETATM   24  C   UNL     1      43.860 -16.871   1.455  1.00  0.00     0.009 A 
HETATM   25  C   UNL     1      44.298 -18.137   1.847  1.00  0.00     0.001 A 
HETATM   26  C   UNL     1      43.376 -19.160   2.059  1.00  0.00     0.000 A 
HETATM   27  C   UNL     1      42.015 -18.918   1.883  1.00  0.00     0.001 A 
HETATM   28  C   UNL     1      41.572 -17.655   1.493  1.00  0.00     0.009 A 
ENDBRANCH  22  23
ENDBRANCH  17  22
ENDBRANCH  16  17
ENDBRANCH  15  16
ENDBRANCH  12  15
ENDBRANCH   1  11
BRANCH   9  29
HETATM   29  N   UNL     1      44.915 -12.727   8.493  1.00  0.00    -0.339 N 
HETATM   30  H   UNL     1      45.913 -12.828   8.662  1.00  0.00     0.167 HD
BRANCH  29  31
HETATM   31  C   UNL     1      44.285 -12.211   9.647  1.00  0.00     0.067 A 
HETATM   32  C   UNL     1      43.361 -11.159   9.521  1.00  0.00     0.097 A 
HETATM   33  C   UNL     1      42.614 -10.700  10.609  1.00  0.00     0.075 A 
HETATM   34  C   UNL     1      42.817 -11.266  11.865  1.00  0.00     0.070 A 
HETATM   35  C   UNL     1      43.768 -12.279  12.014  1.00  0.00     0.039 A 
HETATM   36  C   UNL     1      44.493 -12.752  10.915  1.00  0.00     0.035 A 
BRANCH  32  37
HETATM   37  O   UNL     1      43.160 -10.589   8.283  1.00  0.00    -0.354 OA
HETATM   38  C   UNL     1      41.786 -10.740   7.912  1.00  0.00     0.210 C 
ENDBRANCH  32  37
BRANCH  34  39
HETATM   39  O   UNL     1      42.162 -10.922  13.016  1.00  0.00    -0.356 OA
HETATM   40  C   UNL     1      40.780 -11.249  13.091  1.00  0.00     0.210 C 
ENDBRANCH  34  39
ENDBRANCH  29  31
ENDBRANCH   9  29
TORSDOF 11
ENDMDL
MODEL 2
REMARK VINA RESULT:      -7.9      2.353      4.511
REMARK  11 active torsions:
REMARK  status: ('A' for Active; 'I' for Inactive)
REMARK    1  A    between atoms: C_2  and  N_3 
REMARK    2  A    between atoms: N_3  and  C_5 
REMARK    3  A    between atoms: N_3  and  C_12 
REMARK    4  A    between atoms: C_5  and  C_6 
REMARK    5  A    between atoms: C_12  and  C_13 
REMARK    6  A    between atoms: C_13  and  N_14 
REMARK       I    between atoms: N_14  and  C_15 
REMARK    7  A    between atoms: C_15  and  C_16 
REMARK    8  A    between atoms: C_24  and  N_25 
REMARK    9  A    between atoms: N_25  and  C_26 
REMARK   10  A    between atoms: C_27  and  O_28 
REMARK   11  A    between atoms: C_31  and  O_32 
ROOT
HETATM    1  C   UNL     1      41.462 -12.936   5.214  1.00  0.00     0.048 A 
HETATM    2  C   UNL     1      40.442 -12.479   4.365  1.00  0.00     0.009 A 
HETATM    3  C   UNL     1      39.900 -11.223   4.692  1.00  0.00     0.070 A 
HETATM    4  C   UNL     1      38.876 -10.716   3.904  1.00  0.00     0.032 A 
HETATM    5  C   UNL     1      38.372 -11.418   2.807  1.00  0.00     0.002 A 
HETATM    6  C   UNL     1      38.905 -12.655   2.475  1.00  0.00     0.001 A 
HETATM    7  C   UNL     1      39.938 -13.186   3.245  1.00  0.00     0.015 A 
HETATM    8  N   UNL     1      40.332 -10.494   5.735  1.00  0.00    -0.231 NA
HETATM    9  C   UNL     1      41.308 -10.961   6.537  1.00  0.00     0.129 A 
HETATM   10  C   UNL     1      41.893 -12.191   6.309  1.00  0.00     0.068 A 
ENDROOT
BRANCH   1  11
HETATM   11  C   UNL     1      42.179 -14.194   4.958  1.00  0.00     0.252 C 
HETATM   12  N   UNL     1      41.570 -15.329   5.429  1.00  0.00    -0.355 N 
HETATM   13  H   UNL     1      40.682 -15.202   5.909  1.00  0.00     0.162 HD
HETATM   14  O   UNL     1      43.271 -14.176   4.403  1.00  0.00    -0.268 OA
BRANCH  12  15
HETATM   15  C   UNL     1      42.197 -16.640   5.571  1.00  0.00     0.150 C 
BRANCH  15  16
HETATM   16  C   UNL     1      41.762 -17.773   4.613  1.00  0.00     0.255 C 
BRANCH  16  17
HETATM   17  N   UNL     1      42.685 -18.007   3.422  1.00  0.00    -0.062 N 
HETATM   18  H   UNL     1      42.273 -18.851   2.970  1.00  0.00     0.280 HD
BRANCH  17  19
HETATM   19  C   UNL     1      42.654 -16.949   2.330  1.00  0.00     0.180 C 
HETATM   20  C   UNL     1      41.215 -16.565   1.982  1.00  0.00     0.039 C 
HETATM   21  C   UNL     1      43.438 -17.389   1.101  1.00  0.00     0.039 C 
ENDBRANCH  17  19
BRANCH  17  22
HETATM   22  C   UNL     1      44.072 -18.437   3.859  1.00  0.00     0.273 C 
BRANCH  22  23
HETATM   23  C   UNL     1      44.307 -19.924   3.803  1.00  0.00    -0.033 A 
HETATM   24  C   UNL     1      44.149 -20.625   2.597  1.00  0.00     0.009 A 
HETATM   25  C   UNL     1      44.363 -22.003   2.546  1.00  0.00     0.001 A 
HETATM   26  C   UNL     1      44.736 -22.694   3.697  1.00  0.00     0.000 A 
HETATM   27  C   UNL     1      44.898 -22.009   4.899  1.00  0.00     0.001 A 
HETATM   28  C   UNL     1      44.687 -20.631   4.954  1.00  0.00     0.009 A 
ENDBRANCH  22  23
ENDBRANCH  17  22
ENDBRANCH  16  17
ENDBRANCH  15  16
ENDBRANCH  12  15
ENDBRANCH   1  11
BRANCH   9  29
HETATM   29  N   UNL     1      41.777 -10.206   7.627  1.00  0.00    -0.339 N 
HETATM   30  H   UNL     1      42.629  -9.700   7.400  1.00  0.00     0.167 HD
BRANCH  29  31
HETATM   31  C   UNL     1      41.793 -10.584   8.988  1.00  0.00     0.067 A 
HETATM   32  C   UNL     1      43.021 -10.825   9.627  1.00  0.00     0.097 A 
HETATM   33  C   UNL     1      43.102 -11.072  11.000  1.00  0.00     0.075 A 
HETATM   34  C   UNL     1      41.933 -11.126  11.756  1.00  0.00     0.070 A 
HETATM   35  C   UNL     1      40.700 -10.936  11.124  1.00  0.00     0.039 A 
HETATM   36  C   UNL     1      40.630 -10.662   9.754  1.00  0.00     0.035 A 
BRANCH  32  37
HETATM   37  O   UNL     1      44.182 -10.781   8.886  1.00  0.00    -0.354 OA
HETATM   38  C   UNL     1      45.081 -11.790   9.357  1.00  0.00     0.210 C 
ENDBRANCH  32  37
BRANCH  34  39
HETATM   39  O   UNL     1      41.856 -11.355  13.101  1.00  0.00    -0.356 OA
HETATM   40  C   UNL     1      41.461 -10.260  13.918  1.00  0.00     0.210 C 
ENDBRANCH  34  39
ENDBRANCH  29  31
ENDBRANCH   9  29
TORSDOF 11
ENDMDL
MODEL 3
REMARK VINA RESULT:      -7.9      3.103      5.729
REMARK  11 active torsions:
REMARK  status: ('A' for Active; 'I' for Inactive)
REMARK    1  A    between atoms: C_2  and  N_3 
REMARK    2  A    between atoms: N_3  and  C_5 
REMARK    3  A    between atoms: N_3  and  C_12 
REMARK    4  A    between atoms: C_5  and  C_6 
REMARK    5  A    between atoms: C_12  and  C_13 
REMARK    6  A    between atoms: C_13  and  N_14 
REMARK       I    between atoms: N_14  and  C_15 
REMARK    7  A    between atoms: C_15  and  C_16 
REMARK    8  A    between atoms: C_24  and  N_25 
REMARK    9  A    between atoms: N_25  and  C_26 
REMARK   10  A    between atoms: C_27  and  O_28 
REMARK   11  A    between atoms: C_31  and  O_32 
ROOT
HETATM    1  C   UNL     1      42.561 -17.886   2.535  1.00  0.00     0.048 A 
HETATM    2  C   UNL     1      43.225 -19.117   2.647  1.00  0.00     0.009 A 
HETATM    3  C   UNL     1      43.884 -19.341   3.869  1.00  0.00     0.070 A 
HETATM    4  C   UNL     1      44.575 -20.532   4.043  1.00  0.00     0.032 A 
HETATM    5  C   UNL     1      44.634 -21.504   3.042  1.00  0.00     0.002 A 
HETATM    6  C   UNL     1      43.982 -21.293   1.836  1.00  0.00     0.001 A 
HETATM    7  C   UNL     1      43.276 -20.109   1.636  1.00  0.00     0.015 A 
HETATM    8  N   UNL     1      43.874 -18.449   4.874  1.00  0.00    -0.231 NA
HETATM    9  C   UNL     1      43.234 -17.272   4.736  1.00  0.00     0.129 A 
HETATM   10  C   UNL     1      42.571 -16.952   3.568  1.00  0.00     0.068 A 
ENDROOT
BRANCH   1  11
HETATM   11  C   UNL     1      41.763 -17.539   1.350  1.00  0.00     0.252 C 
HETATM   12  N   UNL     1      42.283 -16.550   0.555  1.00  0.00    -0.355 N 
HETATM   13  H   UNL     1      43.168 -16.146   0.853  1.00  0.00     0.162 HD
HETATM   14  O   UNL     1      40.686 -18.088   1.153  1.00  0.00    -0.268 OA
BRANCH  12  15
HETATM   15  C   UNL     1      41.563 -15.825  -0.489  1.00  0.00     0.150 C 
BRANCH  15  16
HETATM   16  C   UNL     1      40.540 -14.745  -0.064  1.00  0.00     0.255 C 
BRANCH  16  17
HETATM   17  N   UNL     1      40.950 -13.308  -0.361  1.00  0.00    -0.062 N 
HETATM   18  H   UNL     1      40.242 -13.003  -1.062  1.00  0.00     0.280 HD
BRANCH  17  19
HETATM   19  C   UNL     1      40.793 -12.315   0.781  1.00  0.00     0.180 C 
HETATM   20  C   UNL     1      41.343 -12.891   2.086  1.00  0.00     0.039 C 
HETATM   21  C   UNL     1      39.349 -11.854   0.928  1.00  0.00     0.039 C 
ENDBRANCH  17  19
BRANCH  17  22
HETATM   22  C   UNL     1      42.277 -13.239  -1.092  1.00  0.00     0.273 C 
BRANCH  22  23
HETATM   23  C   UNL     1      42.365 -12.137  -2.115  1.00  0.00    -0.033 A 
HETATM   24  C   UNL     1      42.872 -10.876  -1.762  1.00  0.00     0.009 A 
HETATM   25  C   UNL     1      42.949  -9.854  -2.709  1.00  0.00     0.001 A 
HETATM   26  C   UNL     1      42.522 -10.081  -4.016  1.00  0.00     0.000 A 
HETATM   27  C   UNL     1      42.021 -11.328  -4.379  1.00  0.00     0.001 A 
HETATM   28  C   UNL     1      41.943 -12.353  -3.436  1.00  0.00     0.009 A 
ENDBRANCH  22  23
ENDBRANCH  17  22
ENDBRANCH  16  17
ENDBRANCH  15  16
ENDBRANCH  12  15
ENDBRANCH   1  11
BRANCH   9  29
HETATM   29  N   UNL     1      43.207 -16.332   5.782  1.00  0.00    -0.339 N 
HETATM   30  H   UNL     1      43.278 -16.776   6.694  1.00  0.00     0.167 HD
BRANCH  29  31
HETATM   31  C   UNL     1      42.402 -15.175   5.875  1.00  0.00     0.067 A 
HETATM   32  C   UNL     1      43.010 -13.911   5.954  1.00  0.00     0.097 A 
HETATM   33  C   UNL     1      42.264 -12.729   5.916  1.00  0.00     0.075 A 
HETATM   34  C   UNL     1      40.875 -12.800   5.841  1.00  0.00     0.070 A 
HETATM   35  C   UNL     1      40.254 -14.052   5.811  1.00  0.00     0.039 A 
HETATM   36  C   UNL     1      41.009 -15.230   5.822  1.00  0.00     0.035 A 
BRANCH  32  37
HETATM   37  O   UNL     1      44.383 -13.832   6.035  1.00  0.00    -0.354 OA
HETATM   38  C   UNL     1      44.765 -13.643   7.402  1.00  0.00     0.210 C 
ENDBRANCH  32  37
BRANCH  34  39
HETATM   39  O   UNL     1      40.018 -11.736   5.795  1.00  0.00    -0.356 OA
HETATM   40  C   UNL     1      38.975 -11.792   4.830  1.00  0.00     0.210 C 
ENDBRANCH  34  39
ENDBRANCH  29  31
ENDBRANCH   9  29
TORSDOF 11
ENDMDL
MODEL 4
REMARK VINA RESULT:      -7.8      4.418      7.139
REMARK  11 active torsions:
REMARK  status: ('A' for Active; 'I' for Inactive)
REMARK    1  A    between atoms: C_2  and  N_3 
REMARK    2  A    between atoms: N_3  and  C_5 
REMARK    3  A    between atoms: N_3  and  C_12 
REMARK    4  A    between atoms: C_5  and  C_6 
REMARK    5  A    between atoms: C_12  and  C_13 
REMARK    6  A    between atoms: C_13  and  N_14 
REMARK       I    between atoms: N_14  and  C_15 
REMARK    7  A    between atoms: C_15  and  C_16 
REMARK    8  A    between atoms: C_24  and  N_25 
REMARK    9  A    between atoms: N_25  and  C_26 
REMARK   10  A    between atoms: C_27  and  O_28 
REMARK   11  A    between atoms: C_31  and  O_32 
ROOT
HETATM    1  C   UNL     1      41.692 -12.321   1.789  1.00  0.00     0.048 A 
HETATM    2  C   UNL     1      40.687 -11.981   2.707  1.00  0.00     0.009 A 
HETATM    3  C   UNL     1      40.703 -12.698   3.916  1.00  0.00     0.070 A 
HETATM    4  C   UNL     1      39.728 -12.424   4.865  1.00  0.00     0.032 A 
HETATM    5  C   UNL     1      38.736 -11.464   4.648  1.00  0.00     0.002 A 
HETATM    6  C   UNL     1      38.716 -10.749   3.460  1.00  0.00     0.001 A 
HETATM    7  C   UNL     1      39.687 -10.999   2.492  1.00  0.00     0.015 A 
HETATM    8  N   UNL     1      41.624 -13.638   4.191  1.00  0.00    -0.231 NA
HETATM    9  C   UNL     1      42.573 -13.949   3.288  1.00  0.00     0.129 A 
HETATM   10  C   UNL     1      42.631 -13.312   2.064  1.00  0.00     0.068 A 
ENDROOT
BRANCH   1  11
HETATM   11  C   UNL     1      41.852 -11.607   0.513  1.00  0.00     0.252 C 
HETATM   12  N   UNL     1      40.752 -11.602  -0.305  1.00  0.00    -0.355 N 
HETATM   13  H   UNL     1      39.927 -12.089   0.040  1.00  0.00     0.162 HD
HETATM   14  O   UNL     1      42.932 -11.108   0.221  1.00  0.00    -0.268 OA
BRANCH  12  15
HETATM   15  C   UNL     1      40.739 -11.235  -1.719  1.00  0.00     0.150 C 
BRANCH  15  16
HETATM   16  C   UNL     1      40.771 -12.366  -2.773  1.00  0.00     0.255 C 
BRANCH  16  17
HETATM   17  N   UNL     1      39.985 -13.620  -2.407  1.00  0.00    -0.062 N 
HETATM   18  H   UNL     1      39.275 -13.261  -1.735  1.00  0.00     0.280 HD
BRANCH  17  19
HETATM   19  C   UNL     1      39.159 -14.244  -3.521  1.00  0.00     0.180 C 
HETATM   20  C   UNL     1      37.665 -14.156  -3.209  1.00  0.00     0.039 C 
HETATM   21  C   UNL     1      39.596 -15.674  -3.809  1.00  0.00     0.039 C 
ENDBRANCH  17  19
BRANCH  17  22
HETATM   22  C   UNL     1      40.823 -14.597  -1.605  1.00  0.00     0.273 C 
BRANCH  22  23
HETATM   23  C   UNL     1      40.241 -14.958  -0.265  1.00  0.00    -0.033 A 
HETATM   24  C   UNL     1      40.822 -15.971   0.515  1.00  0.00     0.009 A 
HETATM   25  C   UNL     1      40.279 -16.307   1.756  1.00  0.00     0.001 A 
HETATM   26  C   UNL     1      39.153 -15.637   2.231  1.00  0.00     0.000 A 
HETATM   27  C   UNL     1      38.571 -14.628   1.468  1.00  0.00     0.001 A 
HETATM   28  C   UNL     1      39.110 -14.287   0.227  1.00  0.00     0.009 A 
ENDBRANCH  22  23
ENDBRANCH  17  22
ENDBRANCH  16  17
ENDBRANCH  15  16
ENDBRANCH  12  15
ENDBRANCH   1  11
BRANCH   9  29
HETATM   29  N   UNL     1      43.548 -14.923   3.564  1.00  0.00    -0.339 N 
HETATM   30  H   UNL     1      44.491 -14.548   3.497  1.00  0.00     0.167 HD
BRANCH  29  31
HETATM   31  C   UNL     1      43.544 -16.278   3.166  1.00  0.00     0.067 A 
HETATM   32  C   UNL     1      42.992 -17.250   4.017  1.00  0.00     0.097 A 
HETATM   33  C   UNL     1      42.844 -18.582   3.618  1.00  0.00     0.075 A 
HETATM   34  C   UNL     1      43.295 -18.973   2.360  1.00  0.00     0.070 A 
HETATM   35  C   UNL     1      43.891 -18.026   1.521  1.00  0.00     0.039 A 
HETATM   36  C   UNL     1      44.010 -16.689   1.917  1.00  0.00     0.035 A 
BRANCH  32  37
HETATM   37  O   UNL     1      42.551 -16.874   5.267  1.00  0.00    -0.354 OA
HETATM   38  C   UNL     1      41.159 -17.183   5.389  1.00  0.00     0.210 C 
ENDBRANCH  32  37
BRANCH  34  39
HETATM   39  O   UNL     1      43.217 -20.233   1.834  1.00  0.00    -0.356 OA
HETATM   40  C   UNL     1      44.139 -21.195   2.332  1.00  0.00     0.210 C 
ENDBRANCH  34  39
ENDBRANCH  29  31
ENDBRANCH   9  29
TORSDOF 11
ENDMDL
MODEL 5
REMARK VINA RESULT:      -7.8      3.428      8.091
REMARK  11 active torsions:
REMARK  status: ('A' for Active; 'I' for Inactive)
REMARK    1  A    between atoms: C_2  and  N_3 
REMARK    2  A    between atoms: N_3  and  C_5 
REMARK    3  A    between atoms: N_3  and  C_12 
REMARK    4  A    between atoms: C_5  and  C_6 
REMARK    5  A    between atoms: C_12  and  C_13 
REMARK    6  A    between atoms: C_13  and  N_14 
REMARK       I    between atoms: N_14  and  C_15 
REMARK    7  A    between atoms: C_15  and  C_16 
REMARK    8  A    between atoms: C_24  and  N_25 
REMARK    9  A    between atoms: N_25  and  C_26 
REMARK   10  A    between atoms: C_27  and  O_28 
REMARK   11  A    between atoms: C_31  and  O_32 
ROOT
HETATM    1  C   UNL     1      40.945 -12.771   4.381  1.00  0.00     0.048 A 
HETATM    2  C   UNL     1      41.144 -11.604   5.136  1.00  0.00     0.009 A 
HETATM    3  C   UNL     1      41.092 -10.400   4.413  1.00  0.00     0.070 A 
HETATM    4  C   UNL     1      41.295  -9.207   5.093  1.00  0.00     0.032 A 
HETATM    5  C   UNL     1      41.552  -9.175   6.466  1.00  0.00     0.002 A 
HETATM    6  C   UNL     1      41.600 -10.360   7.187  1.00  0.00     0.001 A 
HETATM    7  C   UNL     1      41.394 -11.571   6.531  1.00  0.00     0.015 A 
HETATM    8  N   UNL     1      40.853 -10.355   3.091  1.00  0.00    -0.231 NA
HETATM    9  C   UNL     1      40.673 -11.491   2.391  1.00  0.00     0.129 A 
HETATM   10  C   UNL     1      40.722 -12.726   3.007  1.00  0.00     0.068 A 
ENDROOT
BRANCH   1  11
HETATM   11  C   UNL     1      40.894 -14.101   5.006  1.00  0.00     0.252 C 
HETATM   12  N   UNL     1      42.078 -14.794   5.021  1.00  0.00    -0.355 N 
HETATM   13  H   UNL     1      42.881 -14.331   4.601  1.00  0.00     0.162 HD
HETATM   14  O   UNL     1      39.832 -14.541   5.427  1.00  0.00    -0.268 OA
BRANCH  12  15
HETATM   15  C   UNL     1      42.231 -16.219   5.301  1.00  0.00     0.150 C 
BRANCH  15  16
HETATM   16  C   UNL     1      41.464 -17.230   4.418  1.00  0.00     0.255 C 
BRANCH  16  17
HETATM   17  N   UNL     1      42.061 -17.473   3.037  1.00  0.00    -0.062 N 
HETATM   18  H   UNL     1      41.601 -18.357   2.735  1.00  0.00     0.280 HD
BRANCH  17  19
HETATM   19  C   UNL     1      41.684 -16.470   1.956  1.00  0.00     0.180 C 
HETATM   20  C   UNL     1      40.172 -16.240   1.929  1.00  0.00     0.039 C 
HETATM   21  C   UNL     1      42.220 -16.887   0.593  1.00  0.00     0.039 C 
ENDBRANCH  17  19
BRANCH  17  22
HETATM   22  C   UNL     1      43.539 -17.808   3.112  1.00  0.00     0.273 C 
BRANCH  22  23
HETATM   23  C   UNL     1      43.845 -19.280   3.027  1.00  0.00    -0.033 A 
HETATM   24  C   UNL     1      44.539 -19.925   4.063  1.00  0.00     0.009 A 
HETATM   25  C   UNL     1      44.826 -21.288   3.981  1.00  0.00     0.001 A 
HETATM   26  C   UNL     1      44.423 -22.020   2.866  1.00  0.00     0.000 A 
HETATM   27  C   UNL     1      43.731 -21.392   1.834  1.00  0.00     0.001 A 
HETATM   28  C   UNL     1      43.440 -20.030   1.911  1.00  0.00     0.009 A 
ENDBRANCH  22  23
ENDBRANCH  17  22
ENDBRANCH  16  17
ENDBRANCH  15  16
ENDBRANCH  12  15
ENDBRANCH   1  11
BRANCH   9  29
HETATM   29  N   UNL     1      40.414 -11.460   1.009  1.00  0.00    -0.339 N 
HETATM   30  H   UNL     1      39.614 -10.875   0.786  1.00  0.00     0.167 HD
BRANCH  29  31
HETATM   31  C   UNL     1      40.489 -12.537   0.098  1.00  0.00     0.067 A 
HETATM   32  C   UNL     1      39.310 -13.186  -0.306  1.00  0.00     0.097 A 
HETATM   33  C   UNL     1      39.313 -14.168  -1.302  1.00  0.00     0.075 A 
HETATM   34  C   UNL     1      40.520 -14.549  -1.882  1.00  0.00     0.070 A 
HETATM   35  C   UNL     1      41.707 -13.946  -1.454  1.00  0.00     0.039 A 
HETATM   36  C   UNL     1      41.692 -12.945  -0.477  1.00  0.00     0.035 A 
BRANCH  32  37
HETATM   37  O   UNL     1      38.113 -12.821   0.268  1.00  0.00    -0.354 OA
HETATM   38  C   UNL     1      37.472 -13.983   0.803  1.00  0.00     0.210 C 
ENDBRANCH  32  37
BRANCH  34  39
HETATM   39  O   UNL     1      40.679 -15.489  -2.863  1.00  0.00    -0.356 OA
HETATM   40  C   UNL     1      39.575 -15.700  -3.735  1.00  0.00     0.210 C 
ENDBRANCH  34  39
ENDBRANCH  29  31
ENDBRANCH   9  29
TORSDOF 11
ENDMDL
MODEL 6
REMARK VINA RESULT:      -7.6      3.209      5.916
REMARK  11 active torsions:
REMARK  status: ('A' for Active; 'I' for Inactive)
REMARK    1  A    between atoms: C_2  and  N_3 
REMARK    2  A    between atoms: N_3  and  C_5 
REMARK    3  A    between atoms: N_3  and  C_12 
REMARK    4  A    between atoms: C_5  and  C_6 
REMARK    5  A    between atoms: C_12  and  C_13 
REMARK    6  A    between atoms: C_13  and  N_14 
REMARK       I    between atoms: N_14  and  C_15 
REMARK    7  A    between atoms: C_15  and  C_16 
REMARK    8  A    between atoms: C_24  and  N_25 
REMARK    9  A    between atoms: N_25  and  C_26 
REMARK   10  A    between atoms: C_27  and  O_28 
REMARK   11  A    between atoms: C_31  and  O_32 
ROOT
HETATM    1  C   UNL     1      42.417 -18.018   2.654  1.00  0.00     0.048 A 
HETATM    2  C   UNL     1      43.186 -19.189   2.746  1.00  0.00     0.009 A 
HETATM    3  C   UNL     1      43.762 -19.438   4.004  1.00  0.00     0.070 A 
HETATM    4  C   UNL     1      44.549 -20.571   4.162  1.00  0.00     0.032 A 
HETATM    5  C   UNL     1      44.783 -21.459   3.110  1.00  0.00     0.002 A 
HETATM    6  C   UNL     1      44.214 -21.223   1.867  1.00  0.00     0.001 A 
HETATM    7  C   UNL     1      43.416 -20.096   1.681  1.00  0.00     0.015 A 
HETATM    8  N   UNL     1      43.583 -18.626   5.059  1.00  0.00    -0.231 NA
HETATM    9  C   UNL     1      42.846 -17.505   4.941  1.00  0.00     0.129 A 
HETATM   10  C   UNL     1      42.252 -17.164   3.742  1.00  0.00     0.068 A 
ENDROOT
BRANCH   1  11
HETATM   11  C   UNL     1      41.689 -17.661   1.428  1.00  0.00     0.252 C 
HETATM   12  N   UNL     1      42.265 -16.681   0.661  1.00  0.00    -0.355 N 
HETATM   13  H   UNL     1      43.139 -16.290   1.006  1.00  0.00     0.162 HD
HETATM   14  O   UNL     1      40.616 -18.195   1.175  1.00  0.00    -0.268 OA
BRANCH  12  15
HETATM   15  C   UNL     1      41.613 -15.947  -0.420  1.00  0.00     0.150 C 
BRANCH  15  16
HETATM   16  C   UNL     1      40.892 -14.621  -0.080  1.00  0.00     0.255 C 
BRANCH  16  17
HETATM   17  N   UNL     1      39.578 -14.388  -0.815  1.00  0.00    -0.062 N 
HETATM   18  H   UNL     1      39.117 -15.321  -0.771  1.00  0.00     0.280 HD
BRANCH  17  19
HETATM   19  C   UNL     1      38.587 -13.453  -0.140  1.00  0.00     0.180 C 
HETATM   20  C   UNL     1      39.313 -12.408   0.709  1.00  0.00     0.039 C 
HETATM   21  C   UNL     1      37.552 -14.222   0.670  1.00  0.00     0.039 C 
ENDBRANCH  17  19
BRANCH  17  22
HETATM   22  C   UNL     1      39.797 -14.131  -2.294  1.00  0.00     0.273 C 
BRANCH  22  23
HETATM   23  C   UNL     1      38.535 -13.854  -3.068  1.00  0.00    -0.033 A 
HETATM   24  C   UNL     1      37.669 -14.902  -3.418  1.00  0.00     0.009 A 
HETATM   25  C   UNL     1      36.502 -14.645  -4.139  1.00  0.00     0.001 A 
HETATM   26  C   UNL     1      36.188 -13.341  -4.516  1.00  0.00     0.000 A 
HETATM   27  C   UNL     1      37.037 -12.293  -4.171  1.00  0.00     0.001 A 
HETATM   28  C   UNL     1      38.204 -12.544  -3.450  1.00  0.00     0.009 A 
ENDBRANCH  22  23
ENDBRANCH  17  22
ENDBRANCH  16  17
ENDBRANCH  15  16
ENDBRANCH  12  15
ENDBRANCH   1  11
BRANCH   9  29
HETATM   29  N   UNL     1      42.642 -16.649   6.038  1.00  0.00    -0.339 N 
HETATM   30  H   UNL     1      42.317 -17.154   6.858  1.00  0.00     0.167 HD
BRANCH  29  31
HETATM   31  C   UNL     1      42.083 -15.352   6.022  1.00  0.00     0.067 A 
HETATM   32  C   UNL     1      42.930 -14.232   5.975  1.00  0.00     0.097 A 
HETATM   33  C   UNL     1      42.430 -12.935   5.826  1.00  0.00     0.075 A 
HETATM   34  C   UNL     1      41.053 -12.736   5.766  1.00  0.00     0.070 A 
HETATM   35  C   UNL     1      40.197 -13.837   5.861  1.00  0.00     0.039 A 
HETATM   36  C   UNL     1      40.705 -15.135   5.982  1.00  0.00     0.035 A 
BRANCH  32  37
HETATM   37  O   UNL     1      44.293 -14.420   6.041  1.00  0.00    -0.354 OA
HETATM   38  C   UNL     1      44.796 -13.805   7.232  1.00  0.00     0.210 C 
ENDBRANCH  32  37
BRANCH  34  39
HETATM   39  O   UNL     1      40.421 -11.532   5.621  1.00  0.00    -0.356 OA
HETATM   40  C   UNL     1      41.209 -10.446   5.148  1.00  0.00     0.210 C 
ENDBRANCH  34  39
ENDBRANCH  29  31
ENDBRANCH   9  29
TORSDOF 11
ENDMDL
MODEL 7
REMARK VINA RESULT:      -7.6      1.528      3.088
REMARK  11 active torsions:
REMARK  status: ('A' for Active; 'I' for Inactive)
REMARK    1  A    between atoms: C_2  and  N_3 
REMARK    2  A    between atoms: N_3  and  C_5 
REMARK    3  A    between atoms: N_3  and  C_12 
REMARK    4  A    between atoms: C_5  and  C_6 
REMARK    5  A    between atoms: C_12  and  C_13 
REMARK    6  A    between atoms: C_13  and  N_14 
REMARK       I    between atoms: N_14  and  C_15 
REMARK    7  A    between atoms: C_15  and  C_16 
REMARK    8  A    between atoms: C_24  and  N_25 
REMARK    9  A    between atoms: N_25  and  C_26 
REMARK   10  A    between atoms: C_27  and  O_28 
REMARK   11  A    between atoms: C_31  and  O_32 
ROOT
HETATM    1  C   UNL     1      42.668 -14.589   5.551  1.00  0.00     0.048 A 
HETATM    2  C   UNL     1      43.226 -15.869   5.701  1.00  0.00     0.009 A 
HETATM    3  C   UNL     1      44.289 -15.962   6.616  1.00  0.00     0.070 A 
HETATM    4  C   UNL     1      44.899 -17.194   6.803  1.00  0.00     0.032 A 
HETATM    5  C   UNL     1      44.489 -18.334   6.107  1.00  0.00     0.002 A 
HETATM    6  C   UNL     1      43.437 -18.251   5.206  1.00  0.00     0.001 A 
HETATM    7  C   UNL     1      42.803 -17.027   5.002  1.00  0.00     0.015 A 
HETATM    8  N   UNL     1      44.739 -14.907   7.317  1.00  0.00    -0.231 NA
HETATM    9  C   UNL     1      44.189 -13.689   7.147  1.00  0.00     0.129 A 
HETATM   10  C   UNL     1      43.150 -13.492   6.259  1.00  0.00     0.068 A 
ENDROOT
BRANCH   1  11
HETATM   11  C   UNL     1      41.501 -14.348   4.689  1.00  0.00     0.252 C 
HETATM   12  N   UNL     1      41.772 -13.781   3.470  1.00  0.00    -0.355 N 
HETATM   13  H   UNL     1      42.750 -13.579   3.270  1.00  0.00     0.162 HD
HETATM   14  O   UNL     1      40.375 -14.605   5.096  1.00  0.00    -0.268 OA
BRANCH  12  15
HETATM   15  C   UNL     1      40.793 -13.175   2.572  1.00  0.00     0.150 C 
BRANCH  15  16
HETATM   16  C   UNL     1      40.313 -13.989   1.348  1.00  0.00     0.255 C 
BRANCH  16  17
HETATM   17  N   UNL     1      41.401 -14.766   0.616  1.00  0.00    -0.062 N 
HETATM   18  H   UNL     1      42.264 -14.509   1.140  1.00  0.00     0.280 HD
BRANCH  17  19
HETATM   19  C   UNL     1      41.336 -16.282   0.731  1.00  0.00     0.180 C 
HETATM   20  C   UNL     1      40.305 -16.707   1.778  1.00  0.00     0.039 C 
HETATM   21  C   UNL     1      42.708 -16.883   1.008  1.00  0.00     0.039 C 
ENDBRANCH  17  19
BRANCH  17  22
HETATM   22  C   UNL     1      41.625 -14.239  -0.788  1.00  0.00     0.273 C 
BRANCH  22  23
HETATM   23  C   UNL     1      40.559 -14.633  -1.775  1.00  0.00    -0.033 A 
HETATM   24  C   UNL     1      39.334 -13.948  -1.814  1.00  0.00     0.009 A 
HETATM   25  C   UNL     1      38.345 -14.317  -2.727  1.00  0.00     0.001 A 
HETATM   26  C   UNL     1      38.569 -15.372  -3.609  1.00  0.00     0.000 A 
HETATM   27  C   UNL     1      39.781 -16.057  -3.583  1.00  0.00     0.001 A 
HETATM   28  C   UNL     1      40.773 -15.691  -2.673  1.00  0.00     0.009 A 
ENDBRANCH  22  23
ENDBRANCH  17  22
ENDBRANCH  16  17
ENDBRANCH  15  16
ENDBRANCH  12  15
ENDBRANCH   1  11
BRANCH   9  29
HETATM   29  N   UNL     1      44.643 -12.578   7.879  1.00  0.00    -0.339 N 
HETATM   30  H   UNL     1      45.650 -12.458   7.803  1.00  0.00     0.167 HD
BRANCH  29  31
HETATM   31  C   UNL     1      44.206 -12.153   9.153  1.00  0.00     0.067 A 
HETATM   32  C   UNL     1      43.239 -11.138   9.252  1.00  0.00     0.097 A 
HETATM   33  C   UNL     1      42.677 -10.772  10.479  1.00  0.00     0.075 A 
HETATM   34  C   UNL     1      43.115 -11.395  11.645  1.00  0.00     0.070 A 
HETATM   35  C   UNL     1      44.112 -12.373  11.566  1.00  0.00     0.039 A 
HETATM   36  C   UNL     1      44.650 -12.753  10.332  1.00  0.00     0.035 A 
BRANCH  32  37
HETATM   37  O   UNL     1      42.806 -10.511   8.105  1.00  0.00    -0.354 OA
HETATM   38  C   UNL     1      41.376 -10.550   8.057  1.00  0.00     0.210 C 
ENDBRANCH  32  37
BRANCH  34  39
HETATM   39  O   UNL     1      42.659 -11.144  12.909  1.00  0.00    -0.356 OA
HETATM   40  C   UNL     1      41.251 -11.026  13.074  1.00  0.00     0.210 C 
ENDBRANCH  34  39
ENDBRANCH  29  31
ENDBRANCH   9  29
TORSDOF 11
ENDMDL
MODEL 8
REMARK VINA RESULT:      -7.6      2.309      9.843
REMARK  11 active torsions:
REMARK  status: ('A' for Active; 'I' for Inactive)
REMARK    1  A    between atoms: C_2  and  N_3 
REMARK    2  A    between atoms: N_3  and  C_5 
REMARK    3  A    between atoms: N_3  and  C_12 
REMARK    4  A    between atoms: C_5  and  C_6 
REMARK    5  A    between atoms: C_12  and  C_13 
REMARK    6  A    between atoms: C_13  and  N_14 
REMARK       I    between atoms: N_14  and  C_15 
REMARK    7  A    between atoms: C_15  and  C_16 
REMARK    8  A    between atoms: C_24  and  N_25 
REMARK    9  A    between atoms: N_25  and  C_26 
REMARK   10  A    between atoms: C_27  and  O_28 
REMARK   11  A    between atoms: C_31  and  O_32 
ROOT
HETATM    1  C   UNL     1      42.838 -15.236   5.497  1.00  0.00     0.048 A 
HETATM    2  C   UNL     1      43.324 -16.525   5.768  1.00  0.00     0.009 A 
HETATM    3  C   UNL     1      42.716 -17.566   5.045  1.00  0.00     0.070 A 
HETATM    4  C   UNL     1      43.136 -18.869   5.275  1.00  0.00     0.032 A 
HETATM    5  C   UNL     1      44.138 -19.168   6.201  1.00  0.00     0.002 A 
HETATM    6  C   UNL     1      44.746 -18.146   6.915  1.00  0.00     0.001 A 
HETATM    7  C   UNL     1      44.347 -16.828   6.701  1.00  0.00     0.015 A 
HETATM    8  N   UNL     1      41.744 -17.353   4.142  1.00  0.00    -0.231 NA
HETATM    9  C   UNL     1      41.292 -16.106   3.907  1.00  0.00     0.129 A 
HETATM   10  C   UNL     1      41.814 -15.018   4.579  1.00  0.00     0.068 A 
ENDROOT
BRANCH   1  11
HETATM   11  C   UNL     1      43.425 -14.039   6.116  1.00  0.00     0.252 C 
HETATM   12  N   UNL     1      42.530 -13.164   6.679  1.00  0.00    -0.355 N 
HETATM   13  H   UNL     1      41.547 -13.419   6.619  1.00  0.00     0.162 HD
HETATM   14  O   UNL     1      44.634 -13.852   6.064  1.00  0.00    -0.268 OA
BRANCH  12  15
HETATM   15  C   UNL     1      42.816 -11.790   7.081  1.00  0.00     0.150 C 
BRANCH  15  16
HETATM   16  C   UNL     1      42.025 -11.189   8.266  1.00  0.00     0.255 C 
BRANCH  16  17
HETATM   17  N   UNL     1      42.767 -11.165   9.597  1.00  0.00    -0.062 N 
HETATM   18  H   UNL     1      42.206 -11.812  10.189  1.00  0.00     0.280 HD
BRANCH  17  19
HETATM   19  C   UNL     1      44.161 -11.774   9.600  1.00  0.00     0.180 C 
HETATM   20  C   UNL     1      44.310 -12.791  10.733  1.00  0.00     0.039 C 
HETATM   21  C   UNL     1      45.242 -10.703   9.653  1.00  0.00     0.039 C 
ENDBRANCH  17  19
BRANCH  17  22
HETATM   22  C   UNL     1      42.656  -9.816  10.281  1.00  0.00     0.273 C 
BRANCH  22  23
HETATM   23  C   UNL     1      42.495  -9.890  11.776  1.00  0.00    -0.033 A 
HETATM   24  C   UNL     1      43.435  -9.285  12.625  1.00  0.00     0.009 A 
HETATM   25  C   UNL     1      43.287  -9.358  14.011  1.00  0.00     0.001 A 
HETATM   26  C   UNL     1      42.201 -10.035  14.563  1.00  0.00     0.000 A 
HETATM   27  C   UNL     1      41.260 -10.636  13.730  1.00  0.00     0.001 A 
HETATM   28  C   UNL     1      41.402 -10.565  12.344  1.00  0.00     0.009 A 
ENDBRANCH  22  23
ENDBRANCH  17  22
ENDBRANCH  16  17
ENDBRANCH  15  16
ENDBRANCH  12  15
ENDBRANCH   1  11
BRANCH   9  29
HETATM   29  N   UNL     1      40.282 -15.865   2.958  1.00  0.00    -0.339 N 
HETATM   30  H   UNL     1      39.456 -16.433   3.130  1.00  0.00     0.167 HD
BRANCH  29  31
HETATM   31  C   UNL     1      40.440 -15.659   1.570  1.00  0.00     0.067 A 
HETATM   32  C   UNL     1      39.745 -14.613   0.940  1.00  0.00     0.097 A 
HETATM   33  C   UNL     1      39.965 -14.283  -0.400  1.00  0.00     0.075 A 
HETATM   34  C   UNL     1      40.864 -15.036  -1.151  1.00  0.00     0.070 A 
HETATM   35  C   UNL     1      41.527 -16.111  -0.550  1.00  0.00     0.039 A 
HETATM   36  C   UNL     1      41.322 -16.418   0.799  1.00  0.00     0.035 A 
BRANCH  32  37
HETATM   37  O   UNL     1      38.848 -13.868   1.674  1.00  0.00    -0.354 OA
HETATM   38  C   UNL     1      37.587 -13.848   0.997  1.00  0.00     0.210 C 
ENDBRANCH  32  37
BRANCH  34  39
HETATM   39  O   UNL     1      41.181 -14.833  -2.466  1.00  0.00    -0.356 OA
HETATM   40  C   UNL     1      40.105 -14.850  -3.396  1.00  0.00     0.210 C 
ENDBRANCH  34  39
ENDBRANCH  29  31
ENDBRANCH   9  29
TORSDOF 11
ENDMDL
MODEL 9
REMARK VINA RESULT:      -7.6      2.391      8.753
REMARK  11 active torsions:
REMARK  status: ('A' for Active; 'I' for Inactive)
REMARK    1  A    between atoms: C_2  and  N_3 
REMARK    2  A    between atoms: N_3  and  C_5 
REMARK    3  A    between atoms: N_3  and  C_12 
REMARK    4  A    between atoms: C_5  and  C_6 
REMARK    5  A    between atoms: C_12  and  C_13 
REMARK    6  A    between atoms: C_13  and  N_14 
REMARK       I    between atoms: N_14  and  C_15 
REMARK    7  A    between atoms: C_15  and  C_16 
REMARK    8  A    between atoms: C_24  and  N_25 
REMARK    9  A    between atoms: N_25  and  C_26 
REMARK   10  A    between atoms: C_27  and  O_28 
REMARK   11  A    between atoms: C_31  and  O_32 
ROOT
HETATM    1  C   UNL     1      43.475 -15.021   6.212  1.00  0.00     0.048 A 
HETATM    2  C   UNL     1      43.740 -16.395   6.096  1.00  0.00     0.009 A 
HETATM    3  C   UNL     1      42.779 -17.141   5.391  1.00  0.00     0.070 A 
HETATM    4  C   UNL     1      42.970 -18.509   5.252  1.00  0.00     0.032 A 
HETATM    5  C   UNL     1      44.082 -19.158   5.794  1.00  0.00     0.002 A 
HETATM    6  C   UNL     1      45.037 -18.428   6.487  1.00  0.00     0.001 A 
HETATM    7  C   UNL     1      44.874 -17.052   6.638  1.00  0.00     0.015 A 
HETATM    8  N   UNL     1      41.684 -16.584   4.847  1.00  0.00    -0.231 NA
HETATM    9  C   UNL     1      41.451 -15.264   4.979  1.00  0.00     0.129 A 
HETATM   10  C   UNL     1      42.327 -14.450   5.668  1.00  0.00     0.068 A 
ENDROOT
BRANCH   1  11
HETATM   11  C   UNL     1      44.423 -14.099   6.853  1.00  0.00     0.252 C 
HETATM   12  N   UNL     1      44.131 -13.757   8.149  1.00  0.00    -0.355 N 
HETATM   13  H   UNL     1      43.291 -14.169   8.550  1.00  0.00     0.162 HD
HETATM   14  O   UNL     1      45.368 -13.651   6.217  1.00  0.00    -0.268 OA
BRANCH  12  15
HETATM   15  C   UNL     1      44.725 -12.652   8.896  1.00  0.00     0.150 C 
BRANCH  15  16
HETATM   16  C   UNL     1      44.405 -12.526  10.404  1.00  0.00     0.255 C 
BRANCH  16  17
HETATM   17  N   UNL     1      43.184 -11.679  10.742  1.00  0.00    -0.062 N 
HETATM   18  H   UNL     1      42.391 -12.330  10.560  1.00  0.00     0.280 HD
BRANCH  17  19
HETATM   19  C   UNL     1      43.018 -11.292  12.204  1.00  0.00     0.180 C 
HETATM   20  C   UNL     1      41.555 -11.399  12.634  1.00  0.00     0.039 C 
HETATM   21  C   UNL     1      43.595  -9.912  12.488  1.00  0.00     0.039 C 
ENDBRANCH  17  19
BRANCH  17  22
HETATM   22  C   UNL     1      42.993 -10.545   9.753  1.00  0.00     0.273 C 
BRANCH  22  23
HETATM   23  C   UNL     1      41.763 -10.672   8.894  1.00  0.00    -0.033 A 
HETATM   24  C   UNL     1      40.484 -10.581   9.464  1.00  0.00     0.009 A 
HETATM   25  C   UNL     1      39.344 -10.703   8.667  1.00  0.00     0.001 A 
HETATM   26  C   UNL     1      39.471 -10.917   7.296  1.00  0.00     0.000 A 
HETATM   27  C   UNL     1      40.735 -11.006   6.719  1.00  0.00     0.001 A 
HETATM   28  C   UNL     1      41.877 -10.883   7.510  1.00  0.00     0.009 A 
ENDBRANCH  22  23
ENDBRANCH  17  22
ENDBRANCH  16  17
ENDBRANCH  15  16
ENDBRANCH  12  15
ENDBRANCH   1  11
BRANCH   9  29
HETATM   29  N   UNL     1      40.314 -14.666   4.407  1.00  0.00    -0.339 N 
HETATM   30  H   UNL     1      39.456 -14.968   4.862  1.00  0.00     0.167 HD
BRANCH  29  31
HETATM   31  C   UNL     1      40.069 -14.423   3.038  1.00  0.00     0.067 A 
HETATM   32  C   UNL     1      39.979 -13.100   2.573  1.00  0.00     0.097 A 
HETATM   33  C   UNL     1      39.869 -12.803   1.212  1.00  0.00     0.075 A 
HETATM   34  C   UNL     1      39.801 -13.843   0.287  1.00  0.00     0.070 A 
HETATM   35  C   UNL     1      39.841 -15.165   0.741  1.00  0.00     0.039 A 
HETATM   36  C   UNL     1      39.979 -15.454   2.103  1.00  0.00     0.035 A 
BRANCH  32  37
HETATM   37  O   UNL     1      40.037 -12.066   3.481  1.00  0.00    -0.354 OA
HETATM   38  C   UNL     1      38.721 -11.537   3.678  1.00  0.00     0.210 C 
ENDBRANCH  32  37
BRANCH  34  39
HETATM   39  O   UNL     1      39.694 -13.707  -1.069  1.00  0.00    -0.356 OA
HETATM   40  C   UNL     1      40.765 -14.220  -1.853  1.00  0.00     0.210 C 
ENDBRANCH  34  39
ENDBRANCH  29  31
ENDBRANCH   9  29
TORSDOF 11
ENDMDL
MODEL 10
REMARK VINA RESULT:      -7.5      2.715      9.854
REMARK  11 active torsions:
REMARK  status: ('A' for Active; 'I' for Inactive)
REMARK    1  A    between atoms: C_2  and  N_3 
REMARK    2  A    between atoms: N_3  and  C_5 
REMARK    3  A    between atoms: N_3  and  C_12 
REMARK    4  A    between atoms: C_5  and  C_6 
REMARK    5  A    between atoms: C_12  and  C_13 
REMARK    6  A    between atoms: C_13  and  N_14 
REMARK       I    between atoms: N_14  and  C_15 
REMARK    7  A    between atoms: C_15  and  C_16 
REMARK    8  A    between atoms: C_24  and  N_25 
REMARK    9  A    between atoms: N_25  and  C_26 
REMARK   10  A    between atoms: C_27  and  O_28 
REMARK   11  A    between atoms: C_31  and  O_32 
ROOT
HETATM    1  C   UNL     1      40.017 -12.710   5.459  1.00  0.00     0.048 A 
HETATM    2  C   UNL     1      39.705 -12.410   4.123  1.00  0.00     0.009 A 
HETATM    3  C   UNL     1      39.703 -13.505   3.241  1.00  0.00     0.070 A 
HETATM    4  C   UNL     1      39.418 -13.279   1.902  1.00  0.00     0.032 A 
HETATM    5  C   UNL     1      39.140 -12.001   1.412  1.00  0.00     0.002 A 
HETATM    6  C   UNL     1      39.136 -10.916   2.277  1.00  0.00     0.001 A 
HETATM    7  C   UNL     1      39.413 -11.115   3.628  1.00  0.00     0.015 A 
HETATM    8  N   UNL     1      39.965 -14.761   3.642  1.00  0.00    -0.231 NA
HETATM    9  C   UNL     1      40.268 -15.019   4.928  1.00  0.00     0.129 A 
HETATM   10  C   UNL     1      40.313 -14.008   5.868  1.00  0.00     0.068 A 
ENDROOT
BRANCH   1  11
HETATM   11  C   UNL     1      39.986 -11.685   6.513  1.00  0.00     0.252 C 
HETATM   12  N   UNL     1      41.209 -11.225   6.929  1.00  0.00    -0.355 N 
HETATM   13  H   UNL     1      42.025 -11.631   6.475  1.00  0.00     0.162 HD
HETATM   14  O   UNL     1      38.916 -11.332   6.992  1.00  0.00    -0.268 OA
BRANCH  12  15
HETATM   15  C   UNL     1      41.464 -10.450   8.140  1.00  0.00     0.150 C 
BRANCH  15  16
HETATM   16  C   UNL     1      42.844 -10.587   8.825  1.00  0.00     0.255 C 
BRANCH  16  17
HETATM   17  N   UNL     1      42.837 -11.324  10.159  1.00  0.00    -0.062 N 
HETATM   18  H   UNL     1      42.649 -12.310   9.880  1.00  0.00     0.280 HD
BRANCH  17  19
HETATM   19  C   UNL     1      44.167 -11.394  10.894  1.00  0.00     0.180 C 
HETATM   20  C   UNL     1      45.307 -10.886  10.010  1.00  0.00     0.039 C 
HETATM   21  C   UNL     1      44.441 -12.794  11.426  1.00  0.00     0.039 C 
ENDBRANCH  17  19
BRANCH  17  22
HETATM   22  C   UNL     1      41.651 -10.928  11.017  1.00  0.00     0.273 C 
BRANCH  22  23
HETATM   23  C   UNL     1      42.014 -10.170  12.266  1.00  0.00    -0.033 A 
HETATM   24  C   UNL     1      41.993 -10.806  13.517  1.00  0.00     0.009 A 
HETATM   25  C   UNL     1      42.326 -10.102  14.675  1.00  0.00     0.001 A 
HETATM   26  C   UNL     1      42.685  -8.757  14.595  1.00  0.00     0.000 A 
HETATM   27  C   UNL     1      42.713  -8.117  13.359  1.00  0.00     0.001 A 
HETATM   28  C   UNL     1      42.382  -8.816  12.199  1.00  0.00     0.009 A 
ENDBRANCH  22  23
ENDBRANCH  17  22
ENDBRANCH  16  17
ENDBRANCH  15  16
ENDBRANCH  12  15
ENDBRANCH   1  11
BRANCH   9  29
HETATM   29  N   UNL     1      40.536 -16.328   5.364  1.00  0.00    -0.339 N 
HETATM   30  H   UNL     1      40.361 -16.441   6.359  1.00  0.00     0.167 HD
BRANCH  29  31
HETATM   31  C   UNL     1      41.606 -17.162   4.970  1.00  0.00     0.067 A 
HETATM   32  C   UNL     1      42.419 -17.757   5.949  1.00  0.00     0.097 A 
HETATM   33  C   UNL     1      43.406 -18.691   5.620  1.00  0.00     0.075 A 
HETATM   34  C   UNL     1      43.625 -19.012   4.283  1.00  0.00     0.070 A 
HETATM   35  C   UNL     1      42.856 -18.390   3.294  1.00  0.00     0.039 A 
HETATM   36  C   UNL     1      41.852 -17.477   3.633  1.00  0.00     0.035 A 
BRANCH  32  37
HETATM   37  O   UNL     1      42.214 -17.440   7.274  1.00  0.00    -0.354 OA
HETATM   38  C   UNL     1      43.347 -16.718   7.767  1.00  0.00     0.210 C 
ENDBRANCH  32  37
BRANCH  34  39
HETATM   39  O   UNL     1      44.549 -19.903   3.811  1.00  0.00    -0.356 OA
HETATM   40  C   UNL     1      44.936 -20.953   4.691  1.00  0.00     0.210 C 
ENDBRANCH  34  39
ENDBRANCH  29  31
ENDBRANCH   9  29
TORSDOF 11
ENDMDL
