MODEL 1
REMARK VINA RESULT:      -9.8      0.000      0.000
REMARK  5 active torsions:
REMARK  status: ('A' for Active; 'I' for Inactive)
REMARK    1  A    between atoms: C_4  and  C_5 
REMARK       I    between atoms: C_5  and  N_6 
REMARK    2  A    between atoms: C_9  and  C_10 
REMARK    3  A    between atoms: C_10  and  C_11 
REMARK    4  A    between atoms: N_20  and  C_21 
REMARK    5  A    between atoms: C_21  and  C_22 
ROOT
HETATM    1  C   UNL     1      42.432 -15.042   4.894  1.00  0.00     0.148 A 
HETATM    2  N   UNL     1      41.503 -16.102   4.513  1.00  0.00    -0.320 N 
HETATM    3  C   UNL     1      41.608 -17.225   5.293  1.00  0.00     0.326 A 
HETATM    4  O   UNL     1      40.869 -18.190   5.196  1.00  0.00    -0.247 OA
HETATM    5  N   UNL     1      42.665 -17.076   6.125  1.00  0.00    -0.263 N 
HETATM    6  C   UNL     1      43.239 -15.852   5.946  1.00  0.00     0.262 A 
HETATM    7  O   UNL     1      44.242 -15.466   6.532  1.00  0.00    -0.270 OA
HETATM    8  H   UNL     1      40.683 -15.986   3.931  1.00  0.00     0.166 HD
ENDROOT
BRANCH   1   9
HETATM    9  C   UNL     1      43.262 -14.587   3.645  1.00  0.00     0.031 C 
HETATM   10  C   UNL     1      43.583 -15.675   2.600  1.00  0.00     0.028 C 
HETATM   11  C   UNL     1      42.517 -15.901   1.531  1.00  0.00     0.126 C 
HETATM   12  N   UNL     1      41.985 -14.666   0.950  1.00  0.00    -0.350 N 
HETATM   13  C   UNL     1      41.304 -14.818  -0.265  1.00  0.00     0.251 C 
HETATM   14  C   UNL     1      41.652 -13.598   1.891  1.00  0.00     0.126 C 
HETATM   15  O   UNL     1      41.183 -15.919  -0.810  1.00  0.00    -0.271 OA
HETATM   16  C   UNL     1      42.749 -13.333   2.912  1.00  0.00     0.028 C 
BRANCH  13  17
HETATM   17  C   UNL     1      40.747 -13.548  -0.966  1.00  0.00     0.279 C 
HETATM   18  N   UNL     1      39.264 -13.634  -1.410  1.00  0.00    -0.062 N 
HETATM   19  C   UNL     1      38.332 -13.866  -0.252  1.00  0.00     0.270 C 
HETATM   20  H   UNL     1      39.023 -12.710  -1.787  1.00  0.00     0.280 HD
HETATM   21  C   UNL     1      39.019 -14.626  -2.524  1.00  0.00     0.235 C 
HETATM   22  C   UNL     1      39.892 -14.279  -3.719  1.00  0.00     0.028 C 
HETATM   23  C   UNL     1      41.366 -14.179  -3.348  1.00  0.00     0.004 C 
HETATM   24  C   UNL     1      41.585 -13.195  -2.200  1.00  0.00     0.043 C 
ENDBRANCH  13  17
ENDBRANCH   1   9
BRANCH   1  25
HETATM   25  C   UNL     1      41.628 -13.889   5.493  1.00  0.00    -0.003 A 
HETATM   26  C   UNL     1      42.221 -12.766   6.069  1.00  0.00     0.126 A 
HETATM   27  N   UNL     1      41.536 -11.719   6.584  1.00  0.00    -0.272 NA
HETATM   28  C   UNL     1      40.190 -11.778   6.542  1.00  0.00     0.116 A 
HETATM   29  C   UNL     1      39.492 -12.836   5.992  1.00  0.00     0.020 A 
HETATM   30  C   UNL     1      40.221 -13.897   5.459  1.00  0.00     0.013 A 
ENDBRANCH   1  25
BRANCH   5  31
HETATM   31  C   UNL     1      43.101 -18.062   7.087  1.00  0.00     0.175 C 
BRANCH  31  32
HETATM   32  C   UNL     1      43.695 -19.278   6.417  1.00  0.00    -0.040 A 
HETATM   33  C   UNL     1      43.549 -20.548   6.995  1.00  0.00     0.012 A 
HETATM   34  C   UNL     1      44.107 -21.670   6.381  1.00  0.00     0.043 A 
HETATM   35  C   UNL     1      44.821 -21.521   5.198  1.00  0.00     0.116 A 
HETATM   36  F   UNL     1      45.355 -22.599   4.609  1.00  0.00    -0.206 F 
HETATM   37  C   UNL     1      44.992 -20.270   4.618  1.00  0.00     0.043 A 
HETATM   38  C   UNL     1      44.432 -19.148   5.228  1.00  0.00     0.012 A 
ENDBRANCH  31  32
ENDBRANCH   5  31
TORSDOF 5
ENDMDL
MODEL 2
REMARK VINA RESULT:      -9.6      3.120      6.164
REMARK  5 active torsions:
REMARK  status: ('A' for Active; 'I' for Inactive)
REMARK    1  A    between atoms: C_4  and  C_5 
REMARK       I    between atoms: C_5  and  N_6 
REMARK    2  A    between atoms: C_9  and  C_10 
REMARK    3  A    between atoms: C_10  and  C_11 
REMARK    4  A    between atoms: N_20  and  C_21 
REMARK    5  A    between atoms: C_21  and  C_22 
ROOT
HETATM    1  C   UNL     1      42.340 -16.997   2.894  1.00  0.00     0.148 A 
HETATM    2  N   UNL     1      43.213 -15.908   2.467  1.00  0.00    -0.320 N 
HETATM    3  C   UNL     1      43.371 -14.931   3.418  1.00  0.00     0.326 A 
HETATM    4  O   UNL     1      44.122 -13.979   3.294  1.00  0.00    -0.247 OA
HETATM    5  N   UNL     1      42.540 -15.198   4.453  1.00  0.00    -0.263 N 
HETATM    6  C   UNL     1      41.865 -16.361   4.230  1.00  0.00     0.262 A 
HETATM    7  O   UNL     1      41.012 -16.821   4.979  1.00  0.00    -0.270 OA
HETATM    8  H   UNL     1      43.858 -15.940   1.688  1.00  0.00     0.166 HD
ENDROOT
BRANCH   1   9
HETATM    9  C   UNL     1      41.205 -17.217   1.836  1.00  0.00     0.031 C 
HETATM   10  C   UNL     1      39.836 -16.584   2.157  1.00  0.00     0.028 C 
HETATM   11  C   UNL     1      39.658 -15.133   1.719  1.00  0.00     0.126 C 
HETATM   12  N   UNL     1      40.128 -14.860   0.358  1.00  0.00    -0.350 N 
HETATM   13  C   UNL     1      39.654 -13.672  -0.214  1.00  0.00     0.251 C 
HETATM   14  C   UNL     1      41.426 -15.426  -0.005  1.00  0.00     0.126 C 
HETATM   15  O   UNL     1      38.879 -12.923   0.387  1.00  0.00    -0.271 OA
HETATM   16  C   UNL     1      41.571 -16.892   0.375  1.00  0.00     0.028 C 
BRANCH  13  17
HETATM   17  C   UNL     1      40.075 -13.333  -1.672  1.00  0.00     0.279 C 
HETATM   18  N   UNL     1      39.903 -11.848  -2.082  1.00  0.00    -0.062 N 
HETATM   19  C   UNL     1      40.724 -10.920  -1.227  1.00  0.00     0.270 C 
HETATM   20  H   UNL     1      40.283 -11.767  -3.033  1.00  0.00     0.280 HD
HETATM   21  C   UNL     1      38.462 -11.399  -2.158  1.00  0.00     0.235 C 
HETATM   22  C   UNL     1      37.700 -12.288  -3.127  1.00  0.00     0.028 C 
HETATM   23  C   UNL     1      37.828 -13.765  -2.778  1.00  0.00     0.004 C 
HETATM   24  C   UNL     1      39.292 -14.188  -2.676  1.00  0.00     0.043 C 
ENDBRANCH  13  17
ENDBRANCH   1   9
BRANCH   1  25
HETATM   25  C   UNL     1      43.193 -18.252   3.081  1.00  0.00    -0.003 A 
HETATM   26  C   UNL     1      43.968 -18.483   4.217  1.00  0.00     0.126 A 
HETATM   27  N   UNL     1      44.712 -19.594   4.423  1.00  0.00    -0.272 NA
HETATM   28  C   UNL     1      44.707 -20.531   3.453  1.00  0.00     0.116 A 
HETATM   29  C   UNL     1      43.975 -20.414   2.287  1.00  0.00     0.020 A 
HETATM   30  C   UNL     1      43.208 -19.266   2.106  1.00  0.00     0.013 A 
ENDBRANCH   1  25
BRANCH   5  31
HETATM   31  C   UNL     1      42.413 -14.381   5.638  1.00  0.00     0.175 C 
BRANCH  31  32
HETATM   32  C   UNL     1      41.381 -13.293   5.463  1.00  0.00    -0.040 A 
HETATM   33  C   UNL     1      41.748 -12.047   4.931  1.00  0.00     0.012 A 
HETATM   34  C   UNL     1      40.796 -11.038   4.779  1.00  0.00     0.043 A 
HETATM   35  C   UNL     1      39.482 -11.269   5.170  1.00  0.00     0.116 A 
HETATM   36  F   UNL     1      38.569 -10.300   5.023  1.00  0.00    -0.206 F 
HETATM   37  C   UNL     1      39.101 -12.489   5.715  1.00  0.00     0.043 A 
HETATM   38  C   UNL     1      40.050 -13.501   5.864  1.00  0.00     0.012 A 
ENDBRANCH  31  32
ENDBRANCH   5  31
TORSDOF 5
ENDMDL
MODEL 3
REMARK VINA RESULT:      -9.3      2.017      2.778
REMARK  5 active torsions:
REMARK  status: ('A' for Active; 'I' for Inactive)
REMARK    1  A    between atoms: C_4  and  C_5 
REMARK       I    between atoms: C_5  and  N_6 
REMARK    2  A    between atoms: C_9  and  C_10 
REMARK    3  A    between atoms: C_10  and  C_11 
REMARK    4  A    between atoms: N_20  and  C_21 
REMARK    5  A    between atoms: C_21  and  C_22 
ROOT
HETATM    1  C   UNL     1      41.205 -15.946   3.356  1.00  0.00     0.148 A 
HETATM    2  N   UNL     1      40.764 -16.838   4.424  1.00  0.00    -0.320 N 
HETATM    3  C   UNL     1      41.793 -17.515   5.029  1.00  0.00     0.326 A 
HETATM    4  O   UNL     1      41.650 -18.244   5.995  1.00  0.00    -0.247 OA
HETATM    5  N   UNL     1      42.936 -17.258   4.351  1.00  0.00    -0.263 N 
HETATM    6  C   UNL     1      42.696 -16.384   3.332  1.00  0.00     0.262 A 
HETATM    7  O   UNL     1      43.539 -16.012   2.526  1.00  0.00    -0.270 OA
HETATM    8  H   UNL     1      39.863 -16.807   4.884  1.00  0.00     0.166 HD
ENDROOT
BRANCH   1   9
HETATM    9  C   UNL     1      40.412 -16.258   2.041  1.00  0.00     0.031 C 
HETATM   10  C   UNL     1      39.133 -15.433   1.798  1.00  0.00     0.028 C 
HETATM   11  C   UNL     1      39.332 -14.093   1.096  1.00  0.00     0.126 C 
HETATM   12  N   UNL     1      40.220 -14.157  -0.068  1.00  0.00    -0.350 N 
HETATM   13  C   UNL     1      40.138 -13.069  -0.948  1.00  0.00     0.251 C 
HETATM   14  C   UNL     1      41.457 -14.919   0.101  1.00  0.00     0.126 C 
HETATM   15  O   UNL     1      39.354 -12.136  -0.757  1.00  0.00    -0.271 OA
HETATM   16  C   UNL     1      41.241 -16.282   0.742  1.00  0.00     0.028 C 
BRANCH  13  17
HETATM   17  C   UNL     1      41.019 -13.084  -2.228  1.00  0.00     0.279 C 
HETATM   18  N   UNL     1      41.907 -11.831  -2.435  1.00  0.00    -0.062 N 
HETATM   19  C   UNL     1      42.883 -11.628  -1.307  1.00  0.00     0.270 C 
HETATM   20  H   UNL     1      42.474 -12.015  -3.271  1.00  0.00     0.280 HD
HETATM   21  C   UNL     1      41.124 -10.570  -2.720  1.00  0.00     0.235 C 
HETATM   22  C   UNL     1      40.243 -10.781  -3.942  1.00  0.00     0.028 C 
HETATM   23  C   UNL     1      39.344 -12.001  -3.801  1.00  0.00     0.004 C 
HETATM   24  C   UNL     1      40.153 -13.256  -3.482  1.00  0.00     0.043 C 
ENDBRANCH  13  17
ENDBRANCH   1   9
BRANCH   1  25
HETATM   25  C   UNL     1      40.996 -14.504   3.816  1.00  0.00    -0.003 A 
HETATM   26  C   UNL     1      41.790 -13.444   3.380  1.00  0.00     0.126 A 
HETATM   27  N   UNL     1      41.614 -12.154   3.749  1.00  0.00    -0.272 NA
HETATM   28  C   UNL     1      40.608 -11.887   4.605  1.00  0.00     0.116 A 
HETATM   29  C   UNL     1      39.754 -12.853   5.101  1.00  0.00     0.020 A 
HETATM   30  C   UNL     1      39.950 -14.172   4.696  1.00  0.00     0.013 A 
ENDBRANCH   1  25
BRANCH   5  31
HETATM   31  C   UNL     1      44.230 -17.809   4.681  1.00  0.00     0.175 C 
BRANCH  31  32
HETATM   32  C   UNL     1      44.349 -19.256   4.267  1.00  0.00    -0.040 A 
HETATM   33  C   UNL     1      44.675 -20.239   5.213  1.00  0.00     0.012 A 
HETATM   34  C   UNL     1      44.795 -21.576   4.827  1.00  0.00     0.043 A 
HETATM   35  C   UNL     1      44.602 -21.926   3.496  1.00  0.00     0.116 A 
HETATM   36  F   UNL     1      44.716 -23.209   3.128  1.00  0.00    -0.206 F 
HETATM   37  C   UNL     1      44.294 -20.965   2.541  1.00  0.00     0.043 A 
HETATM   38  C   UNL     1      44.170 -19.630   2.924  1.00  0.00     0.012 A 
ENDBRANCH  31  32
ENDBRANCH   5  31
TORSDOF 5
ENDMDL
MODEL 4
REMARK VINA RESULT:      -9.0      2.054      3.001
REMARK  5 active torsions:
REMARK  status: ('A' for Active; 'I' for Inactive)
REMARK    1  A    between atoms: C_4  and  C_5 
REMARK       I    between atoms: C_5  and  N_6 
REMARK    2  A    between atoms: C_9  and  C_10 
REMARK    3  A    between atoms: C_10  and  C_11 
REMARK    4  A    between atoms: N_20  and  C_21 
REMARK    5  A    between atoms: C_21  and  C_22 
ROOT
HETATM    1  C   UNL     1      40.484 -14.085   4.975  1.00  0.00     0.148 A 
HETATM    2  N   UNL     1      40.163 -15.285   5.741  1.00  0.00    -0.320 N 
HETATM    3  C   UNL     1      41.230 -16.134   5.896  1.00  0.00     0.326 A 
HETATM    4  O   UNL     1      41.197 -17.149   6.571  1.00  0.00    -0.247 OA
HETATM    5  N   UNL     1      42.263 -15.668   5.156  1.00  0.00    -0.263 N 
HETATM    6  C   UNL     1      41.920 -14.497   4.547  1.00  0.00     0.262 A 
HETATM    7  O   UNL     1      42.645 -13.878   3.779  1.00  0.00    -0.270 OA
HETATM    8  H   UNL     1      39.352 -15.407   6.334  1.00  0.00     0.166 HD
ENDROOT
BRANCH   1   9
HETATM    9  C   UNL     1      39.472 -13.923   3.789  1.00  0.00     0.031 C 
HETATM   10  C   UNL     1      39.361 -12.517   3.167  1.00  0.00     0.028 C 
HETATM   11  C   UNL     1      40.364 -12.201   2.061  1.00  0.00     0.126 C 
HETATM   12  N   UNL     1      40.515 -13.271   1.071  1.00  0.00    -0.350 N 
HETATM   13  C   UNL     1      41.117 -12.892  -0.136  1.00  0.00     0.251 C 
HETATM   14  C   UNL     1      40.635 -14.629   1.599  1.00  0.00     0.126 C 
HETATM   15  O   UNL     1      41.474 -11.731  -0.349  1.00  0.00    -0.271 OA
HETATM   16  C   UNL     1      39.589 -14.959   2.654  1.00  0.00     0.028 C 
BRANCH  13  17
HETATM   17  C   UNL     1      41.275 -13.963  -1.252  1.00  0.00     0.279 C 
HETATM   18  N   UNL     1      41.709 -13.416  -2.636  1.00  0.00    -0.062 N 
HETATM   19  C   UNL     1      43.045 -12.724  -2.584  1.00  0.00     0.270 C 
HETATM   20  H   UNL     1      41.838 -14.236  -3.241  1.00  0.00     0.280 HD
HETATM   21  C   UNL     1      40.665 -12.551  -3.305  1.00  0.00     0.235 C 
HETATM   22  C   UNL     1      39.369 -13.333  -3.447  1.00  0.00     0.028 C 
HETATM   23  C   UNL     1      38.887 -13.898  -2.118  1.00  0.00     0.004 C 
HETATM   24  C   UNL     1      39.969 -14.742  -1.446  1.00  0.00     0.043 C 
ENDBRANCH  13  17
ENDBRANCH   1   9
BRANCH   1  25
HETATM   25  C   UNL     1      40.446 -12.885   5.921  1.00  0.00    -0.003 A 
HETATM   26  C   UNL     1      39.340 -12.573   6.710  1.00  0.00     0.126 A 
HETATM   27  N   UNL     1      39.286 -11.534   7.575  1.00  0.00    -0.272 NA
HETATM   28  C   UNL     1      40.376 -10.746   7.665  1.00  0.00     0.116 A 
HETATM   29  C   UNL     1      41.530 -10.959   6.938  1.00  0.00     0.020 A 
HETATM   30  C   UNL     1      41.564 -12.042   6.062  1.00  0.00     0.013 A 
ENDBRANCH   1  25
BRANCH   5  31
HETATM   31  C   UNL     1      43.555 -16.307   5.053  1.00  0.00     0.175 C 
BRANCH  31  32
HETATM   32  C   UNL     1      43.530 -17.476   4.097  1.00  0.00    -0.040 A 
HETATM   33  C   UNL     1      44.096 -18.706   4.467  1.00  0.00     0.012 A 
HETATM   34  C   UNL     1      44.083 -19.783   3.580  1.00  0.00     0.043 A 
HETATM   35  C   UNL     1      43.516 -19.628   2.320  1.00  0.00     0.116 A 
HETATM   36  F   UNL     1      43.503 -20.663   1.470  1.00  0.00    -0.206 F 
HETATM   37  C   UNL     1      42.966 -18.414   1.928  1.00  0.00     0.043 A 
HETATM   38  C   UNL     1      42.975 -17.336   2.814  1.00  0.00     0.012 A 
ENDBRANCH  31  32
ENDBRANCH   5  31
TORSDOF 5
ENDMDL
MODEL 5
REMARK VINA RESULT:      -9.0      3.230      7.829
REMARK  5 active torsions:
REMARK  status: ('A' for Active; 'I' for Inactive)
REMARK    1  A    between atoms: C_4  and  C_5 
REMARK       I    between atoms: C_5  and  N_6 
REMARK    2  A    between atoms: C_9  and  C_10 
REMARK    3  A    between atoms: C_10  and  C_11 
REMARK    4  A    between atoms: N_20  and  C_21 
REMARK    5  A    between atoms: C_21  and  C_22 
ROOT
HETATM    1  C   UNL     1      40.797 -12.746   4.205  1.00  0.00     0.148 A 
HETATM    2  N   UNL     1      42.121 -12.564   3.618  1.00  0.00    -0.320 N 
HETATM    3  C   UNL     1      43.054 -13.453   4.091  1.00  0.00     0.326 A 
HETATM    4  O   UNL     1      44.196 -13.525   3.671  1.00  0.00    -0.247 OA
HETATM    5  N   UNL     1      42.496 -14.171   5.094  1.00  0.00    -0.263 N 
HETATM    6  C   UNL     1      41.193 -13.810   5.267  1.00  0.00     0.262 A 
HETATM    7  O   UNL     1      40.458 -14.263   6.135  1.00  0.00    -0.270 OA
HETATM    8  H   UNL     1      42.326 -12.044   2.774  1.00  0.00     0.166 HD
ENDROOT
BRANCH   1   9
HETATM    9  C   UNL     1      40.287 -11.389   4.800  1.00  0.00     0.031 C 
HETATM   10  C   UNL     1      39.137 -11.477   5.823  1.00  0.00     0.028 C 
HETATM   11  C   UNL     1      39.555 -11.700   7.273  1.00  0.00     0.126 C 
HETATM   12  N   UNL     1      40.666 -10.849   7.710  1.00  0.00    -0.350 N 
HETATM   13  C   UNL     1      40.833 -10.745   9.097  1.00  0.00     0.251 C 
HETATM   14  C   UNL     1      41.794 -10.733   6.787  1.00  0.00     0.126 C 
HETATM   15  O   UNL     1      40.080 -11.317   9.889  1.00  0.00    -0.271 OA
HETATM   16  C   UNL     1      41.370 -10.444   5.354  1.00  0.00     0.028 C 
BRANCH  13  17
HETATM   17  C   UNL     1      41.965  -9.827   9.639  1.00  0.00     0.279 C 
HETATM   18  N   UNL     1      43.045 -10.541  10.490  1.00  0.00    -0.062 N 
HETATM   19  C   UNL     1      43.766 -11.614   9.718  1.00  0.00     0.270 C 
HETATM   20  H   UNL     1      43.751  -9.830  10.714  1.00  0.00     0.280 HD
HETATM   21  C   UNL     1      42.531 -11.063  11.813  1.00  0.00     0.235 C 
HETATM   22  C   UNL     1      41.923  -9.921  12.611  1.00  0.00     0.028 C 
HETATM   23  C   UNL     1      40.851  -9.177  11.828  1.00  0.00     0.004 C 
HETATM   24  C   UNL     1      41.383  -8.686  10.483  1.00  0.00     0.043 C 
ENDBRANCH  13  17
ENDBRANCH   1   9
BRANCH   1  25
HETATM   25  C   UNL     1      39.860 -13.279   3.122  1.00  0.00    -0.003 A 
HETATM   26  C   UNL     1      39.045 -12.455   2.348  1.00  0.00     0.126 A 
HETATM   27  N   UNL     1      38.224 -12.894   1.366  1.00  0.00    -0.272 NA
HETATM   28  C   UNL     1      38.191 -14.221   1.134  1.00  0.00     0.116 A 
HETATM   29  C   UNL     1      38.956 -15.134   1.833  1.00  0.00     0.020 A 
HETATM   30  C   UNL     1      39.801 -14.655   2.832  1.00  0.00     0.013 A 
ENDBRANCH   1  25
BRANCH   5  31
HETATM   31  C   UNL     1      43.178 -15.196   5.850  1.00  0.00     0.175 C 
BRANCH  31  32
HETATM   32  C   UNL     1      43.259 -16.497   5.089  1.00  0.00    -0.040 A 
HETATM   33  C   UNL     1      44.124 -17.516   5.517  1.00  0.00     0.012 A 
HETATM   34  C   UNL     1      44.207 -18.715   4.807  1.00  0.00     0.043 A 
HETATM   35  C   UNL     1      43.436 -18.890   3.664  1.00  0.00     0.116 A 
HETATM   36  F   UNL     1      43.515 -20.042   2.984  1.00  0.00    -0.206 F 
HETATM   37  C   UNL     1      42.585 -17.888   3.213  1.00  0.00     0.043 A 
HETATM   38  C   UNL     1      42.498 -16.690   3.923  1.00  0.00     0.012 A 
ENDBRANCH  31  32
ENDBRANCH   5  31
TORSDOF 5
ENDMDL
MODEL 6
REMARK VINA RESULT:      -9.0      2.732      5.407
REMARK  5 active torsions:
REMARK  status: ('A' for Active; 'I' for Inactive)
REMARK    1  A    between atoms: C_4  and  C_5 
REMARK       I    between atoms: C_5  and  N_6 
REMARK    2  A    between atoms: C_9  and  C_10 
REMARK    3  A    between atoms: C_10  and  C_11 
REMARK    4  A    between atoms: N_20  and  C_21 
REMARK    5  A    between atoms: C_21  and  C_22 
ROOT
HETATM    1  C   UNL     1      42.473 -16.585   3.340  1.00  0.00     0.148 A 
HETATM    2  N   UNL     1      43.348 -15.538   2.821  1.00  0.00    -0.320 N 
HETATM    3  C   UNL     1      43.280 -14.367   3.533  1.00  0.00     0.326 A 
HETATM    4  O   UNL     1      43.988 -13.400   3.316  1.00  0.00    -0.247 OA
HETATM    5  N   UNL     1      42.293 -14.479   4.452  1.00  0.00    -0.263 N 
HETATM    6  C   UNL     1      41.732 -15.720   4.397  1.00  0.00     0.262 A 
HETATM    7  O   UNL     1      40.785 -16.083   5.083  1.00  0.00    -0.270 OA
HETATM    8  H   UNL     1      44.123 -15.679   2.185  1.00  0.00     0.166 HD
ENDROOT
BRANCH   1   9
HETATM    9  C   UNL     1      41.559 -17.135   2.191  1.00  0.00     0.031 C 
HETATM   10  C   UNL     1      40.101 -16.634   2.175  1.00  0.00     0.028 C 
HETATM   11  C   UNL     1      39.860 -15.321   1.436  1.00  0.00     0.126 C 
HETATM   12  N   UNL     1      40.524 -15.240   0.132  1.00  0.00    -0.350 N 
HETATM   13  C   UNL     1      40.041 -14.245  -0.728  1.00  0.00     0.251 C 
HETATM   14  C   UNL     1      41.914 -15.692   0.084  1.00  0.00     0.126 C 
HETATM   15  O   UNL     1      39.107 -13.505  -0.408  1.00  0.00    -0.271 OA
HETATM   16  C   UNL     1      42.133 -17.035   0.765  1.00  0.00     0.028 C 
BRANCH  13  17
HETATM   17  C   UNL     1      40.667 -14.125  -2.146  1.00  0.00     0.279 C 
HETATM   18  N   UNL     1      41.290 -12.745  -2.478  1.00  0.00    -0.062 N 
HETATM   19  C   UNL     1      42.409 -12.382  -1.539  1.00  0.00     0.270 C 
HETATM   20  H   UNL     1      41.719 -12.840  -3.407  1.00  0.00     0.280 HD
HETATM   21  C   UNL     1      40.277 -11.629  -2.588  1.00  0.00     0.235 C 
HETATM   22  C   UNL     1      39.236 -11.986  -3.637  1.00  0.00     0.028 C 
HETATM   23  C   UNL     1      38.583 -13.334  -3.366  1.00  0.00     0.004 C 
HETATM   24  C   UNL     1      39.627 -14.440  -3.228  1.00  0.00     0.043 C 
ENDBRANCH  13  17
ENDBRANCH   1   9
BRANCH   1  25
HETATM   25  C   UNL     1      43.345 -17.683   3.947  1.00  0.00    -0.003 A 
HETATM   26  C   UNL     1      43.914 -17.588   5.217  1.00  0.00     0.126 A 
HETATM   27  N   UNL     1      44.669 -18.554   5.791  1.00  0.00    -0.272 NA
HETATM   28  C   UNL     1      44.888 -19.675   5.076  1.00  0.00     0.116 A 
HETATM   29  C   UNL     1      44.373 -19.884   3.812  1.00  0.00     0.020 A 
HETATM   30  C   UNL     1      43.590 -18.879   3.248  1.00  0.00     0.013 A 
ENDBRANCH   1  25
BRANCH   5  31
HETATM   31  C   UNL     1      41.911 -13.438   5.380  1.00  0.00     0.175 C 
BRANCH  31  32
HETATM   32  C   UNL     1      42.960 -13.220   6.443  1.00  0.00    -0.040 A 
HETATM   33  C   UNL     1      42.867 -12.126   7.317  1.00  0.00     0.012 A 
HETATM   34  C   UNL     1      43.842 -11.918   8.293  1.00  0.00     0.043 A 
HETATM   35  C   UNL     1      44.916 -12.796   8.388  1.00  0.00     0.116 A 
HETATM   36  F   UNL     1      45.851 -12.596   9.327  1.00  0.00    -0.206 F 
HETATM   37  C   UNL     1      45.036 -13.876   7.523  1.00  0.00     0.043 A 
HETATM   38  C   UNL     1      44.061 -14.088   6.548  1.00  0.00     0.012 A 
ENDBRANCH  31  32
ENDBRANCH   5  31
TORSDOF 5
ENDMDL
MODEL 7
REMARK VINA RESULT:      -8.9      2.750      7.463
REMARK  5 active torsions:
REMARK  status: ('A' for Active; 'I' for Inactive)
REMARK    1  A    between atoms: C_4  and  C_5 
REMARK       I    between atoms: C_5  and  N_6 
REMARK    2  A    between atoms: C_9  and  C_10 
REMARK    3  A    between atoms: C_10  and  C_11 
REMARK    4  A    between atoms: N_20  and  C_21 
REMARK    5  A    between atoms: C_21  and  C_22 
ROOT
HETATM    1  C   UNL     1      41.503 -13.402   4.053  1.00  0.00     0.148 A 
HETATM    2  N   UNL     1      42.852 -13.065   4.497  1.00  0.00    -0.320 N 
HETATM    3  C   UNL     1      43.383 -13.980   5.370  1.00  0.00     0.326 A 
HETATM    4  O   UNL     1      44.525 -13.930   5.794  1.00  0.00    -0.247 OA
HETATM    5  N   UNL     1      42.425 -14.883   5.684  1.00  0.00    -0.263 N 
HETATM    6  C   UNL     1      41.277 -14.614   4.999  1.00  0.00     0.262 A 
HETATM    7  O   UNL     1      40.233 -15.241   5.123  1.00  0.00    -0.270 OA
HETATM    8  H   UNL     1      43.471 -12.399   4.051  1.00  0.00     0.166 HD
ENDROOT
BRANCH   1   9
HETATM    9  C   UNL     1      40.541 -12.190   4.305  1.00  0.00     0.031 C 
HETATM   10  C   UNL     1      39.255 -12.489   5.102  1.00  0.00     0.028 C 
HETATM   11  C   UNL     1      39.385 -12.415   6.620  1.00  0.00     0.126 C 
HETATM   12  N   UNL     1      40.113 -11.237   7.099  1.00  0.00    -0.350 N 
HETATM   13  C   UNL     1      39.936 -10.931   8.455  1.00  0.00     0.251 C 
HETATM   14  C   UNL     1      41.348 -10.906   6.390  1.00  0.00     0.126 C 
HETATM   15  O   UNL     1      39.199 -11.602   9.183  1.00  0.00    -0.271 OA
HETATM   16  C   UNL     1      41.193 -10.917   4.876  1.00  0.00     0.028 C 
BRANCH  13  17
HETATM   17  C   UNL     1      40.643  -9.671   9.028  1.00  0.00     0.279 C 
HETATM   18  N   UNL     1      41.594  -9.933  10.224  1.00  0.00    -0.062 N 
HETATM   19  C   UNL     1      42.719 -10.867   9.866  1.00  0.00     0.270 C 
HETATM   20  H   UNL     1      42.034  -9.031  10.444  1.00  0.00     0.280 HD
HETATM   21  C   UNL     1      40.883 -10.379  11.481  1.00  0.00     0.235 C 
HETATM   22  C   UNL     1      39.841  -9.344  11.873  1.00  0.00     0.028 C 
HETATM   23  C   UNL     1      38.872  -9.042  10.738  1.00  0.00     0.004 C 
HETATM   24  C   UNL     1      39.613  -8.624   9.470  1.00  0.00     0.043 C 
ENDBRANCH  13  17
ENDBRANCH   1   9
BRANCH   1  25
HETATM   25  C   UNL     1      41.564 -13.781   2.574  1.00  0.00    -0.003 A 
HETATM   26  C   UNL     1      41.537 -12.839   1.545  1.00  0.00     0.126 A 
HETATM   27  N   UNL     1      41.615 -13.142   0.229  1.00  0.00    -0.272 NA
HETATM   28  C   UNL     1      41.714 -14.445  -0.102  1.00  0.00     0.116 A 
HETATM   29  C   UNL     1      41.755 -15.465   0.828  1.00  0.00     0.020 A 
HETATM   30  C   UNL     1      41.684 -15.125   2.177  1.00  0.00     0.013 A 
ENDBRANCH   1  25
BRANCH   5  31
HETATM   31  C   UNL     1      42.606 -15.993   6.592  1.00  0.00     0.175 C 
BRANCH  31  32
HETATM   32  C   UNL     1      43.334 -17.142   5.939  1.00  0.00    -0.040 A 
HETATM   33  C   UNL     1      42.788 -17.781   4.815  1.00  0.00     0.012 A 
HETATM   34  C   UNL     1      43.456 -18.851   4.218  1.00  0.00     0.043 A 
HETATM   35  C   UNL     1      44.663 -19.289   4.750  1.00  0.00     0.116 A 
HETATM   36  F   UNL     1      45.304 -20.315   4.175  1.00  0.00    -0.206 F 
HETATM   37  C   UNL     1      45.214 -18.681   5.872  1.00  0.00     0.043 A 
HETATM   38  C   UNL     1      44.549 -17.610   6.469  1.00  0.00     0.012 A 
ENDBRANCH  31  32
ENDBRANCH   5  31
TORSDOF 5
ENDMDL
MODEL 8
REMARK VINA RESULT:      -8.8      3.210      8.156
REMARK  5 active torsions:
REMARK  status: ('A' for Active; 'I' for Inactive)
REMARK    1  A    between atoms: C_4  and  C_5 
REMARK       I    between atoms: C_5  and  N_6 
REMARK    2  A    between atoms: C_9  and  C_10 
REMARK    3  A    between atoms: C_10  and  C_11 
REMARK    4  A    between atoms: N_20  and  C_21 
REMARK    5  A    between atoms: C_21  and  C_22 
ROOT
HETATM    1  C   UNL     1      41.597 -15.694   3.472  1.00  0.00     0.148 A 
HETATM    2  N   UNL     1      40.188 -15.978   3.218  1.00  0.00    -0.320 N 
HETATM    3  C   UNL     1      39.658 -15.235   2.193  1.00  0.00     0.326 A 
HETATM    4  O   UNL     1      38.525 -15.378   1.767  1.00  0.00    -0.247 OA
HETATM    5  N   UNL     1      40.582 -14.330   1.794  1.00  0.00    -0.263 N 
HETATM    6  C   UNL     1      41.736 -14.487   2.503  1.00  0.00     0.262 A 
HETATM    7  O   UNL     1      42.724 -13.773   2.385  1.00  0.00    -0.270 OA
HETATM    8  H   UNL     1      39.683 -16.793   3.542  1.00  0.00     0.166 HD
ENDROOT
BRANCH   1   9
HETATM    9  C   UNL     1      41.805 -15.342   4.985  1.00  0.00     0.031 C 
HETATM   10  C   UNL     1      42.888 -14.292   5.303  1.00  0.00     0.028 C 
HETATM   11  C   UNL     1      42.434 -12.836   5.258  1.00  0.00     0.126 C 
HETATM   12  N   UNL     1      41.158 -12.589   5.936  1.00  0.00    -0.350 N 
HETATM   13  C   UNL     1      40.892 -11.249   6.244  1.00  0.00     0.251 C 
HETATM   14  C   UNL     1      40.086 -13.546   5.667  1.00  0.00     0.126 C 
HETATM   15  O   UNL     1      41.691 -10.347   5.977  1.00  0.00    -0.271 OA
HETATM   16  C   UNL     1      40.532 -14.996   5.780  1.00  0.00     0.028 C 
BRANCH  13  17
HETATM   17  C   UNL     1      39.577 -10.911   7.001  1.00  0.00     0.279 C 
HETATM   18  N   UNL     1      39.109  -9.437   6.890  1.00  0.00    -0.062 N 
HETATM   19  C   UNL     1      38.841  -9.028   5.466  1.00  0.00     0.270 C 
HETATM   20  H   UNL     1      38.205  -9.385   7.375  1.00  0.00     0.280 HD
HETATM   21  C   UNL     1      40.023  -8.454   7.584  1.00  0.00     0.235 C 
HETATM   22  C   UNL     1      40.166  -8.836   9.049  1.00  0.00     0.028 C 
HETATM   23  C   UNL     1      40.625 -10.277   9.227  1.00  0.00     0.004 C 
HETATM   24  C   UNL     1      39.705 -11.249   8.492  1.00  0.00     0.043 C 
ENDBRANCH  13  17
ENDBRANCH   1   9
BRANCH   1  25
HETATM   25  C   UNL     1      42.417 -16.913   3.054  1.00  0.00    -0.003 A 
HETATM   26  C   UNL     1      42.716 -17.963   3.922  1.00  0.00     0.126 A 
HETATM   27  N   UNL     1      43.418 -19.067   3.575  1.00  0.00    -0.272 NA
HETATM   28  C   UNL     1      43.863 -19.143   2.305  1.00  0.00     0.116 A 
HETATM   29  C   UNL     1      43.625 -18.169   1.356  1.00  0.00     0.020 A 
HETATM   30  C   UNL     1      42.891 -17.047   1.736  1.00  0.00     0.013 A 
ENDBRANCH   1  25
BRANCH   5  31
HETATM   31  C   UNL     1      40.381 -13.357   0.744  1.00  0.00     0.175 C 
BRANCH  31  32
HETATM   32  C   UNL     1      40.194 -14.014  -0.602  1.00  0.00    -0.040 A 
HETATM   33  C   UNL     1      39.049 -13.748  -1.368  1.00  0.00     0.012 A 
HETATM   34  C   UNL     1      38.871 -14.364  -2.608  1.00  0.00     0.043 A 
HETATM   35  C   UNL     1      39.832 -15.253  -3.077  1.00  0.00     0.116 A 
HETATM   36  F   UNL     1      39.661 -15.841  -4.268  1.00  0.00    -0.206 F 
HETATM   37  C   UNL     1      40.965 -15.542  -2.328  1.00  0.00     0.043 A 
HETATM   38  C   UNL     1      41.147 -14.926  -1.089  1.00  0.00     0.012 A 
ENDBRANCH  31  32
ENDBRANCH   5  31
TORSDOF 5
ENDMDL
MODEL 9
REMARK VINA RESULT:      -8.7      3.142      7.593
REMARK  5 active torsions:
REMARK  status: ('A' for Active; 'I' for Inactive)
REMARK    1  A    between atoms: C_4  and  C_5 
REMARK       I    between atoms: C_5  and  N_6 
REMARK    2  A    between atoms: C_9  and  C_10 
REMARK    3  A    between atoms: C_10  and  C_11 
REMARK    4  A    between atoms: N_20  and  C_21 
REMARK    5  A    between atoms: C_21  and  C_22 
ROOT
HETATM    1  C   UNL     1      42.687 -17.005   4.148  1.00  0.00     0.148 A 
HETATM    2  N   UNL     1      41.311 -17.321   3.778  1.00  0.00    -0.320 N 
HETATM    3  C   UNL     1      40.989 -16.940   2.499  1.00  0.00     0.326 A 
HETATM    4  O   UNL     1      39.920 -17.185   1.967  1.00  0.00    -0.247 OA
HETATM    5  N   UNL     1      42.025 -16.238   1.985  1.00  0.00    -0.263 N 
HETATM    6  C   UNL     1      43.052 -16.184   2.880  1.00  0.00     0.262 A 
HETATM    7  O   UNL     1      44.098 -15.573   2.699  1.00  0.00    -0.270 OA
HETATM    8  H   UNL     1      40.705 -17.973   4.260  1.00  0.00     0.166 HD
ENDROOT
BRANCH   1   9
HETATM    9  C   UNL     1      42.704 -16.185   5.484  1.00  0.00     0.031 C 
HETATM   10  C   UNL     1      43.555 -14.899   5.489  1.00  0.00     0.028 C 
HETATM   11  C   UNL     1      42.857 -13.640   4.984  1.00  0.00     0.126 C 
HETATM   12  N   UNL     1      41.506 -13.452   5.521  1.00  0.00    -0.350 N 
HETATM   13  C   UNL     1      40.984 -12.158   5.393  1.00  0.00     0.251 C 
HETATM   14  C   UNL     1      40.645 -14.633   5.534  1.00  0.00     0.126 C 
HETATM   15  O   UNL     1      41.631 -11.242   4.881  1.00  0.00    -0.271 OA
HETATM   16  C   UNL     1      41.328 -15.869   6.101  1.00  0.00     0.028 C 
BRANCH  13  17
HETATM   17  C   UNL     1      39.572 -11.870   5.976  1.00  0.00     0.279 C 
HETATM   18  N   UNL     1      38.786 -10.733   5.274  1.00  0.00    -0.062 N 
HETATM   19  C   UNL     1      38.541 -11.022   3.818  1.00  0.00     0.270 C 
HETATM   20  H   UNL     1      37.860 -10.708   5.718  1.00  0.00     0.280 HD
HETATM   21  C   UNL     1      39.391  -9.362   5.472  1.00  0.00     0.235 C 
HETATM   22  C   UNL     1      39.505  -9.063   6.958  1.00  0.00     0.028 C 
HETATM   23  C   UNL     1      40.269 -10.146   7.707  1.00  0.00     0.004 C 
HETATM   24  C   UNL     1      39.660 -11.526   7.468  1.00  0.00     0.043 C 
ENDBRANCH  13  17
ENDBRANCH   1   9
BRANCH   1  25
HETATM   25  C   UNL     1      43.463 -18.315   4.276  1.00  0.00    -0.003 A 
HETATM   26  C   UNL     1      43.768 -18.902   5.504  1.00  0.00     0.126 A 
HETATM   27  N   UNL     1      44.431 -20.072   5.649  1.00  0.00    -0.272 NA
HETATM   28  C   UNL     1      44.830 -20.701   4.525  1.00  0.00     0.116 A 
HETATM   29  C   UNL     1      44.583 -20.218   3.255  1.00  0.00     0.020 A 
HETATM   30  C   UNL     1      43.888 -19.017   3.133  1.00  0.00     0.013 A 
ENDBRANCH   1  25
BRANCH   5  31
HETATM   31  C   UNL     1      42.049 -15.656   0.662  1.00  0.00     0.175 C 
BRANCH  31  32
HETATM   32  C   UNL     1      41.396 -14.295   0.634  1.00  0.00    -0.040 A 
HETATM   33  C   UNL     1      40.229 -14.085  -0.115  1.00  0.00     0.012 A 
HETATM   34  C   UNL     1      39.631 -12.824  -0.150  1.00  0.00     0.043 A 
HETATM   35  C   UNL     1      40.207 -11.772   0.553  1.00  0.00     0.116 A 
HETATM   36  F   UNL     1      39.631 -10.563   0.520  1.00  0.00    -0.206 F 
HETATM   37  C   UNL     1      41.372 -11.955   1.287  1.00  0.00     0.043 A 
HETATM   38  C   UNL     1      41.969 -13.215   1.326  1.00  0.00     0.012 A 
ENDBRANCH  31  32
ENDBRANCH   5  31
TORSDOF 5
ENDMDL
MODEL 10
REMARK VINA RESULT:      -8.4      2.563      3.452
REMARK  5 active torsions:
REMARK  status: ('A' for Active; 'I' for Inactive)
REMARK    1  A    between atoms: C_4  and  C_5 
REMARK       I    between atoms: C_5  and  N_6 
REMARK    2  A    between atoms: C_9  and  C_10 
REMARK    3  A    between atoms: C_10  and  C_11 
REMARK    4  A    between atoms: N_20  and  C_21 
REMARK    5  A    between atoms: C_21  and  C_22 
ROOT
HETATM    1  C   UNL     1      41.502 -15.007   3.590  1.00  0.00     0.148 A 
HETATM    2  N   UNL     1      40.681 -16.147   3.986  1.00  0.00    -0.320 N 
HETATM    3  C   UNL     1      41.386 -17.125   4.642  1.00  0.00     0.326 A 
HETATM    4  O   UNL     1      40.875 -18.119   5.128  1.00  0.00    -0.247 OA
HETATM    5  N   UNL     1      42.701 -16.805   4.608  1.00  0.00    -0.263 N 
HETATM    6  C   UNL     1      42.881 -15.607   3.983  1.00  0.00     0.262 A 
HETATM    7  O   UNL     1      43.972 -15.095   3.768  1.00  0.00    -0.270 OA
HETATM    8  H   UNL     1      39.670 -16.157   4.037  1.00  0.00     0.166 HD
ENDROOT
BRANCH   1   9
HETATM    9  C   UNL     1      41.325 -14.731   2.057  1.00  0.00     0.031 C 
HETATM   10  C   UNL     1      40.099 -15.376   1.381  1.00  0.00     0.028 C 
HETATM   11  C   UNL     1      38.804 -14.573   1.450  1.00  0.00     0.126 C 
HETATM   12  N   UNL     1      38.968 -13.151   1.134  1.00  0.00    -0.350 N 
HETATM   13  C   UNL     1      37.788 -12.465   0.819  1.00  0.00     0.251 C 
HETATM   14  C   UNL     1      40.109 -12.478   1.754  1.00  0.00     0.126 C 
HETATM   15  O   UNL     1      36.692 -13.032   0.792  1.00  0.00    -0.271 OA
HETATM   16  C   UNL     1      41.410 -13.255   1.622  1.00  0.00     0.028 C 
BRANCH  13  17
HETATM   17  C   UNL     1      37.885 -10.962   0.433  1.00  0.00     0.279 C 
HETATM   18  N   UNL     1      37.117  -9.989   1.362  1.00  0.00    -0.062 N 
HETATM   19  C   UNL     1      37.609 -10.046   2.783  1.00  0.00     0.270 C 
HETATM   20  H   UNL     1      37.330  -9.042   1.026  1.00  0.00     0.280 HD
HETATM   21  C   UNL     1      35.614 -10.138   1.291  1.00  0.00     0.235 C 
HETATM   22  C   UNL     1      35.149  -9.950  -0.144  1.00  0.00     0.028 C 
HETATM   23  C   UNL     1      35.868 -10.881  -1.110  1.00  0.00     0.004 C 
HETATM   24  C   UNL     1      37.384 -10.736  -0.999  1.00  0.00     0.043 C 
ENDBRANCH  13  17
ENDBRANCH   1   9
BRANCH   1  25
HETATM   25  C   UNL     1      41.094 -13.802   4.436  1.00  0.00    -0.003 A 
HETATM   26  C   UNL     1      41.959 -12.749   4.728  1.00  0.00     0.126 A 
HETATM   27  N   UNL     1      41.620 -11.657   5.452  1.00  0.00    -0.272 NA
HETATM   28  C   UNL     1      40.360 -11.598   5.928  1.00  0.00     0.116 A 
HETATM   29  C   UNL     1      39.414 -12.578   5.700  1.00  0.00     0.020 A 
HETATM   30  C   UNL     1      39.786 -13.686   4.942  1.00  0.00     0.013 A 
ENDBRANCH   1  25
BRANCH   5  31
HETATM   31  C   UNL     1      43.758 -17.607   5.181  1.00  0.00     0.175 C 
BRANCH  31  32
HETATM   32  C   UNL     1      44.048 -18.833   4.351  1.00  0.00    -0.040 A 
HETATM   33  C   UNL     1      43.740 -18.851   2.982  1.00  0.00     0.012 A 
HETATM   34  C   UNL     1      43.999 -19.989   2.216  1.00  0.00     0.043 A 
HETATM   35  C   UNL     1      44.553 -21.112   2.820  1.00  0.00     0.116 A 
HETATM   36  F   UNL     1      44.801 -22.203   2.083  1.00  0.00    -0.206 F 
HETATM   37  C   UNL     1      44.850 -21.121   4.177  1.00  0.00     0.043 A 
HETATM   38  C   UNL     1      44.595 -19.984   4.944  1.00  0.00     0.012 A 
ENDBRANCH  31  32
ENDBRANCH   5  31
TORSDOF 5
ENDMDL
