MODEL 1
REMARK VINA RESULT:      -8.9      0.000      0.000
REMARK  7 active torsions:
REMARK  status: ('A' for Active; 'I' for Inactive)
REMARK    1  A    between atoms: C_3  and  O_4 
REMARK    2  A    between atoms: O_4  and  C_5 
REMARK    3  A    between atoms: C_5  and  C_6 
REMARK       I    between atoms: C_6  and  N_7 
REMARK    4  A    between atoms: N_7  and  C_8 
REMARK    5  A    between atoms: C_9  and  C_10 
REMARK       I    between atoms: C_10  and  N_11 
REMARK    6  A    between atoms: N_11  and  C_12 
REMARK    7  A    between atoms: C_12  and  C_13 
ROOT
HETATM    1  C   UNL     1      44.297 -19.990   4.138  1.00  0.00     0.050 A 
HETATM    2  C   UNL     1      43.571 -19.395   3.085  1.00  0.00     0.058 A 
HETATM    3  C   UNL     1      43.299 -20.110   1.906  1.00  0.00     0.019 A 
HETATM    4  C   UNL     1      43.769 -21.410   1.749  1.00  0.00     0.001 A 
HETATM    5  C   UNL     1      44.506 -21.999   2.768  1.00  0.00     0.002 A 
HETATM    6  C   UNL     1      44.765 -21.298   3.952  1.00  0.00     0.030 A 
ENDROOT
BRANCH   1   7
HETATM    7  N   UNL     1      44.462 -19.306   5.373  1.00  0.00    -0.324 N 
HETATM    8  C   UNL     1      43.987 -19.714   6.614  1.00  0.00     0.246 C 
HETATM    9  O   UNL     1      43.579 -20.845   6.868  1.00  0.00    -0.271 OA
HETATM   10  H   UNL     1      44.986 -18.439   5.339  1.00  0.00     0.169 HD
BRANCH   8  11
HETATM   11  C   UNL     1      44.043 -18.606   7.673  1.00  0.00     0.278 C 
BRANCH  11  12
HETATM   12  O   UNL     1      42.878 -17.804   7.531  1.00  0.00    -0.342 OA
BRANCH  12  13
HETATM   13  C   UNL     1      43.012 -16.551   7.000  1.00  0.00     0.075 A 
HETATM   14  C   UNL     1      41.869 -16.046   6.350  1.00  0.00    -0.029 A 
HETATM   15  C   UNL     1      40.605 -16.858   6.269  1.00  0.00     0.051 C 
HETATM   16  C   UNL     1      41.901 -14.756   5.801  1.00  0.00     0.009 A 
HETATM   17  C   UNL     1      43.057 -13.983   5.883  1.00  0.00     0.001 A 
HETATM   18  C   UNL     1      44.188 -14.490   6.519  1.00  0.00     0.003 A 
HETATM   19  C   UNL     1      44.167 -15.769   7.081  1.00  0.00     0.037 A 
ENDBRANCH  12  13
ENDBRANCH  11  12
ENDBRANCH   8  11
ENDBRANCH   1   7
BRANCH   2  20
HETATM   20  C   UNL     1      43.069 -17.999   3.130  1.00  0.00     0.254 C 
HETATM   21  N   UNL     1      41.820 -17.795   2.584  1.00  0.00    -0.353 N 
HETATM   22  H   UNL     1      41.250 -18.608   2.373  1.00  0.00     0.163 HD
HETATM   23  O   UNL     1      43.735 -17.116   3.654  1.00  0.00    -0.268 OA
BRANCH  21  24
HETATM   24  C   UNL     1      41.143 -16.521   2.716  1.00  0.00     0.162 C 
BRANCH  24  25
HETATM   25  C   UNL     1      40.935 -15.892   1.371  1.00  0.00    -0.023 A 
HETATM   26  C   UNL     1      40.154 -14.747   1.242  1.00  0.00     0.125 A 
HETATM   27  N   UNL     1      39.931 -14.107   0.073  1.00  0.00    -0.273 NA
HETATM   28  C   UNL     1      40.476 -14.660  -1.032  1.00  0.00     0.116 A 
HETATM   29  C   UNL     1      41.251 -15.808  -1.016  1.00  0.00     0.020 A 
HETATM   30  C   UNL     1      41.490 -16.428   0.208  1.00  0.00     0.012 A 
ENDBRANCH  24  25
ENDBRANCH  21  24
ENDBRANCH   2  20
TORSDOF 7
ENDMDL
MODEL 2
REMARK VINA RESULT:      -8.3      1.217      5.118
REMARK  7 active torsions:
REMARK  status: ('A' for Active; 'I' for Inactive)
REMARK    1  A    between atoms: C_3  and  O_4 
REMARK    2  A    between atoms: O_4  and  C_5 
REMARK    3  A    between atoms: C_5  and  C_6 
REMARK       I    between atoms: C_6  and  N_7 
REMARK    4  A    between atoms: N_7  and  C_8 
REMARK    5  A    between atoms: C_9  and  C_10 
REMARK       I    between atoms: C_10  and  N_11 
REMARK    6  A    between atoms: N_11  and  C_12 
REMARK    7  A    between atoms: C_12  and  C_13 
ROOT
HETATM    1  C   UNL     1      43.759 -15.763   6.226  1.00  0.00     0.050 A 
HETATM    2  C   UNL     1      42.626 -15.095   5.714  1.00  0.00     0.058 A 
HETATM    3  C   UNL     1      42.463 -13.712   5.899  1.00  0.00     0.019 A 
HETATM    4  C   UNL     1      43.406 -12.984   6.618  1.00  0.00     0.001 A 
HETATM    5  C   UNL     1      44.514 -13.633   7.149  1.00  0.00     0.002 A 
HETATM    6  C   UNL     1      44.690 -15.008   6.952  1.00  0.00     0.030 A 
ENDROOT
BRANCH   1   7
HETATM    7  N   UNL     1      43.977 -17.136   5.930  1.00  0.00    -0.324 N 
HETATM    8  C   UNL     1      43.706 -18.214   6.763  1.00  0.00     0.246 C 
HETATM    9  O   UNL     1      43.004 -18.159   7.771  1.00  0.00    -0.271 OA
HETATM   10  H   UNL     1      44.362 -17.342   5.015  1.00  0.00     0.169 HD
BRANCH   8  11
HETATM   11  C   UNL     1      44.354 -19.521   6.287  1.00  0.00     0.278 C 
BRANCH  11  12
HETATM   12  O   UNL     1      44.874 -19.302   4.983  1.00  0.00    -0.342 OA
BRANCH  12  13
HETATM   13  C   UNL     1      44.592 -20.218   4.008  1.00  0.00     0.075 A 
HETATM   14  C   UNL     1      44.065 -19.686   2.814  1.00  0.00    -0.029 A 
HETATM   15  C   UNL     1      43.845 -18.206   2.660  1.00  0.00     0.051 C 
HETATM   16  C   UNL     1      43.773 -20.546   1.746  1.00  0.00     0.009 A 
HETATM   17  C   UNL     1      43.989 -21.918   1.865  1.00  0.00     0.001 A 
HETATM   18  C   UNL     1      44.502 -22.440   3.050  1.00  0.00     0.003 A 
HETATM   19  C   UNL     1      44.807 -21.593   4.119  1.00  0.00     0.037 A 
ENDBRANCH  12  13
ENDBRANCH  11  12
ENDBRANCH   8  11
ENDBRANCH   1   7
BRANCH   2  20
HETATM   20  C   UNL     1      41.538 -15.786   4.978  1.00  0.00     0.254 C 
HETATM   21  N   UNL     1      41.536 -15.611   3.611  1.00  0.00    -0.353 N 
HETATM   22  H   UNL     1      42.360 -15.204   3.178  1.00  0.00     0.163 HD
HETATM   23  O   UNL     1      40.729 -16.484   5.576  1.00  0.00    -0.268 OA
BRANCH  21  24
HETATM   24  C   UNL     1      40.638 -16.364   2.760  1.00  0.00     0.162 C 
BRANCH  24  25
HETATM   25  C   UNL     1      40.611 -15.785   1.377  1.00  0.00    -0.023 A 
HETATM   26  C   UNL     1      39.796 -14.695   1.086  1.00  0.00     0.125 A 
HETATM   27  N   UNL     1      39.726 -14.100  -0.125  1.00  0.00    -0.273 NA
HETATM   28  C   UNL     1      40.471 -14.648  -1.111  1.00  0.00     0.116 A 
HETATM   29  C   UNL     1      41.297 -15.745  -0.932  1.00  0.00     0.020 A 
HETATM   30  C   UNL     1      41.373 -16.316   0.336  1.00  0.00     0.012 A 
ENDBRANCH  24  25
ENDBRANCH  21  24
ENDBRANCH   2  20
TORSDOF 7
ENDMDL
MODEL 3
REMARK VINA RESULT:      -8.3      1.907      5.919
REMARK  7 active torsions:
REMARK  status: ('A' for Active; 'I' for Inactive)
REMARK    1  A    between atoms: C_3  and  O_4 
REMARK    2  A    between atoms: O_4  and  C_5 
REMARK    3  A    between atoms: C_5  and  C_6 
REMARK       I    between atoms: C_6  and  N_7 
REMARK    4  A    between atoms: N_7  and  C_8 
REMARK    5  A    between atoms: C_9  and  C_10 
REMARK       I    between atoms: C_10  and  N_11 
REMARK    6  A    between atoms: N_11  and  C_12 
REMARK    7  A    between atoms: C_12  and  C_13 
ROOT
HETATM    1  C   UNL     1      40.839 -14.630   1.249  1.00  0.00     0.050 A 
HETATM    2  C   UNL     1      41.307 -15.953   1.104  1.00  0.00     0.058 A 
HETATM    3  C   UNL     1      41.435 -16.534  -0.169  1.00  0.00     0.019 A 
HETATM    4  C   UNL     1      41.074 -15.819  -1.307  1.00  0.00     0.001 A 
HETATM    5  C   UNL     1      40.590 -14.523  -1.176  1.00  0.00     0.002 A 
HETATM    6  C   UNL     1      40.477 -13.934   0.089  1.00  0.00     0.030 A 
ENDROOT
BRANCH   1   7
HETATM    7  N   UNL     1      40.828 -14.008   2.528  1.00  0.00    -0.324 N 
HETATM    8  C   UNL     1      41.889 -13.345   3.133  1.00  0.00     0.246 C 
HETATM    9  O   UNL     1      42.907 -12.978   2.551  1.00  0.00    -0.271 OA
HETATM   10  H   UNL     1      39.954 -14.050   3.040  1.00  0.00     0.169 HD
BRANCH   8  11
HETATM   11  C   UNL     1      41.659 -13.081   4.627  1.00  0.00     0.278 C 
BRANCH  11  12
HETATM   12  O   UNL     1      42.777 -13.595   5.340  1.00  0.00    -0.342 OA
BRANCH  12  13
HETATM   13  C   UNL     1      42.654 -14.811   5.953  1.00  0.00     0.075 A 
HETATM   14  C   UNL     1      43.754 -15.203   6.741  1.00  0.00    -0.029 A 
HETATM   15  C   UNL     1      44.961 -14.316   6.877  1.00  0.00     0.051 C 
HETATM   16  C   UNL     1      43.707 -16.422   7.433  1.00  0.00     0.009 A 
HETATM   17  C   UNL     1      42.589 -17.247   7.334  1.00  0.00     0.001 A 
HETATM   18  C   UNL     1      41.507 -16.858   6.547  1.00  0.00     0.003 A 
HETATM   19  C   UNL     1      41.536 -15.642   5.860  1.00  0.00     0.037 A 
ENDBRANCH  12  13
ENDBRANCH  11  12
ENDBRANCH   8  11
ENDBRANCH   1   7
BRANCH   2  20
HETATM   20  C   UNL     1      41.669 -16.819   2.254  1.00  0.00     0.254 C 
HETATM   21  N   UNL     1      43.005 -17.138   2.365  1.00  0.00    -0.353 N 
HETATM   22  H   UNL     1      43.670 -16.621   1.797  1.00  0.00     0.163 HD
HETATM   23  O   UNL     1      40.814 -17.182   3.052  1.00  0.00    -0.268 OA
BRANCH  21  24
HETATM   24  C   UNL     1      43.517 -17.829   3.530  1.00  0.00     0.162 C 
BRANCH  24  25
HETATM   25  C   UNL     1      43.801 -19.265   3.209  1.00  0.00    -0.023 A 
HETATM   26  C   UNL     1      44.512 -20.060   4.104  1.00  0.00     0.125 A 
HETATM   27  N   UNL     1      44.794 -21.366   3.903  1.00  0.00    -0.273 NA
HETATM   28  C   UNL     1      44.388 -21.898   2.729  1.00  0.00     0.116 A 
HETATM   29  C   UNL     1      43.694 -21.189   1.763  1.00  0.00     0.020 A 
HETATM   30  C   UNL     1      43.389 -19.853   2.012  1.00  0.00     0.012 A 
ENDBRANCH  24  25
ENDBRANCH  21  24
ENDBRANCH   2  20
TORSDOF 7
ENDMDL
MODEL 4
REMARK VINA RESULT:      -8.2      2.063      6.887
REMARK  7 active torsions:
REMARK  status: ('A' for Active; 'I' for Inactive)
REMARK    1  A    between atoms: C_3  and  O_4 
REMARK    2  A    between atoms: O_4  and  C_5 
REMARK    3  A    between atoms: C_5  and  C_6 
REMARK       I    between atoms: C_6  and  N_7 
REMARK    4  A    between atoms: N_7  and  C_8 
REMARK    5  A    between atoms: C_9  and  C_10 
REMARK       I    between atoms: C_10  and  N_11 
REMARK    6  A    between atoms: N_11  and  C_12 
REMARK    7  A    between atoms: C_12  and  C_13 
ROOT
HETATM    1  C   UNL     1      41.507 -14.779   0.920  1.00  0.00     0.050 A 
HETATM    2  C   UNL     1      41.406 -13.890   2.010  1.00  0.00     0.058 A 
HETATM    3  C   UNL     1      40.298 -13.034   2.139  1.00  0.00     0.019 A 
HETATM    4  C   UNL     1      39.296 -13.033   1.174  1.00  0.00     0.001 A 
HETATM    5  C   UNL     1      39.396 -13.887   0.083  1.00  0.00     0.002 A 
HETATM    6  C   UNL     1      40.488 -14.753  -0.041  1.00  0.00     0.030 A 
ENDROOT
BRANCH   1   7
HETATM    7  N   UNL     1      42.567 -15.725   0.861  1.00  0.00    -0.324 N 
HETATM    8  C   UNL     1      42.505 -17.060   1.242  1.00  0.00     0.246 C 
HETATM    9  O   UNL     1      41.464 -17.681   1.444  1.00  0.00    -0.271 OA
HETATM   10  H   UNL     1      43.451 -15.387   0.497  1.00  0.00     0.169 HD
BRANCH   8  11
HETATM   11  C   UNL     1      43.887 -17.715   1.366  1.00  0.00     0.278 C 
BRANCH  11  12
HETATM   12  O   UNL     1      43.989 -18.280   2.667  1.00  0.00    -0.342 OA
BRANCH  12  13
HETATM   13  C   UNL     1      44.143 -19.634   2.777  1.00  0.00     0.075 A 
HETATM   14  C   UNL     1      44.624 -20.087   4.021  1.00  0.00    -0.029 A 
HETATM   15  C   UNL     1      44.935 -19.118   5.128  1.00  0.00     0.051 C 
HETATM   16  C   UNL     1      44.784 -21.463   4.238  1.00  0.00     0.009 A 
HETATM   17  C   UNL     1      44.483 -22.377   3.230  1.00  0.00     0.001 A 
HETATM   18  C   UNL     1      44.015 -21.923   1.999  1.00  0.00     0.003 A 
HETATM   19  C   UNL     1      43.841 -20.555   1.772  1.00  0.00     0.037 A 
ENDBRANCH  12  13
ENDBRANCH  11  12
ENDBRANCH   8  11
ENDBRANCH   1   7
BRANCH   2  20
HETATM   20  C   UNL     1      42.443 -13.774   3.066  1.00  0.00     0.254 C 
HETATM   21  N   UNL     1      41.973 -13.570   4.346  1.00  0.00    -0.353 N 
HETATM   22  H   UNL     1      40.982 -13.706   4.520  1.00  0.00     0.163 HD
HETATM   23  O   UNL     1      43.629 -13.891   2.787  1.00  0.00    -0.268 OA
BRANCH  21  24
HETATM   24  C   UNL     1      42.864 -13.612   5.487  1.00  0.00     0.162 C 
BRANCH  24  25
HETATM   25  C   UNL     1      42.787 -14.945   6.168  1.00  0.00    -0.023 A 
HETATM   26  C   UNL     1      41.639 -15.725   6.064  1.00  0.00     0.125 A 
HETATM   27  N   UNL     1      41.493 -16.944   6.628  1.00  0.00    -0.273 NA
HETATM   28  C   UNL     1      42.527 -17.391   7.375  1.00  0.00     0.116 A 
HETATM   29  C   UNL     1      43.704 -16.685   7.561  1.00  0.00     0.020 A 
HETATM   30  C   UNL     1      43.837 -15.445   6.940  1.00  0.00     0.012 A 
ENDBRANCH  24  25
ENDBRANCH  21  24
ENDBRANCH   2  20
TORSDOF 7
ENDMDL
MODEL 5
REMARK VINA RESULT:      -8.2      2.623      7.681
REMARK  7 active torsions:
REMARK  status: ('A' for Active; 'I' for Inactive)
REMARK    1  A    between atoms: C_3  and  O_4 
REMARK    2  A    between atoms: O_4  and  C_5 
REMARK    3  A    between atoms: C_5  and  C_6 
REMARK       I    between atoms: C_6  and  N_7 
REMARK    4  A    between atoms: N_7  and  C_8 
REMARK    5  A    between atoms: C_9  and  C_10 
REMARK       I    between atoms: C_10  and  N_11 
REMARK    6  A    between atoms: N_11  and  C_12 
REMARK    7  A    between atoms: C_12  and  C_13 
ROOT
HETATM    1  C   UNL     1      41.019 -15.392   3.662  1.00  0.00     0.050 A 
HETATM    2  C   UNL     1      41.493 -16.706   3.859  1.00  0.00     0.058 A 
HETATM    3  C   UNL     1      41.389 -17.327   5.115  1.00  0.00     0.019 A 
HETATM    4  C   UNL     1      40.839 -16.641   6.194  1.00  0.00     0.001 A 
HETATM    5  C   UNL     1      40.390 -15.338   6.019  1.00  0.00     0.002 A 
HETATM    6  C   UNL     1      40.476 -14.721   4.765  1.00  0.00     0.030 A 
ENDROOT
BRANCH   1   7
HETATM    7  N   UNL     1      41.017 -14.817   2.362  1.00  0.00    -0.324 N 
HETATM    8  C   UNL     1      41.914 -13.874   1.874  1.00  0.00     0.246 C 
HETATM    9  O   UNL     1      42.986 -13.590   2.403  1.00  0.00    -0.271 OA
HETATM   10  H   UNL     1      40.291 -15.137   1.730  1.00  0.00     0.169 HD
BRANCH   8  11
HETATM   11  C   UNL     1      41.447 -13.220   0.567  1.00  0.00     0.278 C 
BRANCH  11  12
HETATM   12  O   UNL     1      40.203 -13.804   0.205  1.00  0.00    -0.342 OA
BRANCH  12  13
HETATM   13  C   UNL     1      40.081 -14.355  -1.040  1.00  0.00     0.075 A 
HETATM   14  C   UNL     1      38.946 -13.951  -1.771  1.00  0.00    -0.029 A 
HETATM   15  C   UNL     1      37.960 -12.977  -1.188  1.00  0.00     0.051 C 
HETATM   16  C   UNL     1      38.753 -14.440  -3.071  1.00  0.00     0.009 A 
HETATM   17  C   UNL     1      39.666 -15.329  -3.634  1.00  0.00     0.001 A 
HETATM   18  C   UNL     1      40.783 -15.732  -2.904  1.00  0.00     0.003 A 
HETATM   19  C   UNL     1      40.994 -15.245  -1.612  1.00  0.00     0.037 A 
ENDBRANCH  12  13
ENDBRANCH  11  12
ENDBRANCH   8  11
ENDBRANCH   1   7
BRANCH   2  20
HETATM   20  C   UNL     1      42.142 -17.506   2.790  1.00  0.00     0.254 C 
HETATM   21  N   UNL     1      43.420 -17.943   3.062  1.00  0.00    -0.353 N 
HETATM   22  H   UNL     1      43.759 -17.869   4.017  1.00  0.00     0.163 HD
HETATM   23  O   UNL     1      41.538 -17.770   1.758  1.00  0.00    -0.268 OA
BRANCH  21  24
HETATM   24  C   UNL     1      44.099 -18.872   2.182  1.00  0.00     0.162 C 
BRANCH  24  25
HETATM   25  C   UNL     1      44.331 -20.181   2.874  1.00  0.00    -0.023 A 
HETATM   26  C   UNL     1      44.236 -21.377   2.170  1.00  0.00     0.125 A 
HETATM   27  N   UNL     1      44.448 -22.597   2.710  1.00  0.00    -0.273 NA
HETATM   28  C   UNL     1      44.725 -22.632   4.032  1.00  0.00     0.116 A 
HETATM   29  C   UNL     1      44.820 -21.503   4.828  1.00  0.00     0.020 A 
HETATM   30  C   UNL     1      44.628 -20.257   4.236  1.00  0.00     0.012 A 
ENDBRANCH  24  25
ENDBRANCH  21  24
ENDBRANCH   2  20
TORSDOF 7
ENDMDL
MODEL 6
REMARK VINA RESULT:      -8.2      2.037      5.511
REMARK  7 active torsions:
REMARK  status: ('A' for Active; 'I' for Inactive)
REMARK    1  A    between atoms: C_3  and  O_4 
REMARK    2  A    between atoms: O_4  and  C_5 
REMARK    3  A    between atoms: C_5  and  C_6 
REMARK       I    between atoms: C_6  and  N_7 
REMARK    4  A    between atoms: N_7  and  C_8 
REMARK    5  A    between atoms: C_9  and  C_10 
REMARK       I    between atoms: C_10  and  N_11 
REMARK    6  A    between atoms: N_11  and  C_12 
REMARK    7  A    between atoms: C_12  and  C_13 
ROOT
HETATM    1  C   UNL     1      41.413 -15.184   4.511  1.00  0.00     0.050 A 
HETATM    2  C   UNL     1      41.132 -14.756   3.196  1.00  0.00     0.058 A 
HETATM    3  C   UNL     1      40.199 -13.733   2.958  1.00  0.00     0.019 A 
HETATM    4  C   UNL     1      39.515 -13.146   4.018  1.00  0.00     0.001 A 
HETATM    5  C   UNL     1      39.764 -13.574   5.315  1.00  0.00     0.002 A 
HETATM    6  C   UNL     1      40.706 -14.581   5.560  1.00  0.00     0.030 A 
ENDROOT
BRANCH   1   7
HETATM    7  N   UNL     1      42.445 -16.131   4.753  1.00  0.00    -0.324 N 
HETATM    8  C   UNL     1      42.277 -17.479   5.046  1.00  0.00     0.246 C 
HETATM    9  O   UNL     1      41.230 -18.103   4.889  1.00  0.00    -0.271 OA
HETATM   10  H   UNL     1      43.396 -15.784   4.695  1.00  0.00     0.169 HD
BRANCH   8  11
HETATM   11  C   UNL     1      43.556 -18.144   5.572  1.00  0.00     0.278 C 
BRANCH  11  12
HETATM   12  O   UNL     1      44.368 -18.478   4.455  1.00  0.00    -0.342 OA
BRANCH  12  13
HETATM   13  C   UNL     1      44.405 -19.782   4.045  1.00  0.00     0.075 A 
HETATM   14  C   UNL     1      44.024 -20.006   2.707  1.00  0.00    -0.029 A 
HETATM   15  C   UNL     1      43.614 -18.862   1.821  1.00  0.00     0.051 C 
HETATM   16  C   UNL     1      44.061 -21.308   2.188  1.00  0.00     0.009 A 
HETATM   17  C   UNL     1      44.457 -22.376   2.989  1.00  0.00     0.001 A 
HETATM   18  C   UNL     1      44.825 -22.151   4.314  1.00  0.00     0.003 A 
HETATM   19  C   UNL     1      44.804 -20.858   4.842  1.00  0.00     0.037 A 
ENDBRANCH  12  13
ENDBRANCH  11  12
ENDBRANCH   8  11
ENDBRANCH   1   7
BRANCH   2  20
HETATM   20  C   UNL     1      41.767 -15.351   1.994  1.00  0.00     0.254 C 
HETATM   21  N   UNL     1      40.908 -15.696   0.973  1.00  0.00    -0.353 N 
HETATM   22  H   UNL     1      39.952 -15.355   1.014  1.00  0.00     0.163 HD
HETATM   23  O   UNL     1      42.983 -15.482   1.934  1.00  0.00    -0.268 OA
BRANCH  21  24
HETATM   24  C   UNL     1      41.409 -16.124  -0.317  1.00  0.00     0.162 C 
BRANCH  24  25
HETATM   25  C   UNL     1      40.923 -15.211  -1.402  1.00  0.00    -0.023 A 
HETATM   26  C   UNL     1      41.025 -15.587  -2.737  1.00  0.00     0.125 A 
HETATM   27  N   UNL     1      40.595 -14.835  -3.774  1.00  0.00    -0.273 NA
HETATM   28  C   UNL     1      40.078 -13.625  -3.469  1.00  0.00     0.116 A 
HETATM   29  C   UNL     1      39.952 -13.146  -2.176  1.00  0.00     0.020 A 
HETATM   30  C   UNL     1      40.374 -13.958  -1.125  1.00  0.00     0.012 A 
ENDBRANCH  24  25
ENDBRANCH  21  24
ENDBRANCH   2  20
TORSDOF 7
ENDMDL
MODEL 7
REMARK VINA RESULT:      -8.1      1.744      6.859
REMARK  7 active torsions:
REMARK  status: ('A' for Active; 'I' for Inactive)
REMARK    1  A    between atoms: C_3  and  O_4 
REMARK    2  A    between atoms: O_4  and  C_5 
REMARK    3  A    between atoms: C_5  and  C_6 
REMARK       I    between atoms: C_6  and  N_7 
REMARK    4  A    between atoms: N_7  and  C_8 
REMARK    5  A    between atoms: C_9  and  C_10 
REMARK       I    between atoms: C_10  and  N_11 
REMARK    6  A    between atoms: N_11  and  C_12 
REMARK    7  A    between atoms: C_12  and  C_13 
ROOT
HETATM    1  C   UNL     1      43.159 -15.625   4.633  1.00  0.00     0.050 A 
HETATM    2  C   UNL     1      43.599 -16.473   5.670  1.00  0.00     0.058 A 
HETATM    3  C   UNL     1      44.203 -15.944   6.823  1.00  0.00     0.019 A 
HETATM    4  C   UNL     1      44.400 -14.572   6.946  1.00  0.00     0.001 A 
HETATM    5  C   UNL     1      43.993 -13.727   5.921  1.00  0.00     0.002 A 
HETATM    6  C   UNL     1      43.375 -14.248   4.777  1.00  0.00     0.030 A 
ENDROOT
BRANCH   1   7
HETATM    7  N   UNL     1      42.441 -16.157   3.527  1.00  0.00    -0.324 N 
HETATM    8  C   UNL     1      42.963 -16.475   2.279  1.00  0.00     0.246 C 
HETATM    9  O   UNL     1      44.162 -16.585   2.030  1.00  0.00    -0.271 OA
HETATM   10  H   UNL     1      41.452 -16.325   3.672  1.00  0.00     0.169 HD
BRANCH   8  11
HETATM   11  C   UNL     1      41.882 -16.711   1.217  1.00  0.00     0.278 C 
BRANCH  11  12
HETATM   12  O   UNL     1      41.684 -15.491   0.514  1.00  0.00    -0.342 OA
BRANCH  12  13
HETATM   13  C   UNL     1      40.425 -14.960   0.477  1.00  0.00     0.075 A 
HETATM   14  C   UNL     1      40.074 -14.323  -0.729  1.00  0.00    -0.029 A 
HETATM   15  C   UNL     1      41.044 -14.255  -1.876  1.00  0.00     0.051 C 
HETATM   16  C   UNL     1      38.791 -13.774  -0.872  1.00  0.00     0.009 A 
HETATM   17  C   UNL     1      37.873 -13.845   0.173  1.00  0.00     0.001 A 
HETATM   18  C   UNL     1      38.227 -14.468   1.368  1.00  0.00     0.003 A 
HETATM   19  C   UNL     1      39.498 -15.029   1.520  1.00  0.00     0.037 A 
ENDBRANCH  12  13
ENDBRANCH  11  12
ENDBRANCH   8  11
ENDBRANCH   1   7
BRANCH   2  20
HETATM   20  C   UNL     1      43.484 -17.952   5.617  1.00  0.00     0.254 C 
HETATM   21  N   UNL     1      44.646 -18.633   5.327  1.00  0.00    -0.353 N 
HETATM   22  H   UNL     1      45.523 -18.122   5.364  1.00  0.00     0.163 HD
HETATM   23  O   UNL     1      42.414 -18.500   5.853  1.00  0.00    -0.268 OA
BRANCH  21  24
HETATM   24  C   UNL     1      44.711 -20.077   5.414  1.00  0.00     0.162 C 
BRANCH  24  25
HETATM   25  C   UNL     1      44.488 -20.697   4.067  1.00  0.00    -0.023 A 
HETATM   26  C   UNL     1      44.732 -22.052   3.866  1.00  0.00     0.125 A 
HETATM   27  N   UNL     1      44.539 -22.694   2.693  1.00  0.00    -0.273 NA
HETATM   28  C   UNL     1      44.125 -21.939   1.652  1.00  0.00     0.116 A 
HETATM   29  C   UNL     1      43.874 -20.579   1.740  1.00  0.00     0.020 A 
HETATM   30  C   UNL     1      44.051 -19.952   2.971  1.00  0.00     0.012 A 
ENDBRANCH  24  25
ENDBRANCH  21  24
ENDBRANCH   2  20
TORSDOF 7
ENDMDL
MODEL 8
REMARK VINA RESULT:      -8.1      1.791      5.536
REMARK  7 active torsions:
REMARK  status: ('A' for Active; 'I' for Inactive)
REMARK    1  A    between atoms: C_3  and  O_4 
REMARK    2  A    between atoms: O_4  and  C_5 
REMARK    3  A    between atoms: C_5  and  C_6 
REMARK       I    between atoms: C_6  and  N_7 
REMARK    4  A    between atoms: N_7  and  C_8 
REMARK    5  A    between atoms: C_9  and  C_10 
REMARK       I    between atoms: C_10  and  N_11 
REMARK    6  A    between atoms: N_11  and  C_12 
REMARK    7  A    between atoms: C_12  and  C_13 
ROOT
HETATM    1  C   UNL     1      44.084 -19.615   3.027  1.00  0.00     0.050 A 
HETATM    2  C   UNL     1      44.430 -19.919   4.360  1.00  0.00     0.058 A 
HETATM    3  C   UNL     1      44.737 -21.237   4.740  1.00  0.00     0.019 A 
HETATM    4  C   UNL     1      44.675 -22.269   3.808  1.00  0.00     0.001 A 
HETATM    5  C   UNL     1      44.311 -21.987   2.498  1.00  0.00     0.002 A 
HETATM    6  C   UNL     1      44.022 -20.673   2.110  1.00  0.00     0.030 A 
ENDROOT
BRANCH   1   7
HETATM    7  N   UNL     1      43.894 -18.265   2.624  1.00  0.00    -0.324 N 
HETATM    8  C   UNL     1      42.712 -17.538   2.700  1.00  0.00     0.246 C 
HETATM    9  O   UNL     1      41.729 -17.870   3.358  1.00  0.00    -0.271 OA
HETATM   10  H   UNL     1      44.709 -17.788   2.254  1.00  0.00     0.169 HD
BRANCH   8  11
HETATM   11  C   UNL     1      42.754 -16.236   1.890  1.00  0.00     0.278 C 
BRANCH  11  12
HETATM   12  O   UNL     1      41.830 -16.357   0.817  1.00  0.00    -0.342 OA
BRANCH  12  13
HETATM   13  C   UNL     1      40.705 -15.580   0.836  1.00  0.00     0.075 A 
HETATM   14  C   UNL     1      40.484 -14.809  -0.322  1.00  0.00    -0.029 A 
HETATM   15  C   UNL     1      41.442 -14.867  -1.481  1.00  0.00     0.051 C 
HETATM   16  C   UNL     1      39.340 -14.004  -0.407  1.00  0.00     0.009 A 
HETATM   17  C   UNL     1      38.433 -13.953   0.649  1.00  0.00     0.001 A 
HETATM   18  C   UNL     1      38.660 -14.711   1.796  1.00  0.00     0.003 A 
HETATM   19  C   UNL     1      39.791 -15.526   1.890  1.00  0.00     0.037 A 
ENDBRANCH  12  13
ENDBRANCH  11  12
ENDBRANCH   8  11
ENDBRANCH   1   7
BRANCH   2  20
HETATM   20  C   UNL     1      44.476 -18.903   5.441  1.00  0.00     0.254 C 
HETATM   21  N   UNL     1      43.259 -18.550   5.982  1.00  0.00    -0.353 N 
HETATM   22  H   UNL     1      42.452 -19.126   5.763  1.00  0.00     0.163 HD
HETATM   23  O   UNL     1      45.548 -18.452   5.825  1.00  0.00    -0.268 OA
BRANCH  21  24
HETATM   24  C   UNL     1      43.177 -17.703   7.154  1.00  0.00     0.162 C 
BRANCH  24  25
HETATM   25  C   UNL     1      43.165 -16.257   6.760  1.00  0.00    -0.023 A 
HETATM   26  C   UNL     1      42.077 -15.720   6.079  1.00  0.00     0.125 A 
HETATM   27  N   UNL     1      41.977 -14.426   5.704  1.00  0.00    -0.273 NA
HETATM   28  C   UNL     1      43.036 -13.634   5.981  1.00  0.00     0.116 A 
HETATM   29  C   UNL     1      44.175 -14.073   6.634  1.00  0.00     0.020 A 
HETATM   30  C   UNL     1      44.235 -15.405   7.037  1.00  0.00     0.012 A 
ENDBRANCH  24  25
ENDBRANCH  21  24
ENDBRANCH   2  20
TORSDOF 7
ENDMDL
MODEL 9
REMARK VINA RESULT:      -8.0      2.075      7.215
REMARK  7 active torsions:
REMARK  status: ('A' for Active; 'I' for Inactive)
REMARK    1  A    between atoms: C_3  and  O_4 
REMARK    2  A    between atoms: O_4  and  C_5 
REMARK    3  A    between atoms: C_5  and  C_6 
REMARK       I    between atoms: C_6  and  N_7 
REMARK    4  A    between atoms: N_7  and  C_8 
REMARK    5  A    between atoms: C_9  and  C_10 
REMARK       I    between atoms: C_10  and  N_11 
REMARK    6  A    between atoms: N_11  and  C_12 
REMARK    7  A    between atoms: C_12  and  C_13 
ROOT
HETATM    1  C   UNL     1      42.736 -15.040   4.872  1.00  0.00     0.050 A 
HETATM    2  C   UNL     1      43.249 -16.354   4.897  1.00  0.00     0.058 A 
HETATM    3  C   UNL     1      44.100 -16.773   5.933  1.00  0.00     0.019 A 
HETATM    4  C   UNL     1      44.473 -15.885   6.938  1.00  0.00     0.001 A 
HETATM    5  C   UNL     1      43.994 -14.581   6.912  1.00  0.00     0.002 A 
HETATM    6  C   UNL     1      43.131 -14.164   5.891  1.00  0.00     0.030 A 
ENDROOT
BRANCH   1   7
HETATM    7  N   UNL     1      41.780 -14.661   3.890  1.00  0.00    -0.324 N 
HETATM    8  C   UNL     1      41.986 -13.784   2.831  1.00  0.00     0.246 C 
HETATM    9  O   UNL     1      43.089 -13.406   2.441  1.00  0.00    -0.271 OA
HETATM   10  H   UNL     1      40.862 -15.083   3.970  1.00  0.00     0.169 HD
BRANCH   8  11
HETATM   11  C   UNL     1      40.682 -13.337   2.158  1.00  0.00     0.278 C 
BRANCH  11  12
HETATM   12  O   UNL     1      40.153 -14.447   1.446  1.00  0.00    -0.342 OA
BRANCH  12  13
HETATM   13  C   UNL     1      40.221 -14.436   0.081  1.00  0.00     0.075 A 
HETATM   14  C   UNL     1      40.979 -15.475  -0.495  1.00  0.00    -0.029 A 
HETATM   15  C   UNL     1      41.652 -16.507   0.368  1.00  0.00     0.051 C 
HETATM   16  C   UNL     1      41.080 -15.563  -1.890  1.00  0.00     0.009 A 
HETATM   17  C   UNL     1      40.447 -14.626  -2.704  1.00  0.00     0.001 A 
HETATM   18  C   UNL     1      39.705 -13.596  -2.131  1.00  0.00     0.003 A 
HETATM   19  C   UNL     1      39.587 -13.502  -0.741  1.00  0.00     0.037 A 
ENDBRANCH  12  13
ENDBRANCH  11  12
ENDBRANCH   8  11
ENDBRANCH   1   7
BRANCH   2  20
HETATM   20  C   UNL     1      42.955 -17.363   3.848  1.00  0.00     0.254 C 
HETATM   21  N   UNL     1      44.046 -17.834   3.150  1.00  0.00    -0.353 N 
HETATM   22  H   UNL     1      44.972 -17.626   3.511  1.00  0.00     0.163 HD
HETATM   23  O   UNL     1      41.809 -17.752   3.664  1.00  0.00    -0.268 OA
BRANCH  21  24
HETATM   24  C   UNL     1      43.923 -18.940   2.223  1.00  0.00     0.162 C 
BRANCH  24  25
HETATM   25  C   UNL     1      44.246 -20.236   2.903  1.00  0.00    -0.023 A 
HETATM   26  C   UNL     1      44.163 -21.438   2.205  1.00  0.00     0.125 A 
HETATM   27  N   UNL     1      44.454 -22.646   2.734  1.00  0.00    -0.273 NA
HETATM   28  C   UNL     1      44.802 -22.666   4.040  1.00  0.00     0.116 A 
HETATM   29  C   UNL     1      44.893 -21.532   4.829  1.00  0.00     0.020 A 
HETATM   30  C   UNL     1      44.618 -20.297   4.247  1.00  0.00     0.012 A 
ENDBRANCH  24  25
ENDBRANCH  21  24
ENDBRANCH   2  20
TORSDOF 7
ENDMDL
MODEL 10
REMARK VINA RESULT:      -7.9      2.195      5.920
REMARK  7 active torsions:
REMARK  status: ('A' for Active; 'I' for Inactive)
REMARK    1  A    between atoms: C_3  and  O_4 
REMARK    2  A    between atoms: O_4  and  C_5 
REMARK    3  A    between atoms: C_5  and  C_6 
REMARK       I    between atoms: C_6  and  N_7 
REMARK    4  A    between atoms: N_7  and  C_8 
REMARK    5  A    between atoms: C_9  and  C_10 
REMARK       I    between atoms: C_10  and  N_11 
REMARK    6  A    between atoms: N_11  and  C_12 
REMARK    7  A    between atoms: C_12  and  C_13 
ROOT
HETATM    1  C   UNL     1      42.924 -19.122   2.464  1.00  0.00     0.050 A 
HETATM    2  C   UNL     1      43.256 -18.862   3.810  1.00  0.00     0.058 A 
HETATM    3  C   UNL     1      44.192 -19.662   4.487  1.00  0.00     0.019 A 
HETATM    4  C   UNL     1      44.786 -20.744   3.843  1.00  0.00     0.001 A 
HETATM    5  C   UNL     1      44.449 -21.025   2.525  1.00  0.00     0.002 A 
HETATM    6  C   UNL     1      43.530 -20.220   1.842  1.00  0.00     0.030 A 
ENDROOT
BRANCH   1   7
HETATM    7  N   UNL     1      42.070 -18.236   1.752  1.00  0.00    -0.324 N 
HETATM    8  C   UNL     1      42.419 -16.998   1.224  1.00  0.00     0.246 C 
HETATM    9  O   UNL     1      43.572 -16.603   1.073  1.00  0.00    -0.271 OA
HETATM   10  H   UNL     1      41.116 -18.548   1.611  1.00  0.00     0.169 HD
BRANCH   8  11
HETATM   11  C   UNL     1      41.204 -16.157   0.811  1.00  0.00     0.278 C 
BRANCH  11  12
HETATM   12  O   UNL     1      41.097 -16.207  -0.606  1.00  0.00    -0.342 OA
BRANCH  12  13
HETATM   13  C   UNL     1      41.281 -15.052  -1.313  1.00  0.00     0.075 A 
HETATM   14  C   UNL     1      40.822 -15.079  -2.644  1.00  0.00    -0.029 A 
HETATM   15  C   UNL     1      40.176 -16.313  -3.212  1.00  0.00     0.051 C 
HETATM   16  C   UNL     1      40.939 -13.929  -3.438  1.00  0.00     0.009 A 
HETATM   17  C   UNL     1      41.517 -12.771  -2.922  1.00  0.00     0.001 A 
HETATM   18  C   UNL     1      41.978 -12.752  -1.608  1.00  0.00     0.003 A 
HETATM   19  C   UNL     1      41.858 -13.887  -0.802  1.00  0.00     0.037 A 
ENDBRANCH  12  13
ENDBRANCH  11  12
ENDBRANCH   8  11
ENDBRANCH   1   7
BRANCH   2  20
HETATM   20  C   UNL     1      42.644 -17.766   4.603  1.00  0.00     0.254 C 
HETATM   21  N   UNL     1      43.493 -16.742   4.963  1.00  0.00    -0.353 N 
HETATM   22  H   UNL     1      44.402 -16.693   4.514  1.00  0.00     0.163 HD
HETATM   23  O   UNL     1      41.450 -17.788   4.875  1.00  0.00    -0.268 OA
BRANCH  21  24
HETATM   24  C   UNL     1      42.990 -15.535   5.586  1.00  0.00     0.162 C 
BRANCH  24  25
HETATM   25  C   UNL     1      42.496 -14.572   4.549  1.00  0.00    -0.023 A 
HETATM   26  C   UNL     1      43.360 -14.083   3.573  1.00  0.00     0.125 A 
HETATM   27  N   UNL     1      42.994 -13.229   2.592  1.00  0.00    -0.273 NA
HETATM   28  C   UNL     1      41.712 -12.802   2.610  1.00  0.00     0.116 A 
HETATM   29  C   UNL     1      40.778 -13.210   3.548  1.00  0.00     0.020 A 
HETATM   30  C   UNL     1      41.177 -14.116   4.528  1.00  0.00     0.012 A 
ENDBRANCH  24  25
ENDBRANCH  21  24
ENDBRANCH   2  20
TORSDOF 7
ENDMDL
