MODEL 1
REMARK VINA RESULT:      -9.1      0.000      0.000
REMARK  5 active torsions:
REMARK  status: ('A' for Active; 'I' for Inactive)
REMARK    1  A    between atoms: C_2  and  N_3 
REMARK    2  A    between atoms: C_11  and  C_12 
REMARK    3  A    between atoms: C_14  and  C_15 
REMARK    4  A    between atoms: C_15  and  O_16 
REMARK    5  A    between atoms: O_16  and  C_17 
ROOT
HETATM    1  N   UNL     1      38.353 -14.775  -2.383  1.00  0.00    -0.067 N 
HETATM    2  H   UNL     1      37.963 -15.490  -1.754  1.00  0.00     0.280 HD
HETATM    3  C   UNL     1      39.862 -14.774  -2.131  1.00  0.00     0.281 C 
HETATM    4  C   UNL     1      40.180 -14.181  -0.803  1.00  0.00     0.018 A 
HETATM    5  C   UNL     1      39.307 -13.443  -0.025  1.00  0.00    -0.023 A 
HETATM    6  C   UNL     1      39.935 -12.997   1.180  1.00  0.00     0.073 A 
HETATM    7  C   UNL     1      41.249 -13.401   1.247  1.00  0.00     0.088 A 
HETATM    8  N   UNL     1      42.066 -13.091   2.281  1.00  0.00    -0.357 N 
HETATM    9  C   UNL     1      41.435 -12.747   3.548  1.00  0.00     0.243 C 
HETATM   10  N   UNL     1      40.262 -11.945   3.292  1.00  0.00    -0.330 N 
HETATM   11  C   UNL     1      39.395 -12.199   2.264  1.00  0.00     0.256 C 
HETATM   12  O   UNL     1      38.254 -11.749   2.256  1.00  0.00    -0.267 OA
HETATM   13  S   UNL     1      41.724 -14.323  -0.098  1.00  0.00    -0.074 SA
HETATM   14  C   UNL     1      37.895 -13.197  -0.458  1.00  0.00     0.068 C 
HETATM   15  C   UNL     1      37.722 -13.442  -1.967  1.00  0.00     0.240 C 
HETATM   16  H   UNL     1      42.876 -13.692   2.415  1.00  0.00     0.162 HD
HETATM   17  H   UNL     1      39.862 -11.430   4.061  1.00  0.00     0.165 HD
ENDROOT
BRANCH   9  18
HETATM   18  C   UNL     1      41.072 -13.907   4.428  1.00  0.00     0.095 A 
HETATM   19  O   UNL     1      41.807 -15.052   4.274  1.00  0.00    -0.313 OA
HETATM   20  C   UNL     1      41.322 -15.972   5.156  1.00  0.00     0.077 A 
HETATM   21  C   UNL     1      40.300 -15.419   5.897  1.00  0.00     0.037 A 
HETATM   22  C   UNL     1      40.142 -14.090   5.436  1.00  0.00     0.039 A 
BRANCH  20  23
HETATM   23  C   UNL     1      41.981 -17.305   5.169  1.00  0.00     0.240 C 
BRANCH  23  24
HETATM   24  O   UNL     1      43.184 -17.193   4.394  1.00  0.00    -0.341 OA
BRANCH  24  25
HETATM   25  C   UNL     1      43.494 -18.351   3.724  1.00  0.00     0.112 A 
HETATM   26  C   UNL     1      42.898 -18.706   2.506  1.00  0.00     0.070 A 
HETATM   27 CL   UNL     1      41.711 -17.716   1.738  1.00  0.00    -0.081 Cl
HETATM   28  C   UNL     1      43.225 -19.916   1.886  1.00  0.00     0.050 A 
HETATM   29  C   UNL     1      44.127 -20.782   2.495  1.00  0.00     0.037 A 
HETATM   30 CL   UNL     1      44.518 -22.276   1.736  1.00  0.00    -0.084 Cl
HETATM   31  C   UNL     1      44.702 -20.462   3.722  1.00  0.00     0.050 A 
HETATM   32  C   UNL     1      44.378 -19.252   4.338  1.00  0.00     0.070 A 
HETATM   33 CL   UNL     1      45.093 -18.901   5.872  1.00  0.00    -0.081 Cl
ENDBRANCH  24  25
ENDBRANCH  23  24
ENDBRANCH  20  23
ENDBRANCH   9  18
BRANCH   1  34
HETATM   34  C   UNL     1      37.985 -15.139  -3.799  1.00  0.00     0.231 C 
HETATM   35  C   UNL     1      38.850 -16.273  -4.317  1.00  0.00     0.034 C 
ENDBRANCH   1  34
TORSDOF 5
ENDMDL
MODEL 2
REMARK VINA RESULT:      -8.6      2.626      3.566
REMARK  5 active torsions:
REMARK  status: ('A' for Active; 'I' for Inactive)
REMARK    1  A    between atoms: C_2  and  N_3 
REMARK    2  A    between atoms: C_11  and  C_12 
REMARK    3  A    between atoms: C_14  and  C_15 
REMARK    4  A    between atoms: C_15  and  O_16 
REMARK    5  A    between atoms: O_16  and  C_17 
ROOT
HETATM    1  N   UNL     1      41.658 -10.845  -2.439  1.00  0.00    -0.067 N 
HETATM    2  H   UNL     1      42.390 -10.727  -1.726  1.00  0.00     0.280 HD
HETATM    3  C   UNL     1      40.328 -10.803  -1.685  1.00  0.00     0.281 C 
HETATM    4  C   UNL     1      40.132 -12.039  -0.879  1.00  0.00     0.018 A 
HETATM    5  C   UNL     1      40.862 -13.205  -1.013  1.00  0.00    -0.023 A 
HETATM    6  C   UNL     1      40.403 -14.212  -0.105  1.00  0.00     0.073 A 
HETATM    7  C   UNL     1      39.345 -13.766   0.654  1.00  0.00     0.088 A 
HETATM    8  N   UNL     1      38.720 -14.536   1.576  1.00  0.00    -0.357 N 
HETATM    9  C   UNL     1      39.465 -15.667   2.113  1.00  0.00     0.243 C 
HETATM   10  N   UNL     1      40.221 -16.286   1.051  1.00  0.00    -0.330 N 
HETATM   11  C   UNL     1      40.875 -15.570   0.085  1.00  0.00     0.256 C 
HETATM   12  O   UNL     1      41.771 -16.065  -0.590  1.00  0.00    -0.267 OA
HETATM   13  S   UNL     1      38.917 -12.159   0.308  1.00  0.00    -0.074 SA
HETATM   14  C   UNL     1      41.981 -13.316  -2.001  1.00  0.00     0.068 C 
HETATM   15  C   UNL     1      41.889 -12.220  -3.075  1.00  0.00     0.240 C 
HETATM   16  H   UNL     1      38.204 -14.045   2.303  1.00  0.00     0.162 HD
HETATM   17  H   UNL     1      40.587 -17.213   1.207  1.00  0.00     0.165 HD
ENDROOT
BRANCH   9  18
HETATM   18  C   UNL     1      40.374 -15.355   3.266  1.00  0.00     0.095 A 
HETATM   19  O   UNL     1      41.008 -16.416   3.856  1.00  0.00    -0.313 OA
HETATM   20  C   UNL     1      41.776 -15.923   4.869  1.00  0.00     0.077 A 
HETATM   21  C   UNL     1      41.664 -14.550   4.917  1.00  0.00     0.037 A 
HETATM   22  C   UNL     1      40.770 -14.183   3.883  1.00  0.00     0.039 A 
BRANCH  20  23
HETATM   23  C   UNL     1      42.568 -16.907   5.654  1.00  0.00     0.240 C 
BRANCH  23  24
HETATM   24  O   UNL     1      43.847 -17.031   5.015  1.00  0.00    -0.341 OA
BRANCH  24  25
HETATM   25  C   UNL     1      43.971 -18.195   4.297  1.00  0.00     0.112 A 
HETATM   26  C   UNL     1      44.189 -19.441   4.903  1.00  0.00     0.070 A 
HETATM   27 CL   UNL     1      44.325 -19.623   6.614  1.00  0.00    -0.081 Cl
HETATM   28  C   UNL     1      44.346 -20.589   4.120  1.00  0.00     0.050 A 
HETATM   29  C   UNL     1      44.310 -20.489   2.733  1.00  0.00     0.037 A 
HETATM   30 CL   UNL     1      44.516 -21.901   1.772  1.00  0.00    -0.084 Cl
HETATM   31  C   UNL     1      44.131 -19.255   2.114  1.00  0.00     0.050 A 
HETATM   32  C   UNL     1      43.970 -18.110   2.896  1.00  0.00     0.070 A 
HETATM   33 CL   UNL     1      43.774 -16.593   2.091  1.00  0.00    -0.081 Cl
ENDBRANCH  24  25
ENDBRANCH  23  24
ENDBRANCH  20  23
ENDBRANCH   9  18
BRANCH   1  34
HETATM   34  C   UNL     1      41.804  -9.739  -3.453  1.00  0.00     0.231 C 
HETATM   35  C   UNL     1      42.471 -10.241  -4.720  1.00  0.00     0.034 C 
ENDBRANCH   1  34
TORSDOF 5
ENDMDL
MODEL 3
REMARK VINA RESULT:      -8.5      5.099      8.653
REMARK  5 active torsions:
REMARK  status: ('A' for Active; 'I' for Inactive)
REMARK    1  A    between atoms: C_2  and  N_3 
REMARK    2  A    between atoms: C_11  and  C_12 
REMARK    3  A    between atoms: C_14  and  C_15 
REMARK    4  A    between atoms: C_15  and  O_16 
REMARK    5  A    between atoms: O_16  and  C_17 
ROOT
HETATM    1  N   UNL     1      44.363 -19.527   3.172  1.00  0.00    -0.067 N 
HETATM    2  H   UNL     1      45.030 -18.798   3.460  1.00  0.00     0.280 HD
HETATM    3  C   UNL     1      43.354 -18.833   2.255  1.00  0.00     0.281 C 
HETATM    4  C   UNL     1      42.461 -17.929   3.030  1.00  0.00     0.018 A 
HETATM    5  C   UNL     1      42.321 -17.930   4.406  1.00  0.00    -0.023 A 
HETATM    6  C   UNL     1      41.363 -16.956   4.830  1.00  0.00     0.073 A 
HETATM    7  C   UNL     1      40.817 -16.282   3.762  1.00  0.00     0.088 A 
HETATM    8  N   UNL     1      39.873 -15.321   3.898  1.00  0.00    -0.357 N 
HETATM    9  C   UNL     1      39.782 -14.657   5.191  1.00  0.00     0.243 C 
HETATM   10  N   UNL     1      39.976 -15.628   6.241  1.00  0.00    -0.330 N 
HETATM   11  C   UNL     1      40.909 -16.628   6.168  1.00  0.00     0.256 C 
HETATM   12  O   UNL     1      41.300 -17.220   7.169  1.00  0.00    -0.267 OA
HETATM   13  S   UNL     1      41.454 -16.786   2.271  1.00  0.00    -0.074 SA
HETATM   14  C   UNL     1      43.115 -18.859   5.270  1.00  0.00     0.068 C 
HETATM   15  C   UNL     1      43.689 -20.029   4.454  1.00  0.00     0.240 C 
HETATM   16  H   UNL     1      39.782 -14.662   3.129  1.00  0.00     0.162 HD
HETATM   17  H   UNL     1      39.703 -15.377   7.178  1.00  0.00     0.165 HD
ENDROOT
BRANCH   9  18
HETATM   18  C   UNL     1      40.718 -13.501   5.394  1.00  0.00     0.095 A 
HETATM   19  O   UNL     1      40.328 -12.540   6.288  1.00  0.00    -0.313 OA
HETATM   20  C   UNL     1      41.306 -11.591   6.323  1.00  0.00     0.077 A 
HETATM   21  C   UNL     1      42.336 -11.947   5.479  1.00  0.00     0.037 A 
HETATM   22  C   UNL     1      41.963 -13.177   4.887  1.00  0.00     0.039 A 
BRANCH  20  23
HETATM   23  C   UNL     1      41.096 -10.441   7.242  1.00  0.00     0.240 C 
BRANCH  23  24
HETATM   24  O   UNL     1      42.380 -10.081   7.774  1.00  0.00    -0.341 OA
BRANCH  24  25
HETATM   25  C   UNL     1      42.431 -10.171   9.144  1.00  0.00     0.112 A 
HETATM   26  C   UNL     1      41.691  -9.331   9.988  1.00  0.00     0.070 A 
HETATM   27 CL   UNL     1      40.645  -8.100   9.377  1.00  0.00    -0.081 Cl
HETATM   28  C   UNL     1      41.810  -9.442  11.376  1.00  0.00     0.050 A 
HETATM   29  C   UNL     1      42.688 -10.373  11.921  1.00  0.00     0.037 A 
HETATM   30 CL   UNL     1      42.843 -10.499  13.630  1.00  0.00    -0.084 Cl
HETATM   31  C   UNL     1      43.458 -11.191  11.098  1.00  0.00     0.050 A 
HETATM   32  C   UNL     1      43.335 -11.082   9.712  1.00  0.00     0.070 A 
HETATM   33 CL   UNL     1      44.325 -12.097   8.723  1.00  0.00    -0.081 Cl
ENDBRANCH  24  25
ENDBRANCH  23  24
ENDBRANCH  20  23
ENDBRANCH   9  18
BRANCH   1  34
HETATM   34  C   UNL     1      45.132 -20.629   2.488  1.00  0.00     0.231 C 
HETATM   35  C   UNL     1      44.202 -21.724   1.997  1.00  0.00     0.034 C 
ENDBRANCH   1  34
TORSDOF 5
ENDMDL
MODEL 4
REMARK VINA RESULT:      -8.5      3.519      7.387
REMARK  5 active torsions:
REMARK  status: ('A' for Active; 'I' for Inactive)
REMARK    1  A    between atoms: C_2  and  N_3 
REMARK    2  A    between atoms: C_11  and  C_12 
REMARK    3  A    between atoms: C_14  and  C_15 
REMARK    4  A    between atoms: C_15  and  O_16 
REMARK    5  A    between atoms: O_16  and  C_17 
ROOT
HETATM    1  N   UNL     1      44.274 -19.427   2.995  1.00  0.00    -0.067 N 
HETATM    2  H   UNL     1      44.879 -18.614   2.819  1.00  0.00     0.280 HD
HETATM    3  C   UNL     1      43.101 -19.295   2.023  1.00  0.00     0.281 C 
HETATM    4  C   UNL     1      42.197 -18.183   2.425  1.00  0.00     0.018 A 
HETATM    5  C   UNL     1      42.204 -17.551   3.655  1.00  0.00    -0.023 A 
HETATM    6  C   UNL     1      41.190 -16.544   3.727  1.00  0.00     0.073 A 
HETATM    7  C   UNL     1      40.460 -16.474   2.563  1.00  0.00     0.088 A 
HETATM    8  N   UNL     1      39.432 -15.613   2.385  1.00  0.00    -0.357 N 
HETATM    9  C   UNL     1      39.402 -14.429   3.233  1.00  0.00     0.243 C 
HETATM   10  N   UNL     1      39.817 -14.789   4.568  1.00  0.00    -0.330 N 
HETATM   11  C   UNL     1      40.846 -15.655   4.821  1.00  0.00     0.256 C 
HETATM   12  O   UNL     1      41.406 -15.692   5.911  1.00  0.00    -0.267 OA
HETATM   13  S   UNL     1      40.990 -17.580   1.387  1.00  0.00    -0.074 SA
HETATM   14  C   UNL     1      43.187 -17.927   4.720  1.00  0.00     0.068 C 
HETATM   15  C   UNL     1      43.802 -19.311   4.449  1.00  0.00     0.240 C 
HETATM   16  H   UNL     1      39.185 -15.393   1.423  1.00  0.00     0.162 HD
HETATM   17  H   UNL     1      39.617 -14.145   5.318  1.00  0.00     0.165 HD
ENDROOT
BRANCH   9  18
HETATM   18  C   UNL     1      40.214 -13.263   2.749  1.00  0.00     0.095 A 
HETATM   19  O   UNL     1      40.670 -13.323   1.459  1.00  0.00    -0.313 OA
HETATM   20  C   UNL     1      41.378 -12.181   1.221  1.00  0.00     0.077 A 
HETATM   21  C   UNL     1      41.356 -11.375   2.338  1.00  0.00     0.037 A 
HETATM   22  C   UNL     1      40.604 -12.065   3.318  1.00  0.00     0.039 A 
BRANCH  20  23
HETATM   23  C   UNL     1      41.968 -12.025  -0.135  1.00  0.00     0.240 C 
BRANCH  23  24
HETATM   24  O   UNL     1      40.899 -11.683  -1.028  1.00  0.00    -0.341 OA
BRANCH  24  25
HETATM   25  C   UNL     1      40.491 -12.744  -1.800  1.00  0.00     0.112 A 
HETATM   26  C   UNL     1      41.316 -13.346  -2.760  1.00  0.00     0.070 A 
HETATM   27 CL   UNL     1      42.927 -12.802  -3.062  1.00  0.00    -0.081 Cl
HETATM   28  C   UNL     1      40.836 -14.399  -3.543  1.00  0.00     0.050 A 
HETATM   29  C   UNL     1      39.524 -14.835  -3.386  1.00  0.00     0.037 A 
HETATM   30 CL   UNL     1      38.932 -16.122  -4.360  1.00  0.00    -0.084 Cl
HETATM   31  C   UNL     1      38.680 -14.224  -2.463  1.00  0.00     0.050 A 
HETATM   32  C   UNL     1      39.161 -13.176  -1.678  1.00  0.00     0.070 A 
HETATM   33 CL   UNL     1      38.075 -12.428  -0.560  1.00  0.00    -0.081 Cl
ENDBRANCH  24  25
ENDBRANCH  23  24
ENDBRANCH  20  23
ENDBRANCH   9  18
BRANCH   1  34
HETATM   34  C   UNL     1      45.088 -20.678   2.781  1.00  0.00     0.231 C 
HETATM   35  C   UNL     1      44.301 -21.719   2.007  1.00  0.00     0.034 C 
ENDBRANCH   1  34
TORSDOF 5
ENDMDL
MODEL 5
REMARK VINA RESULT:      -8.0      2.748      4.069
REMARK  5 active torsions:
REMARK  status: ('A' for Active; 'I' for Inactive)
REMARK    1  A    between atoms: C_2  and  N_3 
REMARK    2  A    between atoms: C_11  and  C_12 
REMARK    3  A    between atoms: C_14  and  C_15 
REMARK    4  A    between atoms: C_15  and  O_16 
REMARK    5  A    between atoms: O_16  and  C_17 
ROOT
HETATM    1  N   UNL     1      35.347 -12.591  -4.574  1.00  0.00    -0.067 N 
HETATM    2  H   UNL     1      34.964 -12.589  -3.619  1.00  0.00     0.280 HD
HETATM    3  C   UNL     1      36.027 -13.949  -4.749  1.00  0.00     0.281 C 
HETATM    4  C   UNL     1      37.279 -14.027  -3.946  1.00  0.00     0.018 A 
HETATM    5  C   UNL     1      37.929 -12.950  -3.372  1.00  0.00    -0.023 A 
HETATM    6  C   UNL     1      39.117 -13.365  -2.691  1.00  0.00     0.073 A 
HETATM    7  C   UNL     1      39.316 -14.722  -2.798  1.00  0.00     0.088 A 
HETATM    8  N   UNL     1      40.380 -15.358  -2.254  1.00  0.00    -0.357 N 
HETATM    9  C   UNL     1      41.059 -14.695  -1.150  1.00  0.00     0.243 C 
HETATM   10  N   UNL     1      41.127 -13.278  -1.415  1.00  0.00    -0.330 N 
HETATM   11  C   UNL     1      40.091 -12.572  -1.965  1.00  0.00     0.256 C 
HETATM   12  O   UNL     1      40.021 -11.351  -1.873  1.00  0.00    -0.267 OA
HETATM   13  S   UNL     1      38.089 -15.500  -3.678  1.00  0.00    -0.074 SA
HETATM   14  C   UNL     1      37.386 -11.560  -3.486  1.00  0.00     0.068 C 
HETATM   15  C   UNL     1      36.368 -11.449  -4.634  1.00  0.00     0.240 C 
HETATM   16  H   UNL     1      40.274 -16.357  -2.087  1.00  0.00     0.162 HD
HETATM   17  H   UNL     1      41.772 -12.723  -0.874  1.00  0.00     0.165 HD
ENDROOT
BRANCH   9  18
HETATM   18  C   UNL     1      40.466 -14.926   0.209  1.00  0.00     0.095 A 
HETATM   19  O   UNL     1      41.092 -15.846   1.007  1.00  0.00    -0.313 OA
HETATM   20  C   UNL     1      40.402 -15.906   2.183  1.00  0.00     0.077 A 
HETATM   21  C   UNL     1      39.355 -15.011   2.158  1.00  0.00     0.037 A 
HETATM   22  C   UNL     1      39.398 -14.375   0.894  1.00  0.00     0.039 A 
BRANCH  20  23
HETATM   23  C   UNL     1      40.912 -16.847   3.215  1.00  0.00     0.240 C 
BRANCH  23  24
HETATM   24  O   UNL     1      42.338 -16.694   3.265  1.00  0.00    -0.341 OA
BRANCH  24  25
HETATM   25  C   UNL     1      42.981 -17.835   3.676  1.00  0.00     0.112 A 
HETATM   26  C   UNL     1      43.047 -18.227   5.020  1.00  0.00     0.070 A 
HETATM   27 CL   UNL     1      42.324 -17.302   6.286  1.00  0.00    -0.081 Cl
HETATM   28  C   UNL     1      43.747 -19.380   5.386  1.00  0.00     0.050 A 
HETATM   29  C   UNL     1      44.403 -20.128   4.414  1.00  0.00     0.037 A 
HETATM   30 CL   UNL     1      45.275 -21.539   4.868  1.00  0.00    -0.084 Cl
HETATM   31  C   UNL     1      44.379 -19.733   3.078  1.00  0.00     0.050 A 
HETATM   32  C   UNL     1      43.675 -18.585   2.713  1.00  0.00     0.070 A 
HETATM   33 CL   UNL     1      43.688 -18.114   1.050  1.00  0.00    -0.081 Cl
ENDBRANCH  24  25
ENDBRANCH  23  24
ENDBRANCH  20  23
ENDBRANCH   9  18
BRANCH   1  34
HETATM   34  C   UNL     1      34.212 -12.363  -5.540  1.00  0.00     0.231 C 
HETATM   35  C   UNL     1      32.913 -12.086  -4.805  1.00  0.00     0.034 C 
ENDBRANCH   1  34
TORSDOF 5
ENDMDL
MODEL 6
REMARK VINA RESULT:      -8.0      3.170      6.260
REMARK  5 active torsions:
REMARK  status: ('A' for Active; 'I' for Inactive)
REMARK    1  A    between atoms: C_2  and  N_3 
REMARK    2  A    between atoms: C_11  and  C_12 
REMARK    3  A    between atoms: C_14  and  C_15 
REMARK    4  A    between atoms: C_15  and  O_16 
REMARK    5  A    between atoms: O_16  and  C_17 
ROOT
HETATM    1  N   UNL     1      40.239 -11.492   8.069  1.00  0.00    -0.067 N 
HETATM    2  H   UNL     1      40.131 -12.504   8.221  1.00  0.00     0.280 HD
HETATM    3  C   UNL     1      39.383 -11.158   6.847  1.00  0.00     0.281 C 
HETATM    4  C   UNL     1      39.998 -11.693   5.602  1.00  0.00     0.018 A 
HETATM    5  C   UNL     1      41.299 -12.147   5.483  1.00  0.00    -0.023 A 
HETATM    6  C   UNL     1      41.581 -12.569   4.145  1.00  0.00     0.073 A 
HETATM    7  C   UNL     1      40.494 -12.398   3.319  1.00  0.00     0.088 A 
HETATM    8  N   UNL     1      40.512 -12.705   2.001  1.00  0.00    -0.357 N 
HETATM    9  C   UNL     1      41.513 -13.665   1.554  1.00  0.00     0.243 C 
HETATM   10  N   UNL     1      42.752 -13.419   2.253  1.00  0.00    -0.330 N 
HETATM   11  C   UNL     1      42.808 -13.101   3.583  1.00  0.00     0.256 C 
HETATM   12  O   UNL     1      43.839 -13.229   4.234  1.00  0.00    -0.267 OA
HETATM   13  S   UNL     1      39.143 -11.765   4.131  1.00  0.00    -0.074 SA
HETATM   14  C   UNL     1      42.227 -12.171   6.657  1.00  0.00     0.068 C 
HETATM   15  C   UNL     1      41.726 -11.253   7.785  1.00  0.00     0.240 C 
HETATM   16  H   UNL     1      39.609 -12.871   1.561  1.00  0.00     0.162 HD
HETATM   17  H   UNL     1      43.595 -13.831   1.884  1.00  0.00     0.165 HD
ENDROOT
BRANCH   9  18
HETATM   18  C   UNL     1      41.132 -15.110   1.693  1.00  0.00     0.095 A 
HETATM   19  O   UNL     1      42.158 -16.016   1.735  1.00  0.00    -0.313 OA
HETATM   20  C   UNL     1      41.604 -17.256   1.862  1.00  0.00     0.077 A 
HETATM   21  C   UNL     1      40.232 -17.153   1.931  1.00  0.00     0.037 A 
HETATM   22  C   UNL     1      39.927 -15.774   1.830  1.00  0.00     0.039 A 
BRANCH  20  23
HETATM   23  C   UNL     1      42.542 -18.408   1.934  1.00  0.00     0.240 C 
BRANCH  23  24
HETATM   24  O   UNL     1      43.670 -17.991   2.717  1.00  0.00    -0.341 OA
BRANCH  24  25
HETATM   25  C   UNL     1      43.755 -18.650   3.919  1.00  0.00     0.112 A 
HETATM   26  C   UNL     1      44.285 -19.942   4.040  1.00  0.00     0.070 A 
HETATM   27 CL   UNL     1      44.879 -20.827   2.681  1.00  0.00    -0.081 Cl
HETATM   28  C   UNL     1      44.313 -20.580   5.284  1.00  0.00     0.050 A 
HETATM   29  C   UNL     1      43.788 -19.939   6.401  1.00  0.00     0.037 A 
HETATM   30 CL   UNL     1      43.812 -20.731   7.928  1.00  0.00    -0.084 Cl
HETATM   31  C   UNL     1      43.224 -18.671   6.292  1.00  0.00     0.050 A 
HETATM   32  C   UNL     1      43.201 -18.033   5.051  1.00  0.00     0.070 A 
HETATM   33 CL   UNL     1      42.471 -16.469   4.951  1.00  0.00    -0.081 Cl
ENDBRANCH  24  25
ENDBRANCH  23  24
ENDBRANCH  20  23
ENDBRANCH   9  18
BRANCH   1  34
HETATM   34  C   UNL     1      39.797 -10.777   9.321  1.00  0.00     0.231 C 
HETATM   35  C   UNL     1      40.837 -10.901  10.420  1.00  0.00     0.034 C 
ENDBRANCH   1  34
TORSDOF 5
ENDMDL
MODEL 7
REMARK VINA RESULT:      -8.0      3.386      6.700
REMARK  5 active torsions:
REMARK  status: ('A' for Active; 'I' for Inactive)
REMARK    1  A    between atoms: C_2  and  N_3 
REMARK    2  A    between atoms: C_11  and  C_12 
REMARK    3  A    between atoms: C_14  and  C_15 
REMARK    4  A    between atoms: C_15  and  O_16 
REMARK    5  A    between atoms: O_16  and  C_17 
ROOT
HETATM    1  N   UNL     1      44.085 -18.701   5.485  1.00  0.00    -0.067 N 
HETATM    2  H   UNL     1      44.312 -18.303   4.564  1.00  0.00     0.280 HD
HETATM    3  C   UNL     1      42.572 -18.546   5.647  1.00  0.00     0.281 C 
HETATM    4  C   UNL     1      42.201 -17.120   5.860  1.00  0.00     0.018 A 
HETATM    5  C   UNL     1      43.080 -16.105   6.187  1.00  0.00    -0.023 A 
HETATM    6  C   UNL     1      42.397 -14.858   6.347  1.00  0.00     0.073 A 
HETATM    7  C   UNL     1      41.042 -14.993   6.151  1.00  0.00     0.088 A 
HETATM    8  N   UNL     1      40.172 -13.962   6.263  1.00  0.00    -0.357 N 
HETATM    9  C   UNL     1      40.711 -12.617   6.112  1.00  0.00     0.243 C 
HETATM   10  N   UNL     1      41.999 -12.546   6.760  1.00  0.00    -0.330 N 
HETATM   11  C   UNL     1      42.925 -13.552   6.691  1.00  0.00     0.256 C 
HETATM   12  O   UNL     1      44.110 -13.356   6.940  1.00  0.00    -0.267 OA
HETATM   13  S   UNL     1      40.589 -16.582   5.757  1.00  0.00    -0.074 SA
HETATM   14  C   UNL     1      44.549 -16.360   6.328  1.00  0.00     0.068 C 
HETATM   15  C   UNL     1      44.840 -17.858   6.519  1.00  0.00     0.240 C 
HETATM   16  H   UNL     1      39.280 -14.066   5.783  1.00  0.00     0.162 HD
HETATM   17  H   UNL     1      42.383 -11.634   6.954  1.00  0.00     0.165 HD
ENDROOT
BRANCH   9  18
HETATM   18  C   UNL     1      40.827 -12.120   4.700  1.00  0.00     0.095 A 
HETATM   19  O   UNL     1      40.632 -13.039   3.704  1.00  0.00    -0.313 OA
HETATM   20  C   UNL     1      40.781 -12.390   2.514  1.00  0.00     0.077 A 
HETATM   21  C   UNL     1      41.042 -11.056   2.736  1.00  0.00     0.037 A 
HETATM   22  C   UNL     1      41.065 -10.878   4.140  1.00  0.00     0.039 A 
BRANCH  20  23
HETATM   23  C   UNL     1      40.604 -13.201   1.279  1.00  0.00     0.240 C 
BRANCH  23  24
HETATM   24  O   UNL     1      41.909 -13.618   0.853  1.00  0.00    -0.341 OA
BRANCH  24  25
HETATM   25  C   UNL     1      42.179 -14.927   1.170  1.00  0.00     0.112 A 
HETATM   26  C   UNL     1      43.005 -15.294   2.241  1.00  0.00     0.070 A 
HETATM   27 CL   UNL     1      43.765 -14.126   3.261  1.00  0.00    -0.081 Cl
HETATM   28  C   UNL     1      43.274 -16.642   2.495  1.00  0.00     0.050 A 
HETATM   29  C   UNL     1      42.740 -17.622   1.665  1.00  0.00     0.037 A 
HETATM   30 CL   UNL     1      43.084 -19.279   1.972  1.00  0.00    -0.084 Cl
HETATM   31  C   UNL     1      41.947 -17.273   0.575  1.00  0.00     0.050 A 
HETATM   32  C   UNL     1      41.675 -15.928   0.325  1.00  0.00     0.070 A 
HETATM   33 CL   UNL     1      40.706 -15.534  -1.052  1.00  0.00    -0.081 Cl
ENDBRANCH  24  25
ENDBRANCH  23  24
ENDBRANCH  20  23
ENDBRANCH   9  18
BRANCH   1  34
HETATM   34  C   UNL     1      44.544 -20.137   5.507  1.00  0.00     0.231 C 
HETATM   35  C   UNL     1      45.281 -20.497   4.230  1.00  0.00     0.034 C 
ENDBRANCH   1  34
TORSDOF 5
ENDMDL
MODEL 8
REMARK VINA RESULT:      -7.9      3.268      7.738
REMARK  5 active torsions:
REMARK  status: ('A' for Active; 'I' for Inactive)
REMARK    1  A    between atoms: C_2  and  N_3 
REMARK    2  A    between atoms: C_11  and  C_12 
REMARK    3  A    between atoms: C_14  and  C_15 
REMARK    4  A    between atoms: C_15  and  O_16 
REMARK    5  A    between atoms: O_16  and  C_17 
ROOT
HETATM    1  N   UNL     1      43.711 -20.053   5.885  1.00  0.00    -0.067 N 
HETATM    2  H   UNL     1      42.708 -20.052   5.655  1.00  0.00     0.280 HD
HETATM    3  C   UNL     1      43.901 -18.955   6.932  1.00  0.00     0.281 C 
HETATM    4  C   UNL     1      43.757 -17.605   6.322  1.00  0.00     0.018 A 
HETATM    5  C   UNL     1      43.768 -17.334   4.966  1.00  0.00    -0.023 A 
HETATM    6  C   UNL     1      43.634 -15.932   4.716  1.00  0.00     0.073 A 
HETATM    7  C   UNL     1      43.546 -15.213   5.886  1.00  0.00     0.088 A 
HETATM    8  N   UNL     1      43.431 -13.865   5.919  1.00  0.00    -0.357 N 
HETATM    9  C   UNL     1      42.913 -13.212   4.724  1.00  0.00     0.243 C 
HETATM   10  N   UNL     1      43.456 -13.859   3.554  1.00  0.00    -0.330 N 
HETATM   11  C   UNL     1      43.604 -15.217   3.454  1.00  0.00     0.256 C 
HETATM   12  O   UNL     1      43.736 -15.773   2.369  1.00  0.00    -0.267 OA
HETATM   13  S   UNL     1      43.598 -16.198   7.268  1.00  0.00    -0.074 SA
HETATM   14  C   UNL     1      43.898 -18.429   3.953  1.00  0.00     0.068 C 
HETATM   15  C   UNL     1      44.454 -19.715   4.588  1.00  0.00     0.240 C 
HETATM   16  H   UNL     1      43.038 -13.464   6.768  1.00  0.00     0.162 HD
HETATM   17  H   UNL     1      43.390 -13.378   2.671  1.00  0.00     0.165 HD
ENDROOT
BRANCH   9  18
HETATM   18  C   UNL     1      41.417 -13.149   4.617  1.00  0.00     0.095 A 
HETATM   19  O   UNL     1      40.902 -12.706   3.428  1.00  0.00    -0.313 OA
HETATM   20  C   UNL     1      39.542 -12.724   3.539  1.00  0.00     0.077 A 
HETATM   21  C   UNL     1      39.178 -13.202   4.779  1.00  0.00     0.037 A 
HETATM   22  C   UNL     1      40.381 -13.482   5.471  1.00  0.00     0.039 A 
BRANCH  20  23
HETATM   23  C   UNL     1      38.764 -12.283   2.350  1.00  0.00     0.240 C 
BRANCH  23  24
HETATM   24  O   UNL     1      38.287 -13.466   1.691  1.00  0.00    -0.341 OA
BRANCH  24  25
HETATM   25  C   UNL     1      39.031 -13.794   0.585  1.00  0.00     0.112 A 
HETATM   26  C   UNL     1      39.997 -14.811   0.594  1.00  0.00     0.070 A 
HETATM   27 CL   UNL     1      40.341 -15.742   2.006  1.00  0.00    -0.081 Cl
HETATM   28  C   UNL     1      40.752 -15.078  -0.552  1.00  0.00     0.050 A 
HETATM   29  C   UNL     1      40.561 -14.314  -1.699  1.00  0.00     0.037 A 
HETATM   30 CL   UNL     1      41.500 -14.636  -3.104  1.00  0.00    -0.084 Cl
HETATM   31  C   UNL     1      39.632 -13.277  -1.714  1.00  0.00     0.050 A 
HETATM   32  C   UNL     1      38.875 -13.014  -0.571  1.00  0.00     0.070 A 
HETATM   33 CL   UNL     1      37.750 -11.703  -0.622  1.00  0.00    -0.081 Cl
ENDBRANCH  24  25
ENDBRANCH  23  24
ENDBRANCH  20  23
ENDBRANCH   9  18
BRANCH   1  34
HETATM   34  C   UNL     1      44.079 -21.426   6.387  1.00  0.00     0.231 C 
HETATM   35  C   UNL     1      44.843 -22.209   5.334  1.00  0.00     0.034 C 
ENDBRANCH   1  34
TORSDOF 5
ENDMDL
MODEL 9
REMARK VINA RESULT:      -7.8      5.026      8.287
REMARK  5 active torsions:
REMARK  status: ('A' for Active; 'I' for Inactive)
REMARK    1  A    between atoms: C_2  and  N_3 
REMARK    2  A    between atoms: C_11  and  C_12 
REMARK    3  A    between atoms: C_14  and  C_15 
REMARK    4  A    between atoms: C_15  and  O_16 
REMARK    5  A    between atoms: O_16  and  C_17 
ROOT
HETATM    1  N   UNL     1      43.100 -10.685  11.941  1.00  0.00    -0.067 N 
HETATM    2  H   UNL     1      42.741 -11.619  12.180  1.00  0.00     0.280 HD
HETATM    3  C   UNL     1      42.206 -10.168  10.813  1.00  0.00     0.281 C 
HETATM    4  C   UNL     1      42.471 -10.900   9.544  1.00  0.00     0.018 A 
HETATM    5  C   UNL     1      43.568 -11.706   9.300  1.00  0.00    -0.023 A 
HETATM    6  C   UNL     1      43.535 -12.239   7.972  1.00  0.00     0.073 A 
HETATM    7  C   UNL     1      42.432 -11.799   7.276  1.00  0.00     0.088 A 
HETATM    8  N   UNL     1      42.180 -12.147   5.993  1.00  0.00    -0.357 N 
HETATM    9  C   UNL     1      42.807 -13.365   5.498  1.00  0.00     0.243 C 
HETATM   10  N   UNL     1      44.151 -13.453   6.018  1.00  0.00    -0.330 N 
HETATM   11  C   UNL     1      44.477 -13.115   7.304  1.00  0.00     0.256 C 
HETATM   12  O   UNL     1      45.514 -13.504   7.830  1.00  0.00    -0.267 OA
HETATM   13  S   UNL     1      41.433 -10.782   8.200  1.00  0.00    -0.074 SA
HETATM   14  C   UNL     1      44.608 -11.947  10.349  1.00  0.00     0.068 C 
HETATM   15  C   UNL     1      44.541 -10.884  11.458  1.00  0.00     0.240 C 
HETATM   16  H   UNL     1      41.215 -12.068   5.682  1.00  0.00     0.162 HD
HETATM   17  H   UNL     1      44.789 -14.099   5.580  1.00  0.00     0.165 HD
ENDROOT
BRANCH   9  18
HETATM   18  C   UNL     1      42.069 -14.639   5.790  1.00  0.00     0.095 A 
HETATM   19  O   UNL     1      42.827 -15.767   5.960  1.00  0.00    -0.313 OA
HETATM   20  C   UNL     1      41.974 -16.800   6.211  1.00  0.00     0.077 A 
HETATM   21  C   UNL     1      40.674 -16.341   6.234  1.00  0.00     0.037 A 
HETATM   22  C   UNL     1      40.734 -14.952   5.971  1.00  0.00     0.039 A 
BRANCH  20  23
HETATM   23  C   UNL     1      42.584 -18.138   6.437  1.00  0.00     0.240 C 
BRANCH  23  24
HETATM   24  O   UNL     1      43.901 -18.106   5.869  1.00  0.00    -0.341 OA
BRANCH  24  25
HETATM   25  C   UNL     1      44.039 -18.954   4.798  1.00  0.00     0.112 A 
HETATM   26  C   UNL     1      43.919 -18.525   3.469  1.00  0.00     0.070 A 
HETATM   27 CL   UNL     1      43.580 -16.883   3.058  1.00  0.00    -0.081 Cl
HETATM   28  C   UNL     1      44.032 -19.440   2.418  1.00  0.00     0.050 A 
HETATM   29  C   UNL     1      44.240 -20.788   2.695  1.00  0.00     0.037 A 
HETATM   30 CL   UNL     1      44.366 -21.914   1.401  1.00  0.00    -0.084 Cl
HETATM   31  C   UNL     1      44.326 -21.237   4.010  1.00  0.00     0.050 A 
HETATM   32  C   UNL     1      44.217 -20.322   5.058  1.00  0.00     0.070 A 
HETATM   33 CL   UNL     1      44.305 -20.922   6.677  1.00  0.00    -0.081 Cl
ENDBRANCH  24  25
ENDBRANCH  23  24
ENDBRANCH  20  23
ENDBRANCH   9  18
BRANCH   1  34
HETATM   34  C   UNL     1      43.050  -9.829  13.181  1.00  0.00     0.231 C 
HETATM   35  C   UNL     1      41.943 -10.280  14.116  1.00  0.00     0.034 C 
ENDBRANCH   1  34
TORSDOF 5
ENDMDL
MODEL 10
REMARK VINA RESULT:      -7.8      4.951      8.420
REMARK  5 active torsions:
REMARK  status: ('A' for Active; 'I' for Inactive)
REMARK    1  A    between atoms: C_2  and  N_3 
REMARK    2  A    between atoms: C_11  and  C_12 
REMARK    3  A    between atoms: C_14  and  C_15 
REMARK    4  A    between atoms: C_15  and  O_16 
REMARK    5  A    between atoms: O_16  and  C_17 
ROOT
HETATM    1  N   UNL     1      41.250  -9.914  12.332  1.00  0.00    -0.067 N 
HETATM    2  H   UNL     1      42.074 -10.519  12.211  1.00  0.00     0.280 HD
HETATM    3  C   UNL     1      40.060 -10.717  11.804  1.00  0.00     0.281 C 
HETATM    4  C   UNL     1      40.108 -10.829  10.321  1.00  0.00     0.018 A 
HETATM    5  C   UNL     1      40.908 -10.072   9.486  1.00  0.00    -0.023 A 
HETATM    6  C   UNL     1      40.693 -10.410   8.112  1.00  0.00     0.073 A 
HETATM    7  C   UNL     1      39.735 -11.388   7.975  1.00  0.00     0.088 A 
HETATM    8  N   UNL     1      39.338 -11.871   6.774  1.00  0.00    -0.357 N 
HETATM    9  C   UNL     1      40.257 -11.711   5.656  1.00  0.00     0.243 C 
HETATM   10  N   UNL     1      40.886 -10.415   5.738  1.00  0.00    -0.330 N 
HETATM   11  C   UNL     1      41.309  -9.864   6.918  1.00  0.00     0.256 C 
HETATM   12  O   UNL     1      42.126  -8.951   6.948  1.00  0.00    -0.267 OA
HETATM   13  S   UNL     1      39.115 -11.916   9.465  1.00  0.00    -0.074 SA
HETATM   14  C   UNL     1      41.860  -9.053  10.031  1.00  0.00     0.068 C 
HETATM   15  C   UNL     1      41.499  -8.667  11.476  1.00  0.00     0.240 C 
HETATM   16  H   UNL     1      38.903 -12.791   6.776  1.00  0.00     0.162 HD
HETATM   17  H   UNL     1      41.354 -10.060   4.919  1.00  0.00     0.165 HD
ENDROOT
BRANCH   9  18
HETATM   18  C   UNL     1      41.309 -12.775   5.524  1.00  0.00     0.095 A 
HETATM   19  O   UNL     1      41.021 -13.826   4.695  1.00  0.00    -0.313 OA
HETATM   20  C   UNL     1      42.093 -14.669   4.717  1.00  0.00     0.077 A 
HETATM   21  C   UNL     1      43.079 -14.154   5.530  1.00  0.00     0.037 A 
HETATM   22  C   UNL     1      42.580 -12.933   6.043  1.00  0.00     0.039 A 
BRANCH  20  23
HETATM   23  C   UNL     1      42.005 -15.892   3.875  1.00  0.00     0.240 C 
BRANCH  23  24
HETATM   24  O   UNL     1      43.329 -16.184   3.406  1.00  0.00    -0.341 OA
BRANCH  24  25
HETATM   25  C   UNL     1      43.561 -17.530   3.272  1.00  0.00     0.112 A 
HETATM   26  C   UNL     1      44.041 -18.327   4.321  1.00  0.00     0.070 A 
HETATM   27 CL   UNL     1      44.388 -17.680   5.884  1.00  0.00    -0.081 Cl
HETATM   28  C   UNL     1      44.294 -19.686   4.117  1.00  0.00     0.050 A 
HETATM   29  C   UNL     1      44.094 -20.245   2.859  1.00  0.00     0.037 A 
HETATM   30 CL   UNL     1      44.419 -21.915   2.607  1.00  0.00    -0.084 Cl
HETATM   31  C   UNL     1      43.652 -19.461   1.796  1.00  0.00     0.050 A 
HETATM   32  C   UNL     1      43.395 -18.105   2.002  1.00  0.00     0.070 A 
HETATM   33 CL   UNL     1      42.872 -17.160   0.652  1.00  0.00    -0.081 Cl
ENDBRANCH  24  25
ENDBRANCH  23  24
ENDBRANCH  20  23
ENDBRANCH   9  18
BRANCH   1  34
HETATM   34  C   UNL     1      41.132  -9.562  13.793  1.00  0.00     0.231 C 
HETATM   35  C   UNL     1      42.495  -9.514  14.458  1.00  0.00     0.034 C 
ENDBRANCH   1  34
TORSDOF 5
ENDMDL
