MODEL 1
REMARK VINA RESULT:      -8.2      0.000      0.000
REMARK  8 active torsions:
REMARK  status: ('A' for Active; 'I' for Inactive)
REMARK    1  A    between atoms: O_2  and  C_3 
REMARK    2  A    between atoms: C_3  and  C_4 
REMARK    3  A    between atoms: C_4  and  C_5 
REMARK    4  A    between atoms: C_5  and  N_6 
REMARK    5  A    between atoms: N_6  and  C_8 
REMARK    6  A    between atoms: N_6  and  C_21 
REMARK    7  A    between atoms: C_8  and  C_9 
REMARK    8  A    between atoms: C_21  and  C_22 
ROOT
HETATM    1  N   UNL     1      40.801 -13.827   5.364  1.00  0.00    -0.058 N 
HETATM    2  H   UNL     1      41.526 -13.746   6.095  1.00  0.00     0.280 HD
ENDROOT
BRANCH   1   3
HETATM    3  C   UNL     1      41.460 -13.737   4.004  1.00  0.00     0.238 C 
BRANCH   3   4
HETATM    4  C   UNL     1      42.837 -13.085   4.086  1.00  0.00     0.054 C 
BRANCH   4   5
HETATM    5  C   UNL     1      43.778 -13.933   4.937  1.00  0.00     0.168 C 
BRANCH   5   6
HETATM    6  O   UNL     1      43.477 -13.663   6.303  1.00  0.00    -0.396 OA
HETATM    7  C   UNL     1      44.592 -13.928   7.151  1.00  0.00     0.201 C 
ENDBRANCH   5   6
ENDBRANCH   4   5
ENDBRANCH   3   4
ENDBRANCH   1   3
BRANCH   1   8
HETATM    8  C   UNL     1      39.787 -12.715   5.658  1.00  0.00     0.313 C 
BRANCH   8   9
HETATM    9  C   UNL     1      40.135 -11.851   6.868  1.00  0.00     0.133 A 
HETATM   10  N   UNL     1      39.187 -11.339   7.592  1.00  0.00    -0.233 NA
HETATM   11  C   UNL     1      39.559 -10.562   8.709  1.00  0.00     0.076 A 
HETATM   12  C   UNL     1      40.897 -10.308   9.037  1.00  0.00     0.061 A 
HETATM   13  C   UNL     1      38.561 -10.026   9.524  1.00  0.00     0.056 A 
HETATM   14  C   UNL     1      41.928 -10.896   8.167  1.00  0.00     0.259 A 
HETATM   15  C   UNL     1      41.246  -9.534  10.147  1.00  0.00     0.021 A 
HETATM   16  O   UNL     1      43.125 -10.736   8.357  1.00  0.00    -0.267 OA
HETATM   17  N   UNL     1      41.465 -11.646   7.115  1.00  0.00    -0.309 N 
HETATM   18  H   UNL     1      42.205 -12.048   6.552  1.00  0.00     0.170 HD
HETATM   19  C   UNL     1      40.238  -8.999  10.948  1.00  0.00     0.025 A 
HETATM   20  C   UNL     1      38.901  -9.247  10.633  1.00  0.00     0.036 A 
HETATM   21 CL   UNL     1      37.657  -8.585  11.617  1.00  0.00    -0.084 Cl
ENDBRANCH   8   9
ENDBRANCH   1   8
BRANCH   1  22
HETATM   22  C   UNL     1      40.231 -15.239   5.577  1.00  0.00     0.313 C 
BRANCH  22  23
HETATM   23  C   UNL     1      41.322 -16.285   5.741  1.00  0.00     0.133 A 
HETATM   24  N   UNL     1      41.709 -16.963   4.707  1.00  0.00    -0.233 NA
HETATM   25  C   UNL     1      42.725 -17.922   4.899  1.00  0.00     0.076 A 
HETATM   26  C   UNL     1      43.352 -18.116   6.138  1.00  0.00     0.061 A 
HETATM   27  C   UNL     1      43.130 -18.705   3.818  1.00  0.00     0.056 A 
HETATM   28  C   UNL     1      42.912 -17.269   7.258  1.00  0.00     0.259 A 
HETATM   29  C   UNL     1      44.365 -19.064   6.306  1.00  0.00     0.021 A 
HETATM   30  O   UNL     1      43.445 -17.295   8.358  1.00  0.00    -0.267 OA
HETATM   31  N   UNL     1      41.874 -16.418   6.983  1.00  0.00    -0.309 N 
HETATM   32  H   UNL     1      41.625 -15.803   7.750  1.00  0.00     0.170 HD
HETATM   33  C   UNL     1      44.759 -19.839   5.217  1.00  0.00     0.025 A 
HETATM   34  C   UNL     1      44.140 -19.656   3.979  1.00  0.00     0.036 A 
HETATM   35 CL   UNL     1      44.630 -20.609   2.633  1.00  0.00    -0.084 Cl
ENDBRANCH  22  23
ENDBRANCH   1  22
TORSDOF 8
ENDMDL
MODEL 2
REMARK VINA RESULT:      -8.1      2.118      8.788
REMARK  8 active torsions:
REMARK  status: ('A' for Active; 'I' for Inactive)
REMARK    1  A    between atoms: O_2  and  C_3 
REMARK    2  A    between atoms: C_3  and  C_4 
REMARK    3  A    between atoms: C_4  and  C_5 
REMARK    4  A    between atoms: C_5  and  N_6 
REMARK    5  A    between atoms: N_6  and  C_8 
REMARK    6  A    between atoms: N_6  and  C_21 
REMARK    7  A    between atoms: C_8  and  C_9 
REMARK    8  A    between atoms: C_21  and  C_22 
ROOT
HETATM    1  N   UNL     1      41.694 -13.016   6.383  1.00  0.00    -0.058 N 
HETATM    2  H   UNL     1      41.765 -13.440   7.321  1.00  0.00     0.280 HD
ENDROOT
BRANCH   1   3
HETATM    3  C   UNL     1      40.329 -13.322   5.806  1.00  0.00     0.238 C 
BRANCH   3   4
HETATM    4  C   UNL     1      40.306 -13.151   4.290  1.00  0.00     0.054 C 
BRANCH   4   5
HETATM    5  C   UNL     1      39.797 -14.423   3.618  1.00  0.00     0.168 C 
BRANCH   5   6
HETATM    6  O   UNL     1      40.870 -14.955   2.846  1.00  0.00    -0.396 OA
HETATM    7  C   UNL     1      40.667 -16.334   2.542  1.00  0.00     0.201 C 
ENDBRANCH   5   6
ENDBRANCH   4   5
ENDBRANCH   3   4
ENDBRANCH   1   3
BRANCH   1   8
HETATM    8  C   UNL     1      42.870 -13.586   5.580  1.00  0.00     0.313 C 
BRANCH   8   9
HETATM    9  C   UNL     1      43.178 -15.053   5.871  1.00  0.00     0.133 A 
HETATM   10  N   UNL     1      43.366 -15.881   4.890  1.00  0.00    -0.233 NA
HETATM   11  C   UNL     1      43.665 -17.223   5.209  1.00  0.00     0.076 A 
HETATM   12  C   UNL     1      43.732 -17.684   6.530  1.00  0.00     0.061 A 
HETATM   13  C   UNL     1      43.904 -18.129   4.175  1.00  0.00     0.056 A 
HETATM   14  C   UNL     1      43.488 -16.704   7.601  1.00  0.00     0.259 A 
HETATM   15  C   UNL     1      44.027 -19.017   6.827  1.00  0.00     0.021 A 
HETATM   16  O   UNL     1      43.517 -16.997   8.787  1.00  0.00    -0.267 OA
HETATM   17  N   UNL     1      43.220 -15.423   7.187  1.00  0.00    -0.309 N 
HETATM   18  H   UNL     1      43.076 -14.775   7.953  1.00  0.00     0.170 HD
HETATM   19  C   UNL     1      44.257 -19.912   5.784  1.00  0.00     0.025 A 
HETATM   20  C   UNL     1      44.194 -19.465   4.464  1.00  0.00     0.036 A 
HETATM   21 CL   UNL     1      44.474 -20.569   3.176  1.00  0.00    -0.084 Cl
ENDBRANCH   8   9
ENDBRANCH   1   8
BRANCH   1  22
HETATM   22  C   UNL     1      41.821 -11.509   6.657  1.00  0.00     0.313 C 
BRANCH  22  23
HETATM   23  C   UNL     1      42.406 -11.218   8.030  1.00  0.00     0.133 A 
HETATM   24  N   UNL     1      41.854 -10.313   8.774  1.00  0.00    -0.233 NA
HETATM   25  C   UNL     1      42.425 -10.074  10.042  1.00  0.00     0.076 A 
HETATM   26  C   UNL     1      43.512 -10.813  10.529  1.00  0.00     0.061 A 
HETATM   27  C   UNL     1      41.885  -9.072  10.849  1.00  0.00     0.056 A 
HETATM   28  C   UNL     1      44.053 -11.870   9.661  1.00  0.00     0.259 A 
HETATM   29  C   UNL     1      44.057 -10.569  11.792  1.00  0.00     0.021 A 
HETATM   30  O   UNL     1      44.945 -12.628  10.016  1.00  0.00    -0.267 OA
HETATM   31  N   UNL     1      43.472 -11.976   8.424  1.00  0.00    -0.309 N 
HETATM   32  H   UNL     1      43.819 -12.747   7.865  1.00  0.00     0.170 HD
HETATM   33  C   UNL     1      43.508  -9.564  12.587  1.00  0.00     0.025 A 
HETATM   34  C   UNL     1      42.426  -8.821  12.112  1.00  0.00     0.036 A 
HETATM   35 CL   UNL     1      41.746  -7.584  13.095  1.00  0.00    -0.084 Cl
ENDBRANCH  22  23
ENDBRANCH   1  22
TORSDOF 8
ENDMDL
MODEL 3
REMARK VINA RESULT:      -7.9      4.571      7.465
REMARK  8 active torsions:
REMARK  status: ('A' for Active; 'I' for Inactive)
REMARK    1  A    between atoms: O_2  and  C_3 
REMARK    2  A    between atoms: C_3  and  C_4 
REMARK    3  A    between atoms: C_4  and  C_5 
REMARK    4  A    between atoms: C_5  and  N_6 
REMARK    5  A    between atoms: N_6  and  C_8 
REMARK    6  A    between atoms: N_6  and  C_21 
REMARK    7  A    between atoms: C_8  and  C_9 
REMARK    8  A    between atoms: C_21  and  C_22 
ROOT
HETATM    1  N   UNL     1      41.672 -14.417   4.077  1.00  0.00    -0.058 N 
HETATM    2  H   UNL     1      41.439 -15.036   3.285  1.00  0.00     0.280 HD
ENDROOT
BRANCH   1   3
HETATM    3  C   UNL     1      40.540 -14.455   5.082  1.00  0.00     0.238 C 
BRANCH   3   4
HETATM    4  C   UNL     1      39.539 -13.328   4.848  1.00  0.00     0.054 C 
BRANCH   4   5
HETATM    5  C   UNL     1      39.292 -12.558   6.142  1.00  0.00     0.168 C 
BRANCH   5   6
HETATM    6  O   UNL     1      38.796 -11.271   5.785  1.00  0.00    -0.396 OA
HETATM    7  C   UNL     1      38.635 -11.141   4.374  1.00  0.00     0.201 C 
ENDBRANCH   5   6
ENDBRANCH   4   5
ENDBRANCH   3   4
ENDBRANCH   1   3
BRANCH   1   8
HETATM    8  C   UNL     1      41.935 -13.036   3.463  1.00  0.00     0.313 C 
BRANCH   8   9
HETATM    9  C   UNL     1      41.932 -13.017   1.936  1.00  0.00     0.133 A 
HETATM   10  N   UNL     1      41.477 -14.037   1.278  1.00  0.00    -0.233 NA
HETATM   11  C   UNL     1      41.479 -13.965  -0.132  1.00  0.00     0.076 A 
HETATM   12  C   UNL     1      41.976 -12.856  -0.827  1.00  0.00     0.061 A 
HETATM   13  C   UNL     1      40.965 -15.035  -0.866  1.00  0.00     0.056 A 
HETATM   14  C   UNL     1      42.500 -11.737  -0.027  1.00  0.00     0.259 A 
HETATM   15  C   UNL     1      41.972 -12.803  -2.223  1.00  0.00     0.021 A 
HETATM   16  O   UNL     1      42.962 -10.722  -0.528  1.00  0.00    -0.267 OA
HETATM   17  N   UNL     1      42.441 -11.899   1.335  1.00  0.00    -0.309 N 
HETATM   18  H   UNL     1      42.793 -11.100   1.850  1.00  0.00     0.170 HD
HETATM   19  C   UNL     1      41.463 -13.882  -2.944  1.00  0.00     0.025 A 
HETATM   20  C   UNL     1      40.962 -14.992  -2.263  1.00  0.00     0.036 A 
HETATM   21 CL   UNL     1      40.337 -16.325  -3.150  1.00  0.00    -0.084 Cl
ENDBRANCH   8   9
ENDBRANCH   1   8
BRANCH   1  22
HETATM   22  C   UNL     1      42.930 -15.062   4.682  1.00  0.00     0.313 C 
BRANCH  22  23
HETATM   23  C   UNL     1      43.288 -16.376   4.006  1.00  0.00     0.133 A 
HETATM   24  N   UNL     1      43.632 -17.389   4.735  1.00  0.00    -0.233 NA
HETATM   25  C   UNL     1      43.954 -18.591   4.070  1.00  0.00     0.076 A 
HETATM   26  C   UNL     1      43.859 -18.730   2.679  1.00  0.00     0.061 A 
HETATM   27  C   UNL     1      44.377 -19.688   4.822  1.00  0.00     0.056 A 
HETATM   28  C   UNL     1      43.401 -17.560   1.913  1.00  0.00     0.259 A 
HETATM   29  C   UNL     1      44.173 -19.932   2.039  1.00  0.00     0.021 A 
HETATM   30  O   UNL     1      43.204 -17.594   0.706  1.00  0.00    -0.267 OA
HETATM   31  N   UNL     1      43.179 -16.423   2.645  1.00  0.00    -0.309 N 
HETATM   32  H   UNL     1      42.809 -15.647   2.108  1.00  0.00     0.170 HD
HETATM   33  C   UNL     1      44.594 -21.019   2.803  1.00  0.00     0.025 A 
HETATM   34  C   UNL     1      44.694 -20.892   4.190  1.00  0.00     0.036 A 
HETATM   35 CL   UNL     1      45.208 -22.236   5.133  1.00  0.00    -0.084 Cl
ENDBRANCH  22  23
ENDBRANCH   1  22
TORSDOF 8
ENDMDL
MODEL 4
REMARK VINA RESULT:      -7.8      5.243      7.889
REMARK  8 active torsions:
REMARK  status: ('A' for Active; 'I' for Inactive)
REMARK    1  A    between atoms: O_2  and  C_3 
REMARK    2  A    between atoms: C_3  and  C_4 
REMARK    3  A    between atoms: C_4  and  C_5 
REMARK    4  A    between atoms: C_5  and  N_6 
REMARK    5  A    between atoms: N_6  and  C_8 
REMARK    6  A    between atoms: N_6  and  C_21 
REMARK    7  A    between atoms: C_8  and  C_9 
REMARK    8  A    between atoms: C_21  and  C_22 
ROOT
HETATM    1  N   UNL     1      41.785 -14.215   3.399  1.00  0.00    -0.058 N 
HETATM    2  H   UNL     1      41.595 -14.929   2.678  1.00  0.00     0.280 HD
ENDROOT
BRANCH   1   3
HETATM    3  C   UNL     1      40.507 -13.932   4.160  1.00  0.00     0.238 C 
BRANCH   3   4
HETATM    4  C   UNL     1      39.923 -12.570   3.797  1.00  0.00     0.054 C 
BRANCH   4   5
HETATM    5  C   UNL     1      38.875 -12.716   2.697  1.00  0.00     0.168 C 
BRANCH   5   6
HETATM    6  O   UNL     1      39.003 -14.029   2.159  1.00  0.00    -0.396 OA
HETATM    7  C   UNL     1      38.069 -14.259   1.105  1.00  0.00     0.201 C 
ENDBRANCH   5   6
ENDBRANCH   4   5
ENDBRANCH   3   4
ENDBRANCH   1   3
BRANCH   1   8
HETATM    8  C   UNL     1      42.361 -13.008   2.647  1.00  0.00     0.313 C 
BRANCH   8   9
HETATM    9  C   UNL     1      42.168 -13.060   1.133  1.00  0.00     0.133 A 
HETATM   10  N   UNL     1      42.426 -12.013   0.413  1.00  0.00    -0.233 NA
HETATM   11  C   UNL     1      42.248 -12.115  -0.983  1.00  0.00     0.076 A 
HETATM   12  C   UNL     1      41.781 -13.283  -1.598  1.00  0.00     0.061 A 
HETATM   13  C   UNL     1      42.549 -11.014  -1.788  1.00  0.00     0.056 A 
HETATM   14  C   UNL     1      41.483 -14.431  -0.728  1.00  0.00     0.259 A 
HETATM   15  C   UNL     1      41.609 -13.364  -2.983  1.00  0.00     0.021 A 
HETATM   16  O   UNL     1      41.067 -15.498  -1.156  1.00  0.00    -0.267 OA
HETATM   17  N   UNL     1      41.702 -14.236   0.613  1.00  0.00    -0.309 N 
HETATM   18  H   UNL     1      41.504 -15.055   1.176  1.00  0.00     0.170 HD
HETATM   19  C   UNL     1      41.906 -12.255  -3.772  1.00  0.00     0.025 A 
HETATM   20  C   UNL     1      42.375 -11.086  -3.172  1.00  0.00     0.036 A 
HETATM   21 CL   UNL     1      42.738  -9.715  -4.144  1.00  0.00    -0.084 Cl
ENDBRANCH   8   9
ENDBRANCH   1   8
BRANCH   1  22
HETATM   22  C   UNL     1      42.805 -14.897   4.324  1.00  0.00     0.313 C 
BRANCH  22  23
HETATM   23  C   UNL     1      43.243 -16.256   3.800  1.00  0.00     0.133 A 
HETATM   24  N   UNL     1      43.456 -17.219   4.640  1.00  0.00    -0.233 NA
HETATM   25  C   UNL     1      43.858 -18.465   4.114  1.00  0.00     0.076 A 
HETATM   26  C   UNL     1      43.975 -18.698   2.737  1.00  0.00     0.061 A 
HETATM   27  C   UNL     1      44.145 -19.509   4.993  1.00  0.00     0.056 A 
HETATM   28  C   UNL     1      43.657 -17.581   1.833  1.00  0.00     0.259 A 
HETATM   29  C   UNL     1      44.365 -19.942   2.235  1.00  0.00     0.021 A 
HETATM   30  O   UNL     1      43.645 -17.696   0.616  1.00  0.00    -0.267 OA
HETATM   31  N   UNL     1      43.342 -16.396   2.445  1.00  0.00    -0.309 N 
HETATM   32  H   UNL     1      43.069 -15.657   1.807  1.00  0.00     0.170 HD
HETATM   33  C   UNL     1      44.649 -20.977   3.125  1.00  0.00     0.025 A 
HETATM   34  C   UNL     1      44.537 -20.756   4.499  1.00  0.00     0.036 A 
HETATM   35 CL   UNL     1      44.882 -22.034   5.597  1.00  0.00    -0.084 Cl
ENDBRANCH  22  23
ENDBRANCH   1  22
TORSDOF 8
ENDMDL
MODEL 5
REMARK VINA RESULT:      -7.8      3.973      8.379
REMARK  8 active torsions:
REMARK  status: ('A' for Active; 'I' for Inactive)
REMARK    1  A    between atoms: O_2  and  C_3 
REMARK    2  A    between atoms: C_3  and  C_4 
REMARK    3  A    between atoms: C_4  and  C_5 
REMARK    4  A    between atoms: C_5  and  N_6 
REMARK    5  A    between atoms: N_6  and  C_8 
REMARK    6  A    between atoms: N_6  and  C_21 
REMARK    7  A    between atoms: C_8  and  C_9 
REMARK    8  A    between atoms: C_21  and  C_22 
ROOT
HETATM    1  N   UNL     1      43.809 -14.216   6.229  1.00  0.00    -0.058 N 
HETATM    2  H   UNL     1      44.015 -14.226   5.218  1.00  0.00     0.280 HD
ENDROOT
BRANCH   1   3
HETATM    3  C   UNL     1      45.096 -13.984   6.992  1.00  0.00     0.238 C 
BRANCH   3   4
HETATM    4  C   UNL     1      44.924 -12.927   8.078  1.00  0.00     0.054 C 
BRANCH   4   5
HETATM    5  C   UNL     1      46.257 -12.242   8.370  1.00  0.00     0.168 C 
BRANCH   5   6
HETATM    6  O   UNL     1      45.967 -10.946   8.886  1.00  0.00    -0.396 OA
HETATM    7  C   UNL     1      45.360 -11.015  10.175  1.00  0.00     0.201 C 
ENDBRANCH   5   6
ENDBRANCH   4   5
ENDBRANCH   3   4
ENDBRANCH   1   3
BRANCH   1   8
HETATM    8  C   UNL     1      43.123 -15.555   6.526  1.00  0.00     0.313 C 
BRANCH   8   9
HETATM    9  C   UNL     1      43.423 -16.655   5.510  1.00  0.00     0.133 A 
HETATM   10  N   UNL     1      43.815 -17.822   5.917  1.00  0.00    -0.233 NA
HETATM   11  C   UNL     1      44.064 -18.810   4.941  1.00  0.00     0.076 A 
HETATM   12  C   UNL     1      43.930 -18.562   3.569  1.00  0.00     0.061 A 
HETATM   13  C   UNL     1      44.457 -20.085   5.352  1.00  0.00     0.056 A 
HETATM   14  C   UNL     1      43.504 -17.213   3.165  1.00  0.00     0.259 A 
HETATM   15  C   UNL     1      44.183 -19.553   2.617  1.00  0.00     0.021 A 
HETATM   16  O   UNL     1      43.359 -16.885   1.997  1.00  0.00    -0.267 OA
HETATM   17  N   UNL     1      43.274 -16.329   4.189  1.00  0.00    -0.309 N 
HETATM   18  H   UNL     1      42.964 -15.418   3.872  1.00  0.00     0.170 HD
HETATM   19  C   UNL     1      44.581 -20.820   3.041  1.00  0.00     0.025 A 
HETATM   20  C   UNL     1      44.716 -21.080   4.406  1.00  0.00     0.036 A 
HETATM   21 CL   UNL     1      45.211 -22.640   4.930  1.00  0.00    -0.084 Cl
ENDBRANCH   8   9
ENDBRANCH   1   8
BRANCH   1  22
HETATM   22  C   UNL     1      42.875 -13.006   6.396  1.00  0.00     0.313 C 
BRANCH  22  23
HETATM   23  C   UNL     1      41.837 -12.920   5.289  1.00  0.00     0.133 A 
HETATM   24  N   UNL     1      42.091 -13.459   4.139  1.00  0.00    -0.233 NA
HETATM   25  C   UNL     1      41.102 -13.360   3.139  1.00  0.00     0.076 A 
HETATM   26  C   UNL     1      39.858 -12.757   3.369  1.00  0.00     0.061 A 
HETATM   27  C   UNL     1      41.363 -13.887   1.874  1.00  0.00     0.056 A 
HETATM   28  C   UNL     1      39.606 -12.219   4.715  1.00  0.00     0.259 A 
HETATM   29  C   UNL     1      38.886 -12.677   2.369  1.00  0.00     0.021 A 
HETATM   30  O   UNL     1      38.529 -11.747   5.050  1.00  0.00    -0.267 OA
HETATM   31  N   UNL     1      40.655 -12.306   5.593  1.00  0.00    -0.309 N 
HETATM   32  H   UNL     1      40.442 -11.984   6.531  1.00  0.00     0.170 HD
HETATM   33  C   UNL     1      39.161 -13.208   1.109  1.00  0.00     0.025 A 
HETATM   34  C   UNL     1      40.397 -13.810   0.868  1.00  0.00     0.036 A 
HETATM   35 CL   UNL     1      40.735 -14.469  -0.685  1.00  0.00    -0.084 Cl
ENDBRANCH  22  23
ENDBRANCH   1  22
TORSDOF 8
ENDMDL
MODEL 6
REMARK VINA RESULT:      -7.8      4.436      8.684
REMARK  8 active torsions:
REMARK  status: ('A' for Active; 'I' for Inactive)
REMARK    1  A    between atoms: O_2  and  C_3 
REMARK    2  A    between atoms: C_3  and  C_4 
REMARK    3  A    between atoms: C_4  and  C_5 
REMARK    4  A    between atoms: C_5  and  N_6 
REMARK    5  A    between atoms: N_6  and  C_8 
REMARK    6  A    between atoms: N_6  and  C_21 
REMARK    7  A    between atoms: C_8  and  C_9 
REMARK    8  A    between atoms: C_21  and  C_22 
ROOT
HETATM    1  N   UNL     1      41.942 -13.644   4.148  1.00  0.00    -0.058 N 
HETATM    2  H   UNL     1      42.717 -13.852   3.499  1.00  0.00     0.280 HD
ENDROOT
BRANCH   1   3
HETATM    3  C   UNL     1      42.476 -12.830   5.308  1.00  0.00     0.238 C 
BRANCH   3   4
HETATM    4  C   UNL     1      42.927 -13.721   6.462  1.00  0.00     0.054 C 
BRANCH   4   5
HETATM    5  C   UNL     1      44.435 -13.944   6.405  1.00  0.00     0.168 C 
BRANCH   5   6
HETATM    6  O   UNL     1      44.898 -14.077   7.746  1.00  0.00    -0.396 OA
HETATM    7  C   UNL     1      44.984 -12.814   8.402  1.00  0.00     0.201 C 
ENDBRANCH   5   6
ENDBRANCH   4   5
ENDBRANCH   3   4
ENDBRANCH   1   3
BRANCH   1   8
HETATM    8  C   UNL     1      41.351 -15.004   4.540  1.00  0.00     0.313 C 
BRANCH   8   9
HETATM    9  C   UNL     1      42.016 -16.198   3.859  1.00  0.00     0.133 A 
HETATM   10  N   UNL     1      42.605 -17.105   4.575  1.00  0.00    -0.233 NA
HETATM   11  C   UNL     1      43.189 -18.198   3.900  1.00  0.00     0.076 A 
HETATM   12  C   UNL     1      43.178 -18.314   2.505  1.00  0.00     0.061 A 
HETATM   13  C   UNL     1      43.802 -19.206   4.647  1.00  0.00     0.056 A 
HETATM   14  C   UNL     1      42.515 -17.243   1.744  1.00  0.00     0.259 A 
HETATM   15  C   UNL     1      43.765 -19.403   1.854  1.00  0.00     0.021 A 
HETATM   16  O   UNL     1      42.449 -17.239   0.523  1.00  0.00    -0.267 OA
HETATM   17  N   UNL     1      41.966 -16.232   2.492  1.00  0.00    -0.309 N 
HETATM   18  H   UNL     1      41.502 -15.525   1.934  1.00  0.00     0.170 HD
HETATM   19  C   UNL     1      44.379 -20.398   2.612  1.00  0.00     0.025 A 
HETATM   20  C   UNL     1      44.395 -20.296   4.004  1.00  0.00     0.036 A 
HETATM   21 CL   UNL     1      45.156 -21.521   4.940  1.00  0.00    -0.084 Cl
ENDBRANCH   8   9
ENDBRANCH   1   8
BRANCH   1  22
HETATM   22  C   UNL     1      40.984 -12.786   3.305  1.00  0.00     0.313 C 
BRANCH  22  23
HETATM   23  C   UNL     1      41.308 -12.848   1.821  1.00  0.00     0.133 A 
HETATM   24  N   UNL     1      40.748 -13.757   1.088  1.00  0.00    -0.233 NA
HETATM   25  C   UNL     1      41.072 -13.780  -0.285  1.00  0.00     0.076 A 
HETATM   26  C   UNL     1      41.921 -12.832  -0.872  1.00  0.00     0.061 A 
HETATM   27  C   UNL     1      40.525 -14.777  -1.093  1.00  0.00     0.056 A 
HETATM   28  C   UNL     1      42.476 -11.787   0.001  1.00  0.00     0.259 A 
HETATM   29  C   UNL     1      42.223 -12.865  -2.237  1.00  0.00     0.021 A 
HETATM   30  O   UNL     1      43.159 -10.864  -0.419  1.00  0.00    -0.267 OA
HETATM   31  N   UNL     1      42.153 -11.894   1.330  1.00  0.00    -0.309 N 
HETATM   32  H   UNL     1      42.496 -11.132   1.904  1.00  0.00     0.170 HD
HETATM   33  C   UNL     1      41.669 -13.867  -3.032  1.00  0.00     0.025 A 
HETATM   34  C   UNL     1      40.823 -14.817  -2.457  1.00  0.00     0.036 A 
HETATM   35 CL   UNL     1      40.136 -16.051  -3.439  1.00  0.00    -0.084 Cl
ENDBRANCH  22  23
ENDBRANCH   1  22
TORSDOF 8
ENDMDL
MODEL 7
REMARK VINA RESULT:      -7.8      4.550      9.086
REMARK  8 active torsions:
REMARK  status: ('A' for Active; 'I' for Inactive)
REMARK    1  A    between atoms: O_2  and  C_3 
REMARK    2  A    between atoms: C_3  and  C_4 
REMARK    3  A    between atoms: C_4  and  C_5 
REMARK    4  A    between atoms: C_5  and  N_6 
REMARK    5  A    between atoms: N_6  and  C_8 
REMARK    6  A    between atoms: N_6  and  C_21 
REMARK    7  A    between atoms: C_8  and  C_9 
REMARK    8  A    between atoms: C_21  and  C_22 
ROOT
HETATM    1  N   UNL     1      41.547 -15.110   4.166  1.00  0.00    -0.058 N 
HETATM    2  H   UNL     1      41.401 -14.176   3.753  1.00  0.00     0.280 HD
ENDROOT
BRANCH   1   3
HETATM    3  C   UNL     1      40.885 -15.157   5.527  1.00  0.00     0.238 C 
BRANCH   3   4
HETATM    4  C   UNL     1      39.805 -14.089   5.667  1.00  0.00     0.054 C 
BRANCH   4   5
HETATM    5  C   UNL     1      40.272 -12.775   5.046  1.00  0.00     0.168 C 
BRANCH   5   6
HETATM    6  O   UNL     1      39.562 -12.605   3.823  1.00  0.00    -0.396 OA
HETATM    7  C   UNL     1      40.274 -11.771   2.912  1.00  0.00     0.201 C 
ENDBRANCH   5   6
ENDBRANCH   4   5
ENDBRANCH   3   4
ENDBRANCH   1   3
BRANCH   1   8
HETATM    8  C   UNL     1      43.066 -15.322   4.187  1.00  0.00     0.313 C 
BRANCH   8   9
HETATM    9  C   UNL     1      43.495 -16.777   4.365  1.00  0.00     0.133 A 
HETATM   10  N   UNL     1      43.479 -17.585   3.350  1.00  0.00    -0.233 NA
HETATM   11  C   UNL     1      43.900 -18.915   3.561  1.00  0.00     0.076 A 
HETATM   12  C   UNL     1      44.300 -19.387   4.817  1.00  0.00     0.061 A 
HETATM   13  C   UNL     1      43.923 -19.798   2.480  1.00  0.00     0.056 A 
HETATM   14  C   UNL     1      44.277 -18.431   5.936  1.00  0.00     0.259 A 
HETATM   15  C   UNL     1      44.712 -20.709   5.007  1.00  0.00     0.021 A 
HETATM   16  O   UNL     1      44.602 -18.735   7.075  1.00  0.00    -0.267 OA
HETATM   17  N   UNL     1      43.865 -17.159   5.625  1.00  0.00    -0.309 N 
HETATM   18  H   UNL     1      43.882 -16.527   6.417  1.00  0.00     0.170 HD
HETATM   19  C   UNL     1      44.724 -21.581   3.921  1.00  0.00     0.025 A 
HETATM   20  C   UNL     1      44.329 -21.122   2.663  1.00  0.00     0.036 A 
HETATM   21 CL   UNL     1      44.339 -22.198   1.322  1.00  0.00    -0.084 Cl
ENDBRANCH   8   9
ENDBRANCH   1   8
BRANCH   1  22
HETATM   22  C   UNL     1      40.817 -16.053   3.196  1.00  0.00     0.313 C 
BRANCH  22  23
HETATM   23  C   UNL     1      40.255 -15.318   1.989  1.00  0.00     0.133 A 
HETATM   24  N   UNL     1      41.043 -15.024   1.005  1.00  0.00    -0.233 NA
HETATM   25  C   UNL     1      40.484 -14.344  -0.098  1.00  0.00     0.076 A 
HETATM   26  C   UNL     1      39.119 -14.037  -0.178  1.00  0.00     0.061 A 
HETATM   27  C   UNL     1      41.315 -13.967  -1.153  1.00  0.00     0.056 A 
HETATM   28  C   UNL     1      38.265 -14.455   0.945  1.00  0.00     0.259 A 
HETATM   29  C   UNL     1      38.581 -13.372  -1.283  1.00  0.00     0.021 A 
HETATM   30  O   UNL     1      37.050 -14.312   0.943  1.00  0.00    -0.267 OA
HETATM   31  N   UNL     1      38.917 -15.047   1.995  1.00  0.00    -0.309 N 
HETATM   32  H   UNL     1      38.304 -15.381   2.731  1.00  0.00     0.170 HD
HETATM   33  C   UNL     1      39.424 -13.001  -2.330  1.00  0.00     0.025 A 
HETATM   34  C   UNL     1      40.785 -13.301  -2.261  1.00  0.00     0.036 A 
HETATM   35 CL   UNL     1      41.824 -12.848  -3.555  1.00  0.00    -0.084 Cl
ENDBRANCH  22  23
ENDBRANCH   1  22
TORSDOF 8
ENDMDL
MODEL 8
REMARK VINA RESULT:      -7.7      4.503      9.006
REMARK  8 active torsions:
REMARK  status: ('A' for Active; 'I' for Inactive)
REMARK    1  A    between atoms: O_2  and  C_3 
REMARK    2  A    between atoms: C_3  and  C_4 
REMARK    3  A    between atoms: C_4  and  C_5 
REMARK    4  A    between atoms: C_5  and  N_6 
REMARK    5  A    between atoms: N_6  and  C_8 
REMARK    6  A    between atoms: N_6  and  C_21 
REMARK    7  A    between atoms: C_8  and  C_9 
REMARK    8  A    between atoms: C_21  and  C_22 
ROOT
HETATM    1  N   UNL     1      41.552 -14.912   4.538  1.00  0.00    -0.058 N 
HETATM    2  H   UNL     1      41.490 -14.006   4.048  1.00  0.00     0.280 HD
ENDROOT
BRANCH   1   3
HETATM    3  C   UNL     1      40.856 -14.797   5.878  1.00  0.00     0.238 C 
BRANCH   3   4
HETATM    4  C   UNL     1      39.943 -13.576   5.936  1.00  0.00     0.054 C 
BRANCH   4   5
HETATM    5  C   UNL     1      40.702 -12.322   5.511  1.00  0.00     0.168 C 
BRANCH   5   6
HETATM    6  O   UNL     1      40.571 -12.204   4.097  1.00  0.00    -0.396 OA
HETATM    7  C   UNL     1      39.266 -11.765   3.724  1.00  0.00     0.201 C 
ENDBRANCH   5   6
ENDBRANCH   4   5
ENDBRANCH   3   4
ENDBRANCH   1   3
BRANCH   1   8
HETATM    8  C   UNL     1      43.049 -15.239   4.622  1.00  0.00     0.313 C 
BRANCH   8   9
HETATM    9  C   UNL     1      43.435 -16.578   4.000  1.00  0.00     0.133 A 
HETATM   10  N   UNL     1      43.733 -17.584   4.764  1.00  0.00    -0.233 NA
HETATM   11  C   UNL     1      44.067 -18.806   4.142  1.00  0.00     0.076 A 
HETATM   12  C   UNL     1      44.113 -18.953   2.750  1.00  0.00     0.061 A 
HETATM   13  C   UNL     1      44.361 -19.914   4.939  1.00  0.00     0.056 A 
HETATM   14  C   UNL     1      43.787 -17.773   1.935  1.00  0.00     0.259 A 
HETATM   15  C   UNL     1      44.448 -20.172   2.153  1.00  0.00     0.021 A 
HETATM   16  O   UNL     1      43.799 -17.787   0.713  1.00  0.00    -0.267 OA
HETATM   17  N   UNL     1      43.462 -16.637   2.633  1.00  0.00    -0.309 N 
HETATM   18  H   UNL     1      43.225 -15.852   2.037  1.00  0.00     0.170 HD
HETATM   19  C   UNL     1      44.747 -21.267   2.961  1.00  0.00     0.025 A 
HETATM   20  C   UNL     1      44.702 -21.133   4.349  1.00  0.00     0.036 A 
HETATM   21 CL   UNL     1      45.074 -22.483   5.347  1.00  0.00    -0.084 Cl
ENDBRANCH   8   9
ENDBRANCH   1   8
BRANCH   1  22
HETATM   22  C   UNL     1      40.772 -15.872   3.625  1.00  0.00     0.313 C 
BRANCH  22  23
HETATM   23  C   UNL     1      40.297 -15.196   2.348  1.00  0.00     0.133 A 
HETATM   24  N   UNL     1      41.166 -14.859   1.449  1.00  0.00    -0.233 NA
HETATM   25  C   UNL     1      40.686 -14.237   0.278  1.00  0.00     0.076 A 
HETATM   26  C   UNL     1      39.320 -14.029   0.044  1.00  0.00     0.061 A 
HETATM   27  C   UNL     1      41.599 -13.817  -0.689  1.00  0.00     0.056 A 
HETATM   28  C   UNL     1      38.378 -14.491   1.075  1.00  0.00     0.259 A 
HETATM   29  C   UNL     1      38.862 -13.419  -1.128  1.00  0.00     0.021 A 
HETATM   30  O   UNL     1      37.164 -14.435   0.939  1.00  0.00    -0.267 OA
HETATM   31  N   UNL     1      38.950 -15.021   2.203  1.00  0.00    -0.309 N 
HETATM   32  H   UNL     1      38.285 -15.386   2.875  1.00  0.00     0.170 HD
HETATM   33  C   UNL     1      39.786 -13.004  -2.085  1.00  0.00     0.025 A 
HETATM   34  C   UNL     1      41.149 -13.205  -1.861  1.00  0.00     0.036 A 
HETATM   35 CL   UNL     1      42.290 -12.698  -3.045  1.00  0.00    -0.084 Cl
ENDBRANCH  22  23
ENDBRANCH   1  22
TORSDOF 8
ENDMDL
MODEL 9
REMARK VINA RESULT:      -7.5      4.370      7.344
REMARK  8 active torsions:
REMARK  status: ('A' for Active; 'I' for Inactive)
REMARK    1  A    between atoms: O_2  and  C_3 
REMARK    2  A    between atoms: C_3  and  C_4 
REMARK    3  A    between atoms: C_4  and  C_5 
REMARK    4  A    between atoms: C_5  and  N_6 
REMARK    5  A    between atoms: N_6  and  C_8 
REMARK    6  A    between atoms: N_6  and  C_21 
REMARK    7  A    between atoms: C_8  and  C_9 
REMARK    8  A    between atoms: C_21  and  C_22 
ROOT
HETATM    1  N   UNL     1      40.403 -14.967   3.276  1.00  0.00    -0.058 N 
HETATM    2  H   UNL     1      40.263 -15.823   3.834  1.00  0.00     0.280 HD
ENDROOT
BRANCH   1   3
HETATM    3  C   UNL     1      39.958 -13.770   4.089  1.00  0.00     0.238 C 
BRANCH   3   4
HETATM    4  C   UNL     1      40.057 -14.038   5.588  1.00  0.00     0.054 C 
BRANCH   4   5
HETATM    5  C   UNL     1      39.484 -12.864   6.378  1.00  0.00     0.168 C 
BRANCH   5   6
HETATM    6  O   UNL     1      38.867 -11.983   5.444  1.00  0.00    -0.396 OA
HETATM    7  C   UNL     1      39.332 -10.643   5.596  1.00  0.00     0.201 C 
ENDBRANCH   5   6
ENDBRANCH   4   5
ENDBRANCH   3   4
ENDBRANCH   1   3
BRANCH   1   8
HETATM    8  C   UNL     1      39.617 -15.184   1.976  1.00  0.00     0.313 C 
BRANCH   8   9
HETATM    9  C   UNL     1      40.317 -14.660   0.724  1.00  0.00     0.133 A 
HETATM   10  N   UNL     1      40.861 -13.482   0.733  1.00  0.00    -0.233 NA
HETATM   11  C   UNL     1      41.511 -13.049  -0.443  1.00  0.00     0.076 A 
HETATM   12  C   UNL     1      41.559 -13.828  -1.606  1.00  0.00     0.061 A 
HETATM   13  C   UNL     1      42.133 -11.800  -0.453  1.00  0.00     0.056 A 
HETATM   14  C   UNL     1      40.906 -15.146  -1.563  1.00  0.00     0.259 A 
HETATM   15  C   UNL     1      42.206 -13.381  -2.761  1.00  0.00     0.021 A 
HETATM   16  O   UNL     1      40.882 -15.906  -2.520  1.00  0.00    -0.267 OA
HETATM   17  N   UNL     1      40.314 -15.480  -0.371  1.00  0.00    -0.309 N 
HETATM   18  H   UNL     1      39.892 -16.401  -0.376  1.00  0.00     0.170 HD
HETATM   19  C   UNL     1      42.816 -12.129  -2.759  1.00  0.00     0.025 A 
HETATM   20  C   UNL     1      42.778 -11.344  -1.605  1.00  0.00     0.036 A 
HETATM   21 CL   UNL     1      43.527  -9.797  -1.602  1.00  0.00    -0.084 Cl
ENDBRANCH   8   9
ENDBRANCH   1   8
BRANCH   1  22
HETATM   22  C   UNL     1      41.925 -14.918   3.063  1.00  0.00     0.313 C 
BRANCH  22  23
HETATM   23  C   UNL     1      42.607 -16.215   3.472  1.00  0.00     0.133 A 
HETATM   24  N   UNL     1      42.714 -17.173   2.608  1.00  0.00    -0.233 NA
HETATM   25  C   UNL     1      43.355 -18.359   3.025  1.00  0.00     0.076 A 
HETATM   26  C   UNL     1      43.915 -18.501   4.301  1.00  0.00     0.061 A 
HETATM   27  C   UNL     1      43.443 -19.429   2.134  1.00  0.00     0.056 A 
HETATM   28  C   UNL     1      43.817 -17.353   5.215  1.00  0.00     0.259 A 
HETATM   29  C   UNL     1      44.556 -19.680   4.692  1.00  0.00     0.021 A 
HETATM   30  O   UNL     1      44.341 -17.337   6.320  1.00  0.00    -0.267 OA
HETATM   31  N   UNL     1      43.117 -16.275   4.738  1.00  0.00    -0.309 N 
HETATM   32  H   UNL     1      43.111 -15.474   5.359  1.00  0.00     0.170 HD
HETATM   33  C   UNL     1      44.636 -20.742   3.793  1.00  0.00     0.025 A 
HETATM   34  C   UNL     1      44.080 -20.612   2.519  1.00  0.00     0.036 A 
HETATM   35 CL   UNL     1      44.183 -21.920   1.407  1.00  0.00    -0.084 Cl
ENDBRANCH  22  23
ENDBRANCH   1  22
TORSDOF 8
ENDMDL
MODEL 10
REMARK VINA RESULT:      -7.5      5.710      8.243
REMARK  8 active torsions:
REMARK  status: ('A' for Active; 'I' for Inactive)
REMARK    1  A    between atoms: O_2  and  C_3 
REMARK    2  A    between atoms: C_3  and  C_4 
REMARK    3  A    between atoms: C_4  and  C_5 
REMARK    4  A    between atoms: C_5  and  N_6 
REMARK    5  A    between atoms: N_6  and  C_8 
REMARK    6  A    between atoms: N_6  and  C_21 
REMARK    7  A    between atoms: C_8  and  C_9 
REMARK    8  A    between atoms: C_21  and  C_22 
ROOT
HETATM    1  N   UNL     1      40.723 -15.546   1.959  1.00  0.00    -0.058 N 
HETATM    2  H   UNL     1      40.252 -16.303   2.478  1.00  0.00     0.280 HD
ENDROOT
BRANCH   1   3
HETATM    3  C   UNL     1      39.773 -14.375   1.826  1.00  0.00     0.238 C 
BRANCH   3   4
HETATM    4  C   UNL     1      38.346 -14.835   1.545  1.00  0.00     0.054 C 
BRANCH   4   5
HETATM    5  C   UNL     1      37.642 -13.849   0.617  1.00  0.00     0.168 C 
BRANCH   5   6
HETATM    6  O   UNL     1      38.499 -13.627  -0.499  1.00  0.00    -0.396 OA
HETATM    7  C   UNL     1      37.822 -12.954  -1.559  1.00  0.00     0.201 C 
ENDBRANCH   5   6
ENDBRANCH   4   5
ENDBRANCH   3   4
ENDBRANCH   1   3
BRANCH   1   8
HETATM    8  C   UNL     1      41.164 -16.166   0.627  1.00  0.00     0.313 C 
BRANCH   8   9
HETATM    9  C   UNL     1      41.315 -15.163  -0.514  1.00  0.00     0.133 A 
HETATM   10  N   UNL     1      41.889 -14.019  -0.297  1.00  0.00    -0.233 NA
HETATM   11  C   UNL     1      42.020 -13.132  -1.386  1.00  0.00     0.076 A 
HETATM   12  C   UNL     1      41.533 -13.434  -2.664  1.00  0.00     0.061 A 
HETATM   13  C   UNL     1      42.661 -11.908  -1.190  1.00  0.00     0.056 A 
HETATM   14  C   UNL     1      40.873 -14.736  -2.845  1.00  0.00     0.259 A 
HETATM   15  C   UNL     1      41.671 -12.541  -3.731  1.00  0.00     0.021 A 
HETATM   16  O   UNL     1      40.408 -15.101  -3.915  1.00  0.00    -0.267 OA
HETATM   17  N   UNL     1      40.807 -15.531  -1.729  1.00  0.00    -0.309 N 
HETATM   18  H   UNL     1      40.363 -16.426  -1.898  1.00  0.00     0.170 HD
HETATM   19  C   UNL     1      42.307 -11.320  -3.519  1.00  0.00     0.025 A 
HETATM   20  C   UNL     1      42.799 -11.008  -2.250  1.00  0.00     0.036 A 
HETATM   21 CL   UNL     1      43.580  -9.500  -1.985  1.00  0.00    -0.084 Cl
ENDBRANCH   8   9
ENDBRANCH   1   8
BRANCH   1  22
HETATM   22  C   UNL     1      41.902 -15.163   2.869  1.00  0.00     0.313 C 
BRANCH  22  23
HETATM   23  C   UNL     1      42.632 -16.380   3.412  1.00  0.00     0.133 A 
HETATM   24  N   UNL     1      42.850 -17.389   2.629  1.00  0.00    -0.233 NA
HETATM   25  C   UNL     1      43.533 -18.499   3.170  1.00  0.00     0.076 A 
HETATM   26  C   UNL     1      44.020 -18.515   4.484  1.00  0.00     0.061 A 
HETATM   27  C   UNL     1      43.741 -19.622   2.369  1.00  0.00     0.056 A 
HETATM   28  C   UNL     1      43.795 -17.313   5.303  1.00  0.00     0.259 A 
HETATM   29  C   UNL     1      44.703 -19.620   4.999  1.00  0.00     0.021 A 
HETATM   30  O   UNL     1      44.247 -17.186   6.432  1.00  0.00    -0.267 OA
HETATM   31  N   UNL     1      43.064 -16.319   4.706  1.00  0.00    -0.309 N 
HETATM   32  H   UNL     1      42.971 -15.478   5.265  1.00  0.00     0.170 HD
HETATM   33  C   UNL     1      44.903 -20.735   4.187  1.00  0.00     0.025 A 
HETATM   34  C   UNL     1      44.421 -20.731   2.877  1.00  0.00     0.036 A 
HETATM   35 CL   UNL     1      44.672 -22.105   1.873  1.00  0.00    -0.084 Cl
ENDBRANCH  22  23
ENDBRANCH   1  22
TORSDOF 8
ENDMDL
