MODEL 1
REMARK VINA RESULT:      -8.6      0.000      0.000
REMARK  6 active torsions:
REMARK  status: ('A' for Active; 'I' for Inactive)
REMARK    1  A    between atoms: C_2  and  C_3 
REMARK    2  A    between atoms: C_5  and  S_6 
REMARK    3  A    between atoms: S_6  and  C_7 
REMARK    4  A    between atoms: C_7  and  C_8 
REMARK       I    between atoms: C_8  and  N_9 
REMARK    5  A    between atoms: N_9  and  C_10 
REMARK    6  A    between atoms: C_13  and  C_14 
ROOT
HETATM    1  C   UNL     1      42.966 -13.688   4.690  1.00  0.00     0.233 C 
HETATM    2  N   UNL     1      42.520 -14.793   5.373  1.00  0.00    -0.305 N 
HETATM    3  O   UNL     1      43.968 -13.640   3.977  1.00  0.00    -0.272 OA
HETATM    4  H   UNL     1      41.693 -14.718   5.949  1.00  0.00     0.171 HD
ENDROOT
BRANCH   1   5
HETATM    5  C   UNL     1      42.104 -12.438   4.836  1.00  0.00     0.184 C 
BRANCH   5   6
HETATM    6  S   UNL     1      40.357 -12.778   5.258  1.00  0.00    -0.100 SA
BRANCH   6   7
HETATM    7  C   UNL     1      39.789 -13.484   3.735  1.00  0.00     0.109 A 
HETATM    8  N   UNL     1      40.176 -14.743   3.439  1.00  0.00    -0.226 NA
HETATM    9  C   UNL     1      39.765 -15.302   2.289  1.00  0.00     0.128 A 
HETATM   10  N   UNL     1      38.994 -14.715   1.374  1.00  0.00    -0.225 NA
HETATM   11  C   UNL     1      38.625 -13.468   1.703  1.00  0.00     0.113 A 
HETATM   12  C   UNL     1      38.962 -12.766   2.851  1.00  0.00     0.042 A 
HETATM   13  S   UNL     1      37.635 -12.589   0.641  1.00  0.00    -0.074 SA
HETATM   14  C   UNL     1      38.353 -11.437   2.831  1.00  0.00    -0.033 A 
HETATM   15  C   UNL     1      37.612 -11.232   1.673  1.00  0.00    -0.012 A 
HETATM   16  C   UNL     1      38.494 -10.408   3.911  1.00  0.00     0.050 C 
HETATM   17  C   UNL     1      36.840 -10.018   1.261  1.00  0.00     0.057 C 
BRANCH   9  18
HETATM   18  C   UNL     1      40.248 -16.696   1.994  1.00  0.00     0.076 C 
HETATM   19  C   UNL     1      41.289 -16.694   0.887  1.00  0.00     0.013 C 
ENDBRANCH   9  18
ENDBRANCH   6   7
ENDBRANCH   5   6
ENDBRANCH   1   5
BRANCH   2  20
HETATM   20  C   UNL     1      43.153 -16.001   5.339  1.00  0.00     0.173 A 
HETATM   21  S   UNL     1      44.137 -16.311   6.696  1.00  0.00    -0.061 SA
HETATM   22  C   UNL     1      44.555 -17.833   6.017  1.00  0.00     0.085 A 
HETATM   23  C   UNL     1      43.909 -18.006   4.805  1.00  0.00     0.076 A 
HETATM   24  N   UNL     1      43.111 -16.934   4.428  1.00  0.00    -0.223 NA
BRANCH  23  25
HETATM   25  C   UNL     1      44.025 -19.184   3.946  1.00  0.00    -0.007 A 
HETATM   26  C   UNL     1      44.666 -20.363   4.362  1.00  0.00     0.017 A 
HETATM   27  C   UNL     1      44.749 -21.468   3.508  1.00  0.00     0.043 A 
HETATM   28  C   UNL     1      44.192 -21.401   2.237  1.00  0.00     0.116 A 
HETATM   29  F   UNL     1      44.273 -22.461   1.424  1.00  0.00    -0.206 F 
HETATM   30  C   UNL     1      43.549 -20.251   1.803  1.00  0.00     0.043 A 
HETATM   31  C   UNL     1      43.464 -19.147   2.656  1.00  0.00     0.017 A 
ENDBRANCH  23  25
ENDBRANCH   2  20
TORSDOF 6
ENDMDL
MODEL 2
REMARK VINA RESULT:      -8.5      3.918      6.023
REMARK  6 active torsions:
REMARK  status: ('A' for Active; 'I' for Inactive)
REMARK    1  A    between atoms: C_2  and  C_3 
REMARK    2  A    between atoms: C_5  and  S_6 
REMARK    3  A    between atoms: S_6  and  C_7 
REMARK    4  A    between atoms: C_7  and  C_8 
REMARK       I    between atoms: C_8  and  N_9 
REMARK    5  A    between atoms: N_9  and  C_10 
REMARK    6  A    between atoms: C_13  and  C_14 
ROOT
HETATM    1  C   UNL     1      41.902 -13.343   5.823  1.00  0.00     0.233 C 
HETATM    2  N   UNL     1      41.658 -14.619   6.267  1.00  0.00    -0.305 N 
HETATM    3  O   UNL     1      42.858 -12.992   5.132  1.00  0.00    -0.272 OA
HETATM    4  H   UNL     1      40.851 -14.796   6.849  1.00  0.00     0.171 HD
ENDROOT
BRANCH   1   5
HETATM    5  C   UNL     1      40.862 -12.302   6.226  1.00  0.00     0.184 C 
BRANCH   5   6
HETATM    6  S   UNL     1      41.545 -10.628   6.502  1.00  0.00    -0.100 SA
BRANCH   6   7
HETATM    7  C   UNL     1      41.998 -10.743   8.212  1.00  0.00     0.109 A 
HETATM    8  N   UNL     1      43.234 -11.197   8.509  1.00  0.00    -0.226 NA
HETATM    9  C   UNL     1      43.603 -11.300   9.796  1.00  0.00     0.128 A 
HETATM   10  N   UNL     1      42.841 -10.997  10.848  1.00  0.00    -0.225 NA
HETATM   11  C   UNL     1      41.623 -10.544  10.515  1.00  0.00     0.113 A 
HETATM   12  C   UNL     1      41.106 -10.378   9.238  1.00  0.00     0.042 A 
HETATM   13  S   UNL     1      40.536 -10.110  11.744  1.00  0.00    -0.074 SA
HETATM   14  C   UNL     1      39.743  -9.857   9.306  1.00  0.00    -0.033 A 
HETATM   15  C   UNL     1      39.329  -9.677  10.621  1.00  0.00    -0.012 A 
HETATM   16  C   UNL     1      38.878  -9.547   8.122  1.00  0.00     0.050 C 
HETATM   17  C   UNL     1      38.014  -9.171  11.125  1.00  0.00     0.057 C 
BRANCH   9  18
HETATM   18  C   UNL     1      44.980 -11.838  10.073  1.00  0.00     0.076 C 
HETATM   19  C   UNL     1      45.849 -11.790   8.827  1.00  0.00     0.013 C 
ENDBRANCH   9  18
ENDBRANCH   6   7
ENDBRANCH   5   6
ENDBRANCH   1   5
BRANCH   2  20
HETATM   20  C   UNL     1      42.470 -15.678   5.982  1.00  0.00     0.173 A 
HETATM   21  S   UNL     1      43.742 -15.899   7.095  1.00  0.00    -0.061 SA
HETATM   22  C   UNL     1      44.272 -17.257   6.184  1.00  0.00     0.085 A 
HETATM   23  C   UNL     1      43.437 -17.456   5.098  1.00  0.00     0.076 A 
HETATM   24  N   UNL     1      42.408 -16.529   4.995  1.00  0.00    -0.223 NA
BRANCH  23  25
HETATM   25  C   UNL     1      43.581 -18.520   4.105  1.00  0.00    -0.007 A 
HETATM   26  C   UNL     1      42.894 -18.508   2.880  1.00  0.00     0.017 A 
HETATM   27  C   UNL     1      43.067 -19.545   1.956  1.00  0.00     0.043 A 
HETATM   28  C   UNL     1      43.926 -20.596   2.252  1.00  0.00     0.116 A 
HETATM   29  F   UNL     1      44.088 -21.585   1.366  1.00  0.00    -0.206 F 
HETATM   30  C   UNL     1      44.620 -20.630   3.453  1.00  0.00     0.043 A 
HETATM   31  C   UNL     1      44.449 -19.594   4.375  1.00  0.00     0.017 A 
ENDBRANCH  23  25
ENDBRANCH   2  20
TORSDOF 6
ENDMDL
MODEL 3
REMARK VINA RESULT:      -8.5      2.394      2.520
REMARK  6 active torsions:
REMARK  status: ('A' for Active; 'I' for Inactive)
REMARK    1  A    between atoms: C_2  and  C_3 
REMARK    2  A    between atoms: C_5  and  S_6 
REMARK    3  A    between atoms: S_6  and  C_7 
REMARK    4  A    between atoms: C_7  and  C_8 
REMARK       I    between atoms: C_8  and  N_9 
REMARK    5  A    between atoms: N_9  and  C_10 
REMARK    6  A    between atoms: C_13  and  C_14 
ROOT
HETATM    1  C   UNL     1      42.860 -13.466   4.125  1.00  0.00     0.233 C 
HETATM    2  N   UNL     1      42.313 -14.519   4.816  1.00  0.00    -0.305 N 
HETATM    3  O   UNL     1      43.951 -13.470   3.555  1.00  0.00    -0.272 OA
HETATM    4  H   UNL     1      41.416 -14.402   5.268  1.00  0.00     0.171 HD
ENDROOT
BRANCH   1   5
HETATM    5  C   UNL     1      42.001 -12.207   4.066  1.00  0.00     0.184 C 
BRANCH   5   6
HETATM    6  S   UNL     1      40.398 -12.434   3.214  1.00  0.00    -0.100 SA
BRANCH   6   7
HETATM    7  C   UNL     1      40.930 -13.275   1.748  1.00  0.00     0.109 A 
HETATM    8  N   UNL     1      40.881 -14.624   1.740  1.00  0.00    -0.226 NA
HETATM    9  C   UNL     1      41.282 -15.289   0.645  1.00  0.00     0.128 A 
HETATM   10  N   UNL     1      41.748 -14.732  -0.473  1.00  0.00    -0.225 NA
HETATM   11  C   UNL     1      41.777 -13.391  -0.433  1.00  0.00     0.113 A 
HETATM   12  C   UNL     1      41.390 -12.572   0.619  1.00  0.00     0.042 A 
HETATM   13  S   UNL     1      42.339 -12.533  -1.784  1.00  0.00    -0.074 SA
HETATM   14  C   UNL     1      41.573 -11.167   0.261  1.00  0.00    -0.033 A 
HETATM   15  C   UNL     1      42.088 -11.028  -1.022  1.00  0.00    -0.012 A 
HETATM   16  C   UNL     1      41.252 -10.003   1.149  1.00  0.00     0.050 C 
HETATM   17  C   UNL     1      42.423  -9.773  -1.764  1.00  0.00     0.057 C 
BRANCH   9  18
HETATM   18  C   UNL     1      41.236 -16.792   0.700  1.00  0.00     0.076 C 
HETATM   19  C   UNL     1      40.364 -17.273   1.848  1.00  0.00     0.013 C 
ENDBRANCH   9  18
ENDBRANCH   6   7
ENDBRANCH   5   6
ENDBRANCH   1   5
BRANCH   2  20
HETATM   20  C   UNL     1      42.931 -15.727   4.952  1.00  0.00     0.173 A 
HETATM   21  S   UNL     1      43.722 -15.941   6.447  1.00  0.00    -0.061 SA
HETATM   22  C   UNL     1      44.209 -17.509   5.939  1.00  0.00     0.085 A 
HETATM   23  C   UNL     1      43.727 -17.768   4.668  1.00  0.00     0.076 A 
HETATM   24  N   UNL     1      42.999 -16.724   4.113  1.00  0.00    -0.223 NA
BRANCH  23  25
HETATM   25  C   UNL     1      43.942 -19.005   3.917  1.00  0.00    -0.007 A 
HETATM   26  C   UNL     1      44.609 -20.114   4.464  1.00  0.00     0.017 A 
HETATM   27  C   UNL     1      44.788 -21.280   3.711  1.00  0.00     0.043 A 
HETATM   28  C   UNL     1      44.300 -21.343   2.412  1.00  0.00     0.116 A 
HETATM   29  F   UNL     1      44.473 -22.460   1.696  1.00  0.00    -0.206 F 
HETATM   30  C   UNL     1      43.634 -20.264   1.849  1.00  0.00     0.043 A 
HETATM   31  C   UNL     1      43.454 -19.099   2.602  1.00  0.00     0.017 A 
ENDBRANCH  23  25
ENDBRANCH   2  20
TORSDOF 6
ENDMDL
MODEL 4
REMARK VINA RESULT:      -8.5      1.870      2.199
REMARK  6 active torsions:
REMARK  status: ('A' for Active; 'I' for Inactive)
REMARK    1  A    between atoms: C_2  and  C_3 
REMARK    2  A    between atoms: C_5  and  S_6 
REMARK    3  A    between atoms: S_6  and  C_7 
REMARK    4  A    between atoms: C_7  and  C_8 
REMARK       I    between atoms: C_8  and  N_9 
REMARK    5  A    between atoms: N_9  and  C_10 
REMARK    6  A    between atoms: C_13  and  C_14 
ROOT
HETATM    1  C   UNL     1      41.342 -14.969   6.014  1.00  0.00     0.233 C 
HETATM    2  N   UNL     1      42.656 -15.286   6.253  1.00  0.00    -0.305 N 
HETATM    3  O   UNL     1      40.416 -15.774   5.904  1.00  0.00    -0.272 OA
HETATM    4  H   UNL     1      43.342 -14.547   6.305  1.00  0.00     0.171 HD
ENDROOT
BRANCH   1   5
HETATM    5  C   UNL     1      41.040 -13.478   5.903  1.00  0.00     0.184 C 
BRANCH   5   6
HETATM    6  S   UNL     1      42.020 -12.609   4.627  1.00  0.00    -0.100 SA
BRANCH   6   7
HETATM    7  C   UNL     1      41.830 -13.722   3.261  1.00  0.00     0.109 A 
HETATM    8  N   UNL     1      42.786 -14.656   3.068  1.00  0.00    -0.226 NA
HETATM    9  C   UNL     1      42.671 -15.510   2.039  1.00  0.00     0.128 A 
HETATM   10  N   UNL     1      41.678 -15.524   1.150  1.00  0.00    -0.225 NA
HETATM   11  C   UNL     1      40.743 -14.587   1.375  1.00  0.00     0.113 A 
HETATM   12  C   UNL     1      40.723 -13.647   2.395  1.00  0.00     0.042 A 
HETATM   13  S   UNL     1      39.409 -14.481   0.333  1.00  0.00    -0.074 SA
HETATM   14  C   UNL     1      39.528 -12.812   2.291  1.00  0.00    -0.033 A 
HETATM   15  C   UNL     1      38.744 -13.174   1.202  1.00  0.00    -0.012 A 
HETATM   16  C   UNL     1      39.171 -11.698   3.228  1.00  0.00     0.050 C 
HETATM   17  C   UNL     1      37.452 -12.577   0.742  1.00  0.00     0.057 C 
BRANCH   9  18
HETATM   18  C   UNL     1      43.779 -16.511   1.853  1.00  0.00     0.076 C 
HETATM   19  C   UNL     1      43.350 -17.638   0.928  1.00  0.00     0.013 C 
ENDBRANCH   9  18
ENDBRANCH   6   7
ENDBRANCH   5   6
ENDBRANCH   1   5
BRANCH   2  20
HETATM   20  C   UNL     1      43.102 -16.567   6.403  1.00  0.00     0.173 A 
HETATM   21  S   UNL     1      43.373 -17.025   8.022  1.00  0.00    -0.061 SA
HETATM   22  C   UNL     1      43.863 -18.579   7.476  1.00  0.00     0.085 A 
HETATM   23  C   UNL     1      43.777 -18.647   6.097  1.00  0.00     0.076 A 
HETATM   24  N   UNL     1      43.344 -17.474   5.496  1.00  0.00    -0.223 NA
BRANCH  23  25
HETATM   25  C   UNL     1      44.112 -19.818   5.286  1.00  0.00    -0.007 A 
HETATM   26  C   UNL     1      44.382 -21.076   5.850  1.00  0.00     0.017 A 
HETATM   27  C   UNL     1      44.693 -22.170   5.035  1.00  0.00     0.043 A 
HETATM   28  C   UNL     1      44.733 -22.012   3.655  1.00  0.00     0.116 A 
HETATM   29  F   UNL     1      45.030 -23.062   2.879  1.00  0.00    -0.206 F 
HETATM   30  C   UNL     1      44.466 -20.782   3.072  1.00  0.00     0.043 A 
HETATM   31  C   UNL     1      44.155 -19.689   3.886  1.00  0.00     0.017 A 
ENDBRANCH  23  25
ENDBRANCH   2  20
TORSDOF 6
ENDMDL
MODEL 5
REMARK VINA RESULT:      -8.4      3.572      4.527
REMARK  6 active torsions:
REMARK  status: ('A' for Active; 'I' for Inactive)
REMARK    1  A    between atoms: C_2  and  C_3 
REMARK    2  A    between atoms: C_5  and  S_6 
REMARK    3  A    between atoms: S_6  and  C_7 
REMARK    4  A    between atoms: C_7  and  C_8 
REMARK       I    between atoms: C_8  and  N_9 
REMARK    5  A    between atoms: N_9  and  C_10 
REMARK    6  A    between atoms: C_13  and  C_14 
ROOT
HETATM    1  C   UNL     1      39.434 -15.173   1.943  1.00  0.00     0.233 C 
HETATM    2  N   UNL     1      40.250 -15.941   1.150  1.00  0.00    -0.305 N 
HETATM    3  O   UNL     1      39.608 -14.937   3.139  1.00  0.00    -0.272 OA
HETATM    4  H   UNL     1      40.003 -16.088   0.181  1.00  0.00     0.171 HD
ENDROOT
BRANCH   1   5
HETATM    5  C   UNL     1      38.227 -14.560   1.239  1.00  0.00     0.184 C 
BRANCH   5   6
HETATM    6  S   UNL     1      38.477 -12.833   0.693  1.00  0.00    -0.100 SA
BRANCH   6   7
HETATM    7  C   UNL     1      39.113 -13.099  -0.939  1.00  0.00     0.109 A 
HETATM    8  N   UNL     1      38.429 -13.929  -1.756  1.00  0.00    -0.226 NA
HETATM    9  C   UNL     1      38.890 -14.154  -2.997  1.00  0.00     0.128 A 
HETATM   10  N   UNL     1      39.999 -13.630  -3.519  1.00  0.00    -0.225 NA
HETATM   11  C   UNL     1      40.650 -12.808  -2.682  1.00  0.00     0.113 A 
HETATM   12  C   UNL     1      40.293 -12.474  -1.383  1.00  0.00     0.042 A 
HETATM   13  S   UNL     1      42.079 -12.056  -3.203  1.00  0.00    -0.074 SA
HETATM   14  C   UNL     1      41.265 -11.543  -0.813  1.00  0.00    -0.033 A 
HETATM   15  C   UNL     1      42.282 -11.250  -1.714  1.00  0.00    -0.012 A 
HETATM   16  C   UNL     1      41.196 -10.963   0.567  1.00  0.00     0.050 C 
HETATM   17  C   UNL     1      43.464 -10.352  -1.528  1.00  0.00     0.057 C 
BRANCH   9  18
HETATM   18  C   UNL     1      38.107 -15.109  -3.856  1.00  0.00     0.076 C 
HETATM   19  C   UNL     1      38.947 -16.315  -4.243  1.00  0.00     0.013 C 
ENDBRANCH   9  18
ENDBRANCH   6   7
ENDBRANCH   5   6
ENDBRANCH   1   5
BRANCH   2  20
HETATM   20  C   UNL     1      41.384 -16.546   1.607  1.00  0.00     0.173 A 
HETATM   21  S   UNL     1      42.636 -15.464   2.015  1.00  0.00    -0.061 SA
HETATM   22  C   UNL     1      43.619 -16.803   2.455  1.00  0.00     0.085 A 
HETATM   23  C   UNL     1      42.923 -17.985   2.270  1.00  0.00     0.076 A 
HETATM   24  N   UNL     1      41.638 -17.816   1.772  1.00  0.00    -0.223 NA
BRANCH  23  25
HETATM   25  C   UNL     1      43.443 -19.324   2.543  1.00  0.00    -0.007 A 
HETATM   26  C   UNL     1      43.215 -20.413   1.685  1.00  0.00     0.017 A 
HETATM   27  C   UNL     1      43.737 -21.677   1.983  1.00  0.00     0.043 A 
HETATM   28  C   UNL     1      44.491 -21.856   3.136  1.00  0.00     0.116 A 
HETATM   29  F   UNL     1      44.989 -23.067   3.416  1.00  0.00    -0.206 F 
HETATM   30  C   UNL     1      44.736 -20.797   3.998  1.00  0.00     0.043 A 
HETATM   31  C   UNL     1      44.215 -19.535   3.700  1.00  0.00     0.017 A 
ENDBRANCH  23  25
ENDBRANCH   2  20
TORSDOF 6
ENDMDL
MODEL 6
REMARK VINA RESULT:      -8.1      5.983      9.327
REMARK  6 active torsions:
REMARK  status: ('A' for Active; 'I' for Inactive)
REMARK    1  A    between atoms: C_2  and  C_3 
REMARK    2  A    between atoms: C_5  and  S_6 
REMARK    3  A    between atoms: S_6  and  C_7 
REMARK    4  A    between atoms: C_7  and  C_8 
REMARK       I    between atoms: C_8  and  N_9 
REMARK    5  A    between atoms: N_9  and  C_10 
REMARK    6  A    between atoms: C_13  and  C_14 
ROOT
HETATM    1  C   UNL     1      43.985 -14.161   7.322  1.00  0.00     0.233 C 
HETATM    2  N   UNL     1      43.829 -12.814   7.533  1.00  0.00    -0.305 N 
HETATM    3  O   UNL     1      44.404 -14.975   8.145  1.00  0.00    -0.272 OA
HETATM    4  H   UNL     1      43.496 -12.229   6.779  1.00  0.00     0.171 HD
ENDROOT
BRANCH   1   5
HETATM    5  C   UNL     1      43.573 -14.657   5.939  1.00  0.00     0.184 C 
BRANCH   5   6
HETATM    6  S   UNL     1      42.054 -15.676   5.932  1.00  0.00    -0.100 SA
BRANCH   6   7
HETATM    7  C   UNL     1      42.133 -16.359   4.299  1.00  0.00     0.109 A 
HETATM    8  N   UNL     1      41.444 -15.737   3.319  1.00  0.00    -0.226 NA
HETATM    9  C   UNL     1      41.481 -16.234   2.073  1.00  0.00     0.128 A 
HETATM   10  N   UNL     1      42.146 -17.325   1.693  1.00  0.00    -0.225 NA
HETATM   11  C   UNL     1      42.823 -17.915   2.690  1.00  0.00     0.113 A 
HETATM   12  C   UNL     1      42.886 -17.515   4.017  1.00  0.00     0.042 A 
HETATM   13  S   UNL     1      43.727 -19.314   2.364  1.00  0.00    -0.074 SA
HETATM   14  C   UNL     1      43.736 -18.425   4.782  1.00  0.00    -0.033 A 
HETATM   15  C   UNL     1      44.243 -19.443   3.983  1.00  0.00    -0.012 A 
HETATM   16  C   UNL     1      44.039 -18.297   6.244  1.00  0.00     0.050 C 
HETATM   17  C   UNL     1      45.143 -20.573   4.371  1.00  0.00     0.057 C 
BRANCH   9  18
HETATM   18  C   UNL     1      40.671 -15.519   1.025  1.00  0.00     0.076 C 
HETATM   19  C   UNL     1      41.366 -15.557  -0.326  1.00  0.00     0.013 C 
ENDBRANCH   9  18
ENDBRANCH   6   7
ENDBRANCH   5   6
ENDBRANCH   1   5
BRANCH   2  20
HETATM   20  C   UNL     1      44.127 -12.202   8.716  1.00  0.00     0.173 A 
HETATM   21  S   UNL     1      45.780 -11.840   8.917  1.00  0.00    -0.061 SA
HETATM   22  C   UNL     1      45.422 -11.166  10.457  1.00  0.00     0.085 A 
HETATM   23  C   UNL     1      44.064 -11.253  10.709  1.00  0.00     0.076 A 
HETATM   24  N   UNL     1      43.335 -11.862   9.696  1.00  0.00    -0.223 NA
BRANCH  23  25
HETATM   25  C   UNL     1      43.397 -10.778  11.922  1.00  0.00    -0.007 A 
HETATM   26  C   UNL     1      43.906  -9.725  12.700  1.00  0.00     0.017 A 
HETATM   27  C   UNL     1      43.231  -9.300  13.850  1.00  0.00     0.043 A 
HETATM   28  C   UNL     1      42.047  -9.923  14.225  1.00  0.00     0.116 A 
HETATM   29  F   UNL     1      41.405  -9.511  15.325  1.00  0.00    -0.206 F 
HETATM   30  C   UNL     1      41.521 -10.962  13.471  1.00  0.00     0.043 A 
HETATM   31  C   UNL     1      42.194 -11.386  12.322  1.00  0.00     0.017 A 
ENDBRANCH  23  25
ENDBRANCH   2  20
TORSDOF 6
ENDMDL
MODEL 7
REMARK VINA RESULT:      -8.1      4.649      6.900
REMARK  6 active torsions:
REMARK  status: ('A' for Active; 'I' for Inactive)
REMARK    1  A    between atoms: C_2  and  C_3 
REMARK    2  A    between atoms: C_5  and  S_6 
REMARK    3  A    between atoms: S_6  and  C_7 
REMARK    4  A    between atoms: C_7  and  C_8 
REMARK       I    between atoms: C_8  and  N_9 
REMARK    5  A    between atoms: N_9  and  C_10 
REMARK    6  A    between atoms: C_13  and  C_14 
ROOT
HETATM    1  C   UNL     1      44.593 -13.930   7.646  1.00  0.00     0.233 C 
HETATM    2  N   UNL     1      43.558 -14.783   7.355  1.00  0.00    -0.305 N 
HETATM    3  O   UNL     1      45.545 -13.676   6.908  1.00  0.00    -0.272 OA
HETATM    4  H   UNL     1      42.834 -14.937   8.043  1.00  0.00     0.171 HD
ENDROOT
BRANCH   1   5
HETATM    5  C   UNL     1      44.509 -13.241   9.004  1.00  0.00     0.184 C 
BRANCH   5   6
HETATM    6  S   UNL     1      45.002 -11.480   8.982  1.00  0.00    -0.100 SA
BRANCH   6   7
HETATM    7  C   UNL     1      43.749 -10.782  10.024  1.00  0.00     0.109 A 
HETATM    8  N   UNL     1      44.084 -10.473  11.295  1.00  0.00    -0.226 NA
HETATM    9  C   UNL     1      43.155  -9.947  12.109  1.00  0.00     0.128 A 
HETATM   10  N   UNL     1      41.887  -9.700  11.780  1.00  0.00    -0.225 NA
HETATM   11  C   UNL     1      41.590 -10.015  10.510  1.00  0.00     0.113 A 
HETATM   12  C   UNL     1      42.442 -10.553   9.556  1.00  0.00     0.042 A 
HETATM   13  S   UNL     1      40.015  -9.752   9.937  1.00  0.00    -0.074 SA
HETATM   14  C   UNL     1      41.732 -10.744   8.293  1.00  0.00    -0.033 A 
HETATM   15  C   UNL     1      40.404 -10.346   8.387  1.00  0.00    -0.012 A 
HETATM   16  C   UNL     1      42.338 -11.298   7.038  1.00  0.00     0.050 C 
HETATM   17  C   UNL     1      39.343 -10.378   7.333  1.00  0.00     0.057 C 
BRANCH   9  18
HETATM   18  C   UNL     1      43.573  -9.648  13.523  1.00  0.00     0.076 C 
HETATM   19  C   UNL     1      42.441  -9.920  14.500  1.00  0.00     0.013 C 
ENDBRANCH   9  18
ENDBRANCH   6   7
ENDBRANCH   5   6
ENDBRANCH   1   5
BRANCH   2  20
HETATM   20  C   UNL     1      43.459 -15.466   6.178  1.00  0.00     0.173 A 
HETATM   21  S   UNL     1      42.777 -14.563   4.903  1.00  0.00    -0.061 SA
HETATM   22  C   UNL     1      42.957 -15.926   3.872  1.00  0.00     0.085 A 
HETATM   23  C   UNL     1      43.534 -16.975   4.566  1.00  0.00     0.076 A 
HETATM   24  N   UNL     1      43.809 -16.692   5.897  1.00  0.00    -0.223 NA
BRANCH  23  25
HETATM   25  C   UNL     1      43.840 -18.292   4.008  1.00  0.00    -0.007 A 
HETATM   26  C   UNL     1      43.465 -18.667   2.708  1.00  0.00     0.017 A 
HETATM   27  C   UNL     1      43.783 -19.937   2.212  1.00  0.00     0.043 A 
HETATM   28  C   UNL     1      44.480 -20.834   3.013  1.00  0.00     0.116 A 
HETATM   29  F   UNL     1      44.783 -22.046   2.535  1.00  0.00    -0.206 F 
HETATM   30  C   UNL     1      44.867 -20.487   4.299  1.00  0.00     0.043 A 
HETATM   31  C   UNL     1      44.550 -19.218   4.794  1.00  0.00     0.017 A 
ENDBRANCH  23  25
ENDBRANCH   2  20
TORSDOF 6
ENDMDL
MODEL 8
REMARK VINA RESULT:      -8.1      4.348      6.421
REMARK  6 active torsions:
REMARK  status: ('A' for Active; 'I' for Inactive)
REMARK    1  A    between atoms: C_2  and  C_3 
REMARK    2  A    between atoms: C_5  and  S_6 
REMARK    3  A    between atoms: S_6  and  C_7 
REMARK    4  A    between atoms: C_7  and  C_8 
REMARK       I    between atoms: C_8  and  N_9 
REMARK    5  A    between atoms: N_9  and  C_10 
REMARK    6  A    between atoms: C_13  and  C_14 
ROOT
HETATM    1  C   UNL     1      44.649 -13.877   7.568  1.00  0.00     0.233 C 
HETATM    2  N   UNL     1      43.599 -14.720   7.301  1.00  0.00    -0.305 N 
HETATM    3  O   UNL     1      45.569 -13.606   6.794  1.00  0.00    -0.272 OA
HETATM    4  H   UNL     1      42.907 -14.890   8.017  1.00  0.00     0.171 HD
ENDROOT
BRANCH   1   5
HETATM    5  C   UNL     1      44.628 -13.222   8.945  1.00  0.00     0.184 C 
BRANCH   5   6
HETATM    6  S   UNL     1      44.635 -11.393   8.905  1.00  0.00    -0.100 SA
BRANCH   6   7
HETATM    7  C   UNL     1      42.894 -11.064   8.963  1.00  0.00     0.109 A 
HETATM    8  N   UNL     1      42.210 -11.076   7.799  1.00  0.00    -0.226 NA
HETATM    9  C   UNL     1      40.891 -10.825   7.811  1.00  0.00     0.128 A 
HETATM   10  N   UNL     1      40.165 -10.546   8.894  1.00  0.00    -0.225 NA
HETATM   11  C   UNL     1      40.875 -10.548  10.032  1.00  0.00     0.113 A 
HETATM   12  C   UNL     1      42.233 -10.795  10.176  1.00  0.00     0.042 A 
HETATM   13  S   UNL     1      40.091 -10.216  11.500  1.00  0.00    -0.074 SA
HETATM   14  C   UNL     1      42.619 -10.706  11.583  1.00  0.00    -0.033 A 
HETATM   15  C   UNL     1      41.533 -10.392  12.392  1.00  0.00    -0.012 A 
HETATM   16  C   UNL     1      44.004 -10.923  12.113  1.00  0.00     0.050 C 
HETATM   17  C   UNL     1      41.497 -10.205  13.876  1.00  0.00     0.057 C 
BRANCH   9  18
HETATM   18  C   UNL     1      40.182 -10.822   6.484  1.00  0.00     0.076 C 
HETATM   19  C   UNL     1      39.683 -12.212   6.125  1.00  0.00     0.013 C 
ENDBRANCH   9  18
ENDBRANCH   6   7
ENDBRANCH   5   6
ENDBRANCH   1   5
BRANCH   2  20
HETATM   20  C   UNL     1      43.446 -15.373   6.113  1.00  0.00     0.173 A 
HETATM   21  S   UNL     1      42.697 -14.442   4.898  1.00  0.00    -0.061 SA
HETATM   22  C   UNL     1      42.833 -15.776   3.824  1.00  0.00     0.085 A 
HETATM   23  C   UNL     1      43.449 -16.839   4.461  1.00  0.00     0.076 A 
HETATM   24  N   UNL     1      43.788 -16.589   5.784  1.00  0.00    -0.223 NA
BRANCH  23  25
HETATM   25  C   UNL     1      43.734 -18.139   3.854  1.00  0.00    -0.007 A 
HETATM   26  C   UNL     1      43.297 -18.483   2.565  1.00  0.00     0.017 A 
HETATM   27  C   UNL     1      43.597 -19.737   2.021  1.00  0.00     0.043 A 
HETATM   28  C   UNL     1      44.337 -20.650   2.763  1.00  0.00     0.116 A 
HETATM   29  F   UNL     1      44.622 -21.848   2.239  1.00  0.00    -0.206 F 
HETATM   30  C   UNL     1      44.785 -20.334   4.037  1.00  0.00     0.043 A 
HETATM   31  C   UNL     1      44.486 -19.081   4.579  1.00  0.00     0.017 A 
ENDBRANCH  23  25
ENDBRANCH   2  20
TORSDOF 6
ENDMDL
MODEL 9
REMARK VINA RESULT:      -7.9      4.814      9.385
REMARK  6 active torsions:
REMARK  status: ('A' for Active; 'I' for Inactive)
REMARK    1  A    between atoms: C_2  and  C_3 
REMARK    2  A    between atoms: C_5  and  S_6 
REMARK    3  A    between atoms: S_6  and  C_7 
REMARK    4  A    between atoms: C_7  and  C_8 
REMARK       I    between atoms: C_8  and  N_9 
REMARK    5  A    between atoms: N_9  and  C_10 
REMARK    6  A    between atoms: C_13  and  C_14 
ROOT
HETATM    1  C   UNL     1      41.783 -15.124   0.055  1.00  0.00     0.233 C 
HETATM    2  N   UNL     1      41.382 -15.526  -1.195  1.00  0.00    -0.305 N 
HETATM    3  O   UNL     1      41.589 -14.014   0.550  1.00  0.00    -0.272 OA
HETATM    4  H   UNL     1      41.611 -16.457  -1.514  1.00  0.00     0.171 HD
ENDROOT
BRANCH   1   5
HETATM    5  C   UNL     1      42.512 -16.182   0.878  1.00  0.00     0.184 C 
BRANCH   5   6
HETATM    6  S   UNL     1      41.405 -17.292   1.819  1.00  0.00    -0.100 SA
BRANCH   6   7
HETATM    7  C   UNL     1      42.598 -18.298   2.659  1.00  0.00     0.109 A 
HETATM    8  N   UNL     1      42.959 -19.465   2.083  1.00  0.00    -0.226 NA
HETATM    9  C   UNL     1      43.857 -20.250   2.699  1.00  0.00     0.128 A 
HETATM   10  N   UNL     1      44.442 -19.990   3.868  1.00  0.00    -0.225 NA
HETATM   11  C   UNL     1      44.064 -18.821   4.409  1.00  0.00     0.113 A 
HETATM   12  C   UNL     1      43.159 -17.907   3.889  1.00  0.00     0.042 A 
HETATM   13  S   UNL     1      44.727 -18.344   5.897  1.00  0.00    -0.074 SA
HETATM   14  C   UNL     1      43.028 -16.758   4.783  1.00  0.00    -0.033 A 
HETATM   15  C   UNL     1      43.833 -16.892   5.909  1.00  0.00    -0.012 A 
HETATM   16  C   UNL     1      42.145 -15.572   4.540  1.00  0.00     0.050 C 
HETATM   17  C   UNL     1      43.991 -15.951   7.061  1.00  0.00     0.057 C 
BRANCH   9  18
HETATM   18  C   UNL     1      44.202 -21.552   2.029  1.00  0.00     0.076 C 
HETATM   19  C   UNL     1      44.669 -22.584   3.042  1.00  0.00     0.013 C 
ENDBRANCH   9  18
ENDBRANCH   6   7
ENDBRANCH   5   6
ENDBRANCH   1   5
BRANCH   2  20
HETATM   20  C   UNL     1      40.698 -14.719  -2.057  1.00  0.00     0.173 A 
HETATM   21  S   UNL     1      41.680 -13.608  -2.897  1.00  0.00    -0.061 SA
HETATM   22  C   UNL     1      40.281 -13.010  -3.696  1.00  0.00     0.085 A 
HETATM   23  C   UNL     1      39.161 -13.705  -3.275  1.00  0.00     0.076 A 
HETATM   24  N   UNL     1      39.421 -14.681  -2.324  1.00  0.00    -0.223 NA
BRANCH  23  25
HETATM   25  C   UNL     1      37.795 -13.469  -3.743  1.00  0.00    -0.007 A 
HETATM   26  C   UNL     1      36.982 -14.497  -4.251  1.00  0.00     0.017 A 
HETATM   27  C   UNL     1      35.679 -14.227  -4.682  1.00  0.00     0.043 A 
HETATM   28  C   UNL     1      35.182 -12.931  -4.607  1.00  0.00     0.116 A 
HETATM   29  F   UNL     1      33.935 -12.678  -5.020  1.00  0.00    -0.206 F 
HETATM   30  C   UNL     1      35.962 -11.899  -4.105  1.00  0.00     0.043 A 
HETATM   31  C   UNL     1      37.263 -12.169  -3.673  1.00  0.00     0.017 A 
ENDBRANCH  23  25
ENDBRANCH   2  20
TORSDOF 6
ENDMDL
MODEL 10
REMARK VINA RESULT:      -7.8      4.970      9.623
REMARK  6 active torsions:
REMARK  status: ('A' for Active; 'I' for Inactive)
REMARK    1  A    between atoms: C_2  and  C_3 
REMARK    2  A    between atoms: C_5  and  S_6 
REMARK    3  A    between atoms: S_6  and  C_7 
REMARK    4  A    between atoms: C_7  and  C_8 
REMARK       I    between atoms: C_8  and  N_9 
REMARK    5  A    between atoms: N_9  and  C_10 
REMARK    6  A    between atoms: C_13  and  C_14 
ROOT
HETATM    1  C   UNL     1      41.059 -15.947   0.425  1.00  0.00     0.233 C 
HETATM    2  N   UNL     1      41.628 -15.904  -0.823  1.00  0.00    -0.305 N 
HETATM    3  O   UNL     1      40.300 -15.102   0.899  1.00  0.00    -0.272 OA
HETATM    4  H   UNL     1      42.257 -16.642  -1.107  1.00  0.00     0.171 HD
ENDROOT
BRANCH   1   5
HETATM    5  C   UNL     1      41.406 -17.176   1.259  1.00  0.00     0.184 C 
BRANCH   5   6
HETATM    6  S   UNL     1      43.200 -17.505   1.397  1.00  0.00    -0.100 SA
BRANCH   6   7
HETATM    7  C   UNL     1      43.425 -17.334   3.147  1.00  0.00     0.109 A 
HETATM    8  N   UNL     1      43.185 -16.125   3.699  1.00  0.00    -0.226 NA
HETATM    9  C   UNL     1      43.351 -15.964   5.021  1.00  0.00     0.128 A 
HETATM   10  N   UNL     1      43.753 -16.908   5.873  1.00  0.00    -0.225 NA
HETATM   11  C   UNL     1      43.977 -18.096   5.291  1.00  0.00     0.113 A 
HETATM   12  C   UNL     1      43.840 -18.414   3.948  1.00  0.00     0.042 A 
HETATM   13  S   UNL     1      44.487 -19.403   6.245  1.00  0.00    -0.074 SA
HETATM   14  C   UNL     1      44.176 -19.818   3.721  1.00  0.00    -0.033 A 
HETATM   15  C   UNL     1      44.547 -20.452   4.902  1.00  0.00    -0.012 A 
HETATM   16  C   UNL     1      44.134 -20.512   2.394  1.00  0.00     0.050 C 
HETATM   17  C   UNL     1      44.964 -21.873   5.107  1.00  0.00     0.057 C 
BRANCH   9  18
HETATM   18  C   UNL     1      43.099 -14.591   5.582  1.00  0.00     0.076 C 
HETATM   19  C   UNL     1      44.220 -14.163   6.513  1.00  0.00     0.013 C 
ENDBRANCH   9  18
ENDBRANCH   6   7
ENDBRANCH   5   6
ENDBRANCH   1   5
BRANCH   2  20
HETATM   20  C   UNL     1      41.410 -14.891  -1.711  1.00  0.00     0.173 A 
HETATM   21  S   UNL     1      40.371 -15.303  -2.998  1.00  0.00    -0.061 SA
HETATM   22  C   UNL     1      40.554 -13.714  -3.625  1.00  0.00     0.085 A 
HETATM   23  C   UNL     1      41.387 -12.972  -2.805  1.00  0.00     0.076 A 
HETATM   24  N   UNL     1      41.877 -13.672  -1.710  1.00  0.00    -0.223 NA
BRANCH  23  25
HETATM   25  C   UNL     1      41.766 -11.577  -3.025  1.00  0.00    -0.007 A 
HETATM   26  C   UNL     1      42.740 -10.927  -2.250  1.00  0.00     0.017 A 
HETATM   27  C   UNL     1      43.076  -9.592  -2.500  1.00  0.00     0.043 A 
HETATM   28  C   UNL     1      42.441  -8.902  -3.525  1.00  0.00     0.116 A 
HETATM   29  F   UNL     1      42.766  -7.625  -3.761  1.00  0.00    -0.206 F 
HETATM   30  C   UNL     1      41.479  -9.521  -4.310  1.00  0.00     0.043 A 
HETATM   31  C   UNL     1      41.144 -10.855  -4.061  1.00  0.00     0.017 A 
ENDBRANCH  23  25
ENDBRANCH   2  20
TORSDOF 6
ENDMDL
