MODEL 1
REMARK VINA RESULT:      -8.9      0.000      0.000
REMARK  7 active torsions:
REMARK  status: ('A' for Active; 'I' for Inactive)
REMARK       I    between atoms: C_2  and  N_3 
REMARK    1  A    between atoms: N_3  and  C_4 
REMARK    2  A    between atoms: N_9  and  C_10 
REMARK    3  A    between atoms: C_10  and  C_11 
REMARK    4  A    between atoms: C_11  and  C_12 
REMARK    5  A    between atoms: C_12  and  O_13 
REMARK    6  A    between atoms: O_13  and  C_14 
REMARK    7  A    between atoms: C_17  and  C_18 
REMARK       I    between atoms: N_30  and  C_31 
ROOT
HETATM    1  C   UNL     1      40.497 -14.314   2.315  1.00  0.00     0.191 C 
HETATM    2  S   UNL     1      40.517 -14.164   4.042  1.00  0.00    -0.042 SA
HETATM    3  C   UNL     1      42.065 -15.156   4.048  1.00  0.00     0.224 A 
HETATM    4  C   UNL     1      43.246 -14.181   4.320  1.00  0.00     0.271 A 
HETATM    5  O   UNL     1      43.614 -13.285   3.572  1.00  0.00    -0.269 OA
HETATM    6  N   UNL     1      43.770 -14.515   5.584  1.00  0.00    -0.314 N 
HETATM    7  C   UNL     1      43.132 -15.667   6.089  1.00  0.00     0.047 A 
HETATM    8  C   UNL     1      42.123 -16.094   5.215  1.00  0.00     0.019 A 
HETATM    9  C   UNL     1      43.405 -16.356   7.257  1.00  0.00     0.030 A 
HETATM   10  C   UNL     1      42.644 -17.493   7.544  1.00  0.00     0.002 A 
HETATM   11  C   UNL     1      41.634 -17.923   6.668  1.00  0.00     0.001 A 
HETATM   12  C   UNL     1      41.365 -17.222   5.492  1.00  0.00     0.013 A 
HETATM   13  N   UNL     1      42.147 -15.710   2.700  1.00  0.00    -0.201 N 
HETATM   14  C   UNL     1      43.176 -16.554   2.317  1.00  0.00     0.238 C 
HETATM   15  C   UNL     1      43.181 -16.956   0.864  1.00  0.00     0.119 C 
HETATM   16  O   UNL     1      44.049 -16.953   3.089  1.00  0.00    -0.272 OA
HETATM   17  N   UNL     1      41.313 -15.139   1.753  1.00  0.00    -0.141 NA
ENDROOT
BRANCH   6  18
HETATM   18  C   UNL     1      44.925 -13.914   6.238  1.00  0.00     0.134 C 
BRANCH  18  19
HETATM   19  C   UNL     1      44.653 -13.253   7.585  1.00  0.00     0.047 C 
BRANCH  19  20
HETATM   20  C   UNL     1      45.906 -12.621   8.182  1.00  0.00     0.177 C 
BRANCH  20  21
HETATM   21  O   UNL     1      45.850 -12.842   9.591  1.00  0.00    -0.351 OA
BRANCH  21  22
HETATM   22  C   UNL     1      45.056 -12.020  10.334  1.00  0.00     0.068 A 
HETATM   23  C   UNL     1      44.936 -10.642  10.194  1.00  0.00     0.037 A 
HETATM   24  C   UNL     1      44.086  -9.915  11.043  1.00  0.00     0.011 A 
HETATM   25  C   UNL     1      43.336 -10.546  12.050  1.00  0.00    -0.050 A 
HETATM   26  C   UNL     1      43.468 -11.942  12.164  1.00  0.00     0.011 A 
HETATM   27  C   UNL     1      44.315 -12.664  11.321  1.00  0.00     0.037 A 
BRANCH  25  28
HETATM   28  C   UNL     1      42.403  -9.779  13.001  1.00  0.00    -0.024 C 
HETATM   29  C   UNL     1      43.122  -9.180  14.231  1.00  0.00     0.019 C 
HETATM   30  C   UNL     1      41.740  -8.610  12.242  1.00  0.00     0.019 C 
HETATM   31  C   UNL     1      41.306 -10.727  13.533  1.00  0.00     0.019 C 
ENDBRANCH  25  28
ENDBRANCH  21  22
ENDBRANCH  20  21
ENDBRANCH  19  20
ENDBRANCH  18  19
ENDBRANCH   6  18
BRANCH   1  32
HETATM   32  N   UNL     1      39.572 -13.520   1.702  1.00  0.00    -0.305 N 
HETATM   33  C   UNL     1      39.700 -12.274   1.135  1.00  0.00     0.219 C 
HETATM   34  C   UNL     1      41.023 -11.566   1.226  1.00  0.00     0.117 C 
HETATM   35  O   UNL     1      38.730 -11.767   0.569  1.00  0.00    -0.274 OA
HETATM   36  H   UNL     1      38.633 -13.887   1.655  1.00  0.00     0.171 HD
ENDBRANCH   1  32
TORSDOF 7
ENDMDL
MODEL 2
REMARK VINA RESULT:      -8.7      1.953      2.203
REMARK  7 active torsions:
REMARK  status: ('A' for Active; 'I' for Inactive)
REMARK       I    between atoms: C_2  and  N_3 
REMARK    1  A    between atoms: N_3  and  C_4 
REMARK    2  A    between atoms: N_9  and  C_10 
REMARK    3  A    between atoms: C_10  and  C_11 
REMARK    4  A    between atoms: C_11  and  C_12 
REMARK    5  A    between atoms: C_12  and  O_13 
REMARK    6  A    between atoms: O_13  and  C_14 
REMARK    7  A    between atoms: C_17  and  C_18 
REMARK       I    between atoms: N_30  and  C_31 
ROOT
HETATM    1  C   UNL     1      39.668 -12.617   4.438  1.00  0.00     0.191 C 
HETATM    2  S   UNL     1      39.872 -13.830   5.659  1.00  0.00    -0.042 SA
HETATM    3  C   UNL     1      41.473 -14.268   4.871  1.00  0.00     0.224 A 
HETATM    4  C   UNL     1      42.610 -13.701   5.768  1.00  0.00     0.271 A 
HETATM    5  O   UNL     1      42.831 -12.514   5.969  1.00  0.00    -0.269 OA
HETATM    6  N   UNL     1      43.292 -14.806   6.311  1.00  0.00    -0.314 N 
HETATM    7  C   UNL     1      42.793 -16.007   5.764  1.00  0.00     0.047 A 
HETATM    8  C   UNL     1      41.724 -15.745   4.898  1.00  0.00     0.019 A 
HETATM    9  C   UNL     1      43.241 -17.298   5.979  1.00  0.00     0.030 A 
HETATM   10  C   UNL     1      42.593 -18.339   5.306  1.00  0.00     0.002 A 
HETATM   11  C   UNL     1      41.523 -18.078   4.436  1.00  0.00     0.001 A 
HETATM   12  C   UNL     1      41.078 -16.772   4.225  1.00  0.00     0.013 A 
HETATM   13  N   UNL     1      41.441 -13.588   3.580  1.00  0.00    -0.201 N 
HETATM   14  C   UNL     1      42.474 -13.703   2.665  1.00  0.00     0.238 C 
HETATM   15  C   UNL     1      42.343 -12.856   1.424  1.00  0.00     0.119 C 
HETATM   16  O   UNL     1      43.452 -14.431   2.836  1.00  0.00    -0.272 OA
HETATM   17  N   UNL     1      40.469 -12.611   3.427  1.00  0.00    -0.141 NA
ENDROOT
BRANCH   6  18
HETATM   18  C   UNL     1      44.471 -14.771   7.168  1.00  0.00     0.134 C 
BRANCH  18  19
HETATM   19  C   UNL     1      45.461 -13.645   6.886  1.00  0.00     0.047 C 
BRANCH  19  20
HETATM   20  C   UNL     1      45.704 -12.769   8.110  1.00  0.00     0.177 C 
BRANCH  20  21
HETATM   21  O   UNL     1      44.769 -13.181   9.106  1.00  0.00    -0.351 OA
BRANCH  21  22
HETATM   22  C   UNL     1      44.173 -12.214   9.859  1.00  0.00     0.068 A 
HETATM   23  C   UNL     1      43.514 -11.086   9.381  1.00  0.00     0.037 A 
HETATM   24  C   UNL     1      42.957 -10.159  10.277  1.00  0.00     0.011 A 
HETATM   25  C   UNL     1      43.042 -10.337  11.668  1.00  0.00    -0.050 A 
HETATM   26  C   UNL     1      43.705 -11.490  12.125  1.00  0.00     0.011 A 
HETATM   27  C   UNL     1      44.261 -12.411  11.234  1.00  0.00     0.037 A 
BRANCH  25  28
HETATM   28  C   UNL     1      42.450  -9.337  12.675  1.00  0.00    -0.024 C 
HETATM   29  C   UNL     1      43.269  -9.204  13.978  1.00  0.00     0.019 C 
HETATM   30  C   UNL     1      42.380  -7.936  12.031  1.00  0.00     0.019 C 
HETATM   31  C   UNL     1      41.026  -9.783  13.077  1.00  0.00     0.019 C 
ENDBRANCH  25  28
ENDBRANCH  21  22
ENDBRANCH  20  21
ENDBRANCH  19  20
ENDBRANCH  18  19
ENDBRANCH   6  18
BRANCH   1  32
HETATM   32  N   UNL     1      38.630 -11.763   4.673  1.00  0.00    -0.305 N 
HETATM   33  C   UNL     1      38.571 -10.390   4.614  1.00  0.00     0.219 C 
HETATM   34  C   UNL     1      39.828  -9.621   4.321  1.00  0.00     0.117 C 
HETATM   35  O   UNL     1      37.494  -9.825   4.804  1.00  0.00    -0.274 OA
HETATM   36  H   UNL     1      37.757 -12.190   4.946  1.00  0.00     0.171 HD
ENDBRANCH   1  32
TORSDOF 7
ENDMDL
MODEL 3
REMARK VINA RESULT:      -8.5      4.530      9.520
REMARK  7 active torsions:
REMARK  status: ('A' for Active; 'I' for Inactive)
REMARK       I    between atoms: C_2  and  N_3 
REMARK    1  A    between atoms: N_3  and  C_4 
REMARK    2  A    between atoms: N_9  and  C_10 
REMARK    3  A    between atoms: C_10  and  C_11 
REMARK    4  A    between atoms: C_11  and  C_12 
REMARK    5  A    between atoms: C_12  and  O_13 
REMARK    6  A    between atoms: O_13  and  C_14 
REMARK    7  A    between atoms: C_17  and  C_18 
REMARK       I    between atoms: N_30  and  C_31 
ROOT
HETATM    1  C   UNL     1      43.118 -14.174   3.063  1.00  0.00     0.191 C 
HETATM    2  S   UNL     1      42.233 -12.911   2.272  1.00  0.00    -0.042 SA
HETATM    3  C   UNL     1      41.509 -14.192   1.171  1.00  0.00     0.224 A 
HETATM    4  C   UNL     1      40.041 -14.429   1.626  1.00  0.00     0.271 A 
HETATM    5  O   UNL     1      39.700 -14.907   2.700  1.00  0.00    -0.269 OA
HETATM    6  N   UNL     1      39.210 -13.966   0.589  1.00  0.00    -0.314 N 
HETATM    7  C   UNL     1      39.987 -13.573  -0.521  1.00  0.00     0.047 A 
HETATM    8  C   UNL     1      41.353 -13.697  -0.234  1.00  0.00     0.019 A 
HETATM    9  C   UNL     1      39.552 -13.132  -1.759  1.00  0.00     0.030 A 
HETATM   10  C   UNL     1      40.517 -12.812  -2.719  1.00  0.00     0.002 A 
HETATM   11  C   UNL     1      41.886 -12.939  -2.434  1.00  0.00     0.001 A 
HETATM   12  C   UNL     1      42.316 -13.384  -1.183  1.00  0.00     0.013 A 
HETATM   13  N   UNL     1      42.327 -15.378   1.408  1.00  0.00    -0.201 N 
HETATM   14  C   UNL     1      42.110 -16.564   0.726  1.00  0.00     0.238 C 
HETATM   15  C   UNL     1      42.965 -17.729   1.158  1.00  0.00     0.119 C 
HETATM   16  O   UNL     1      41.273 -16.690  -0.168  1.00  0.00    -0.272 OA
HETATM   17  N   UNL     1      43.138 -15.348   2.530  1.00  0.00    -0.141 NA
ENDROOT
BRANCH   6  18
HETATM   18  C   UNL     1      37.756 -14.034   0.538  1.00  0.00     0.134 C 
BRANCH  18  19
HETATM   19  C   UNL     1      37.027 -12.696   0.608  1.00  0.00     0.047 C 
BRANCH  19  20
HETATM   20  C   UNL     1      37.705 -11.717   1.562  1.00  0.00     0.177 C 
BRANCH  20  21
HETATM   21  O   UNL     1      37.684 -10.440   0.926  1.00  0.00    -0.351 OA
BRANCH  21  22
HETATM   22  C   UNL     1      38.763 -10.087   0.171  1.00  0.00     0.068 A 
HETATM   23  C   UNL     1      38.733  -9.585  -1.125  1.00  0.00     0.037 A 
HETATM   24  C   UNL     1      39.929  -9.276  -1.793  1.00  0.00     0.011 A 
HETATM   25  C   UNL     1      41.181  -9.460  -1.182  1.00  0.00    -0.050 A 
HETATM   26  C   UNL     1      41.184  -9.960   0.133  1.00  0.00     0.011 A 
HETATM   27  C   UNL     1      39.994 -10.269   0.795  1.00  0.00     0.037 A 
BRANCH  25  28
HETATM   28  C   UNL     1      42.510  -9.140  -1.888  1.00  0.00    -0.024 C 
HETATM   29  C   UNL     1      42.536  -9.540  -3.380  1.00  0.00     0.019 C 
HETATM   30  C   UNL     1      42.781  -7.622  -1.814  1.00  0.00     0.019 C 
HETATM   31  C   UNL     1      43.665  -9.897  -1.194  1.00  0.00     0.019 C 
ENDBRANCH  25  28
ENDBRANCH  21  22
ENDBRANCH  20  21
ENDBRANCH  19  20
ENDBRANCH  18  19
ENDBRANCH   6  18
BRANCH   1  32
HETATM   32  N   UNL     1      43.741 -13.778   4.211  1.00  0.00    -0.305 N 
HETATM   33  C   UNL     1      43.496 -14.114   5.522  1.00  0.00     0.219 C 
HETATM   34  C   UNL     1      42.324 -14.999   5.839  1.00  0.00     0.117 C 
HETATM   35  O   UNL     1      44.239 -13.681   6.404  1.00  0.00    -0.274 OA
HETATM   36  H   UNL     1      44.502 -13.124   4.101  1.00  0.00     0.171 HD
ENDBRANCH   1  32
TORSDOF 7
ENDMDL
MODEL 4
REMARK VINA RESULT:      -8.5      4.992      7.226
REMARK  7 active torsions:
REMARK  status: ('A' for Active; 'I' for Inactive)
REMARK       I    between atoms: C_2  and  N_3 
REMARK    1  A    between atoms: N_3  and  C_4 
REMARK    2  A    between atoms: N_9  and  C_10 
REMARK    3  A    between atoms: C_10  and  C_11 
REMARK    4  A    between atoms: C_11  and  C_12 
REMARK    5  A    between atoms: C_12  and  O_13 
REMARK    6  A    between atoms: O_13  and  C_14 
REMARK    7  A    between atoms: C_17  and  C_18 
REMARK       I    between atoms: N_30  and  C_31 
ROOT
HETATM    1  C   UNL     1      39.576 -12.269  -2.921  1.00  0.00     0.191 C 
HETATM    2  S   UNL     1      38.702 -13.332  -1.868  1.00  0.00    -0.042 SA
HETATM    3  C   UNL     1      40.000 -13.043  -0.598  1.00  0.00     0.224 A 
HETATM    4  C   UNL     1      39.402 -12.091   0.476  1.00  0.00     0.271 A 
HETATM    5  O   UNL     1      39.075 -10.926   0.289  1.00  0.00    -0.269 OA
HETATM    6  N   UNL     1      39.290 -12.834   1.666  1.00  0.00    -0.314 N 
HETATM    7  C   UNL     1      39.860 -14.114   1.499  1.00  0.00     0.047 A 
HETATM    8  C   UNL     1      40.305 -14.285   0.181  1.00  0.00     0.019 A 
HETATM    9  C   UNL     1      40.017 -15.112   2.443  1.00  0.00     0.030 A 
HETATM   10  C   UNL     1      40.634 -16.303   2.045  1.00  0.00     0.002 A 
HETATM   11  C   UNL     1      41.082 -16.475   0.726  1.00  0.00     0.001 A 
HETATM   12  C   UNL     1      40.920 -15.462  -0.220  1.00  0.00     0.013 A 
HETATM   13  N   UNL     1      41.083 -12.391  -1.329  1.00  0.00    -0.201 N 
HETATM   14  C   UNL     1      42.271 -12.037  -0.713  1.00  0.00     0.238 C 
HETATM   15  C   UNL     1      43.248 -11.275  -1.572  1.00  0.00     0.119 C 
HETATM   16  O   UNL     1      42.532 -12.303   0.461  1.00  0.00    -0.272 OA
HETATM   17  N   UNL     1      40.764 -11.897  -2.583  1.00  0.00    -0.141 NA
ENDROOT
BRANCH   6  18
HETATM   18  C   UNL     1      38.835 -12.347   2.961  1.00  0.00     0.134 C 
BRANCH  18  19
HETATM   19  C   UNL     1      39.658 -11.215   3.569  1.00  0.00     0.047 C 
BRANCH  19  20
HETATM   20  C   UNL     1      40.308 -11.616   4.889  1.00  0.00     0.177 C 
BRANCH  20  21
HETATM   21  O   UNL     1      41.696 -11.812   4.624  1.00  0.00    -0.351 OA
BRANCH  21  22
HETATM   22  C   UNL     1      42.163 -13.093   4.585  1.00  0.00     0.068 A 
HETATM   23  C   UNL     1      43.131 -13.591   3.721  1.00  0.00     0.037 A 
HETATM   24  C   UNL     1      43.507 -14.942   3.781  1.00  0.00     0.011 A 
HETATM   25  C   UNL     1      42.926 -15.827   4.706  1.00  0.00    -0.050 A 
HETATM   26  C   UNL     1      41.956 -15.296   5.575  1.00  0.00     0.011 A 
HETATM   27  C   UNL     1      41.581 -13.952   5.513  1.00  0.00     0.037 A 
BRANCH  25  28
HETATM   28  C   UNL     1      43.309 -17.314   4.794  1.00  0.00    -0.024 C 
HETATM   29  C   UNL     1      44.404 -17.615   5.840  1.00  0.00     0.019 C 
HETATM   30  C   UNL     1      42.065 -18.144   5.176  1.00  0.00     0.019 C 
HETATM   31  C   UNL     1      43.841 -17.796   3.426  1.00  0.00     0.019 C 
ENDBRANCH  25  28
ENDBRANCH  21  22
ENDBRANCH  20  21
ENDBRANCH  19  20
ENDBRANCH  18  19
ENDBRANCH   6  18
BRANCH   1  32
HETATM   32  N   UNL     1      38.895 -11.928  -4.053  1.00  0.00    -0.305 N 
HETATM   33  C   UNL     1      38.012 -10.900  -4.290  1.00  0.00     0.219 C 
HETATM   34  C   UNL     1      37.621 -10.001  -3.151  1.00  0.00     0.117 C 
HETATM   35  O   UNL     1      37.562 -10.742  -5.426  1.00  0.00    -0.274 OA
HETATM   36  H   UNL     1      39.043 -12.522  -4.856  1.00  0.00     0.171 HD
ENDBRANCH   1  32
TORSDOF 7
ENDMDL
MODEL 5
REMARK VINA RESULT:      -8.5      4.104      7.814
REMARK  7 active torsions:
REMARK  status: ('A' for Active; 'I' for Inactive)
REMARK       I    between atoms: C_2  and  N_3 
REMARK    1  A    between atoms: N_3  and  C_4 
REMARK    2  A    between atoms: N_9  and  C_10 
REMARK    3  A    between atoms: C_10  and  C_11 
REMARK    4  A    between atoms: C_11  and  C_12 
REMARK    5  A    between atoms: C_12  and  O_13 
REMARK    6  A    between atoms: O_13  and  C_14 
REMARK    7  A    between atoms: C_17  and  C_18 
REMARK       I    between atoms: N_30  and  C_31 
ROOT
HETATM    1  C   UNL     1      41.722 -13.863   0.269  1.00  0.00     0.191 C 
HETATM    2  S   UNL     1      42.140 -12.552   1.323  1.00  0.00    -0.042 SA
HETATM    3  C   UNL     1      41.731 -13.645   2.744  1.00  0.00     0.224 A 
HETATM    4  C   UNL     1      43.072 -14.101   3.387  1.00  0.00     0.271 A 
HETATM    5  O   UNL     1      43.911 -14.813   2.851  1.00  0.00    -0.269 OA
HETATM    6  N   UNL     1      43.134 -13.514   4.665  1.00  0.00    -0.314 N 
HETATM    7  C   UNL     1      41.930 -12.837   4.951  1.00  0.00     0.047 A 
HETATM    8  C   UNL     1      41.062 -12.893   3.853  1.00  0.00     0.019 A 
HETATM    9  C   UNL     1      41.563 -12.197   6.122  1.00  0.00     0.030 A 
HETATM   10  C   UNL     1      40.298 -11.605   6.179  1.00  0.00     0.002 A 
HETATM   11  C   UNL     1      39.426 -11.662   5.080  1.00  0.00     0.001 A 
HETATM   12  C   UNL     1      39.804 -12.310   3.903  1.00  0.00     0.013 A 
HETATM   13  N   UNL     1      41.031 -14.776   2.142  1.00  0.00    -0.201 N 
HETATM   14  C   UNL     1      40.527 -15.815   2.907  1.00  0.00     0.238 C 
HETATM   15  C   UNL     1      39.926 -16.961   2.132  1.00  0.00     0.119 C 
HETATM   16  O   UNL     1      40.566 -15.833   4.137  1.00  0.00    -0.272 OA
HETATM   17  N   UNL     1      41.137 -14.899   0.766  1.00  0.00    -0.141 NA
ENDROOT
BRANCH   6  18
HETATM   18  C   UNL     1      44.179 -13.701   5.663  1.00  0.00     0.134 C 
BRANCH  18  19
HETATM   19  C   UNL     1      43.851 -14.676   6.790  1.00  0.00     0.047 C 
BRANCH  19  20
HETATM   20  C   UNL     1      44.347 -16.088   6.497  1.00  0.00     0.177 C 
BRANCH  20  21
HETATM   21  O   UNL     1      43.323 -16.737   5.744  1.00  0.00    -0.351 OA
BRANCH  21  22
HETATM   22  C   UNL     1      43.637 -17.907   5.119  1.00  0.00     0.068 A 
HETATM   23  C   UNL     1      44.405 -18.941   5.642  1.00  0.00     0.037 A 
HETATM   24  C   UNL     1      44.663 -20.089   4.876  1.00  0.00     0.011 A 
HETATM   25  C   UNL     1      44.160 -20.232   3.572  1.00  0.00    -0.050 A 
HETATM   26  C   UNL     1      43.379 -19.176   3.069  1.00  0.00     0.011 A 
HETATM   27  C   UNL     1      43.125 -18.033   3.830  1.00  0.00     0.037 A 
BRANCH  25  28
HETATM   28  C   UNL     1      44.431 -21.472   2.704  1.00  0.00    -0.024 C 
HETATM   29  C   UNL     1      45.701 -21.359   1.833  1.00  0.00     0.019 C 
HETATM   30  C   UNL     1      44.604 -22.709   3.611  1.00  0.00     0.019 C 
HETATM   31  C   UNL     1      43.242 -21.708   1.745  1.00  0.00     0.019 C 
ENDBRANCH  25  28
ENDBRANCH  21  22
ENDBRANCH  20  21
ENDBRANCH  19  20
ENDBRANCH  18  19
ENDBRANCH   6  18
BRANCH   1  32
HETATM   32  N   UNL     1      42.058 -13.652  -1.036  1.00  0.00    -0.305 N 
HETATM   33  C   UNL     1      41.316 -13.156  -2.082  1.00  0.00     0.219 C 
HETATM   34  C   UNL     1      39.865 -12.836  -1.855  1.00  0.00     0.117 C 
HETATM   35  O   UNL     1      41.853 -12.988  -3.177  1.00  0.00    -0.274 OA
HETATM   36  H   UNL     1      43.000 -13.906  -1.299  1.00  0.00     0.171 HD
ENDBRANCH   1  32
TORSDOF 7
ENDMDL
MODEL 6
REMARK VINA RESULT:      -8.3      4.810      7.150
REMARK  7 active torsions:
REMARK  status: ('A' for Active; 'I' for Inactive)
REMARK       I    between atoms: C_2  and  N_3 
REMARK    1  A    between atoms: N_3  and  C_4 
REMARK    2  A    between atoms: N_9  and  C_10 
REMARK    3  A    between atoms: C_10  and  C_11 
REMARK    4  A    between atoms: C_11  and  C_12 
REMARK    5  A    between atoms: C_12  and  O_13 
REMARK    6  A    between atoms: O_13  and  C_14 
REMARK    7  A    between atoms: C_17  and  C_18 
REMARK       I    between atoms: N_30  and  C_31 
ROOT
HETATM    1  C   UNL     1      38.673 -12.763  -2.263  1.00  0.00     0.191 C 
HETATM    2  S   UNL     1      38.475 -13.765  -0.863  1.00  0.00    -0.042 SA
HETATM    3  C   UNL     1      40.209 -13.364  -0.405  1.00  0.00     0.224 A 
HETATM    4  C   UNL     1      40.161 -12.349   0.773  1.00  0.00     0.271 A 
HETATM    5  O   UNL     1      39.726 -11.206   0.708  1.00  0.00    -0.269 OA
HETATM    6  N   UNL     1      40.678 -13.009   1.904  1.00  0.00    -0.314 N 
HETATM    7  C   UNL     1      41.159 -14.286   1.547  1.00  0.00     0.047 A 
HETATM    8  C   UNL     1      40.916 -14.542   0.191  1.00  0.00     0.019 A 
HETATM    9  C   UNL     1      41.804 -15.213   2.347  1.00  0.00     0.030 A 
HETATM   10  C   UNL     1      42.209 -16.417   1.762  1.00  0.00     0.002 A 
HETATM   11  C   UNL     1      41.969 -16.674   0.403  1.00  0.00     0.001 A 
HETATM   12  C   UNL     1      41.317 -15.733  -0.396  1.00  0.00     0.013 A 
HETATM   13  N   UNL     1      40.767 -12.745  -1.603  1.00  0.00    -0.201 N 
HETATM   14  C   UNL     1      42.086 -12.327  -1.664  1.00  0.00     0.238 C 
HETATM   15  C   UNL     1      42.484 -11.610  -2.930  1.00  0.00     0.119 C 
HETATM   16  O   UNL     1      42.897 -12.505  -0.755  1.00  0.00    -0.272 OA
HETATM   17  N   UNL     1      39.856 -12.347  -2.568  1.00  0.00    -0.141 NA
ENDROOT
BRANCH   6  18
HETATM   18  C   UNL     1      40.885 -12.440   3.229  1.00  0.00     0.134 C 
BRANCH  18  19
HETATM   19  C   UNL     1      39.688 -12.505   4.172  1.00  0.00     0.047 C 
BRANCH  19  20
HETATM   20  C   UNL     1      39.547 -13.871   4.834  1.00  0.00     0.177 C 
BRANCH  20  21
HETATM   21  O   UNL     1      40.502 -13.918   5.893  1.00  0.00    -0.351 OA
BRANCH  21  22
HETATM   22  C   UNL     1      41.431 -14.916   5.870  1.00  0.00     0.068 A 
HETATM   23  C   UNL     1      42.812 -14.758   5.895  1.00  0.00     0.037 A 
HETATM   24  C   UNL     1      43.654 -15.880   5.849  1.00  0.00     0.011 A 
HETATM   25  C   UNL     1      43.139 -17.185   5.780  1.00  0.00    -0.050 A 
HETATM   26  C   UNL     1      41.738 -17.319   5.765  1.00  0.00     0.011 A 
HETATM   27  C   UNL     1      40.901 -16.202   5.808  1.00  0.00     0.037 A 
BRANCH  25  28
HETATM   28  C   UNL     1      44.033 -18.435   5.720  1.00  0.00    -0.024 C 
HETATM   29  C   UNL     1      43.491 -19.629   6.535  1.00  0.00     0.019 C 
HETATM   30  C   UNL     1      44.171 -18.901   4.255  1.00  0.00     0.019 C 
HETATM   31  C   UNL     1      45.434 -18.100   6.280  1.00  0.00     0.019 C 
ENDBRANCH  25  28
ENDBRANCH  21  22
ENDBRANCH  20  21
ENDBRANCH  19  20
ENDBRANCH  18  19
ENDBRANCH   6  18
BRANCH   1  32
HETATM   32  N   UNL     1      37.513 -12.515  -2.936  1.00  0.00    -0.305 N 
HETATM   33  C   UNL     1      36.781 -13.315  -3.782  1.00  0.00     0.219 C 
HETATM   34  C   UNL     1      37.313 -14.676  -4.135  1.00  0.00     0.117 C 
HETATM   35  O   UNL     1      35.712 -12.899  -4.231  1.00  0.00    -0.274 OA
HETATM   36  H   UNL     1      37.116 -11.594  -2.813  1.00  0.00     0.171 HD
ENDBRANCH   1  32
TORSDOF 7
ENDMDL
MODEL 7
REMARK VINA RESULT:      -8.2      4.015      9.535
REMARK  7 active torsions:
REMARK  status: ('A' for Active; 'I' for Inactive)
REMARK       I    between atoms: C_2  and  N_3 
REMARK    1  A    between atoms: N_3  and  C_4 
REMARK    2  A    between atoms: N_9  and  C_10 
REMARK    3  A    between atoms: C_10  and  C_11 
REMARK    4  A    between atoms: C_11  and  C_12 
REMARK    5  A    between atoms: C_12  and  O_13 
REMARK    6  A    between atoms: O_13  and  C_14 
REMARK    7  A    between atoms: C_17  and  C_18 
REMARK       I    between atoms: N_30  and  C_31 
ROOT
HETATM    1  C   UNL     1      42.866 -17.270   6.858  1.00  0.00     0.191 C 
HETATM    2  S   UNL     1      41.454 -17.122   5.863  1.00  0.00    -0.042 SA
HETATM    3  C   UNL     1      42.165 -15.564   5.193  1.00  0.00     0.224 A 
HETATM    4  C   UNL     1      42.690 -15.866   3.760  1.00  0.00     0.271 A 
HETATM    5  O   UNL     1      43.618 -16.616   3.487  1.00  0.00    -0.269 OA
HETATM    6  N   UNL     1      41.878 -15.141   2.866  1.00  0.00    -0.314 N 
HETATM    7  C   UNL     1      40.977 -14.322   3.578  1.00  0.00     0.047 A 
HETATM    8  C   UNL     1      41.112 -14.526   4.958  1.00  0.00     0.019 A 
HETATM    9  C   UNL     1      40.068 -13.409   3.074  1.00  0.00     0.030 A 
HETATM   10  C   UNL     1      39.284 -12.692   3.983  1.00  0.00     0.002 A 
HETATM   11  C   UNL     1      39.419 -12.892   5.366  1.00  0.00     0.001 A 
HETATM   12  C   UNL     1      40.339 -13.816   5.866  1.00  0.00     0.013 A 
HETATM   13  N   UNL     1      43.268 -15.251   6.096  1.00  0.00    -0.201 N 
HETATM   14  C   UNL     1      44.042 -14.113   5.939  1.00  0.00     0.238 C 
HETATM   15  C   UNL     1      45.209 -13.984   6.885  1.00  0.00     0.119 C 
HETATM   16  O   UNL     1      43.821 -13.256   5.084  1.00  0.00    -0.272 OA
HETATM   17  N   UNL     1      43.677 -16.271   6.940  1.00  0.00    -0.141 NA
ENDROOT
BRANCH   6  18
HETATM   18  C   UNL     1      42.026 -15.064   1.419  1.00  0.00     0.134 C 
BRANCH  18  19
HETATM   19  C   UNL     1      41.072 -15.935   0.608  1.00  0.00     0.047 C 
BRANCH  19  20
HETATM   20  C   UNL     1      41.332 -15.836  -0.892  1.00  0.00     0.177 C 
BRANCH  20  21
HETATM   21  O   UNL     1      40.406 -14.881  -1.409  1.00  0.00    -0.351 OA
BRANCH  21  22
HETATM   22  C   UNL     1      40.810 -13.582  -1.489  1.00  0.00     0.068 A 
HETATM   23  C   UNL     1      40.145 -12.478  -0.967  1.00  0.00     0.037 A 
HETATM   24  C   UNL     1      40.671 -11.188  -1.139  1.00  0.00     0.011 A 
HETATM   25  C   UNL     1      41.873 -10.969  -1.833  1.00  0.00    -0.050 A 
HETATM   26  C   UNL     1      42.531 -12.103  -2.343  1.00  0.00     0.011 A 
HETATM   27  C   UNL     1      42.006 -13.386  -2.174  1.00  0.00     0.037 A 
BRANCH  25  28
HETATM   28  C   UNL     1      42.472  -9.569  -2.046  1.00  0.00    -0.024 C 
HETATM   29  C   UNL     1      41.665  -8.437  -1.374  1.00  0.00     0.019 C 
HETATM   30  C   UNL     1      43.900  -9.525  -1.462  1.00  0.00     0.019 C 
HETATM   31  C   UNL     1      42.531  -9.251  -3.557  1.00  0.00     0.019 C 
ENDBRANCH  25  28
ENDBRANCH  21  22
ENDBRANCH  20  21
ENDBRANCH  19  20
ENDBRANCH  18  19
ENDBRANCH   6  18
BRANCH   1  32
HETATM   32  N   UNL     1      42.974 -18.475   7.489  1.00  0.00    -0.305 N 
HETATM   33  C   UNL     1      43.671 -19.608   7.139  1.00  0.00     0.219 C 
HETATM   34  C   UNL     1      44.401 -19.636   5.826  1.00  0.00     0.117 C 
HETATM   35  O   UNL     1      43.678 -20.572   7.906  1.00  0.00    -0.274 OA
HETATM   36  H   UNL     1      42.457 -18.573   8.351  1.00  0.00     0.171 HD
ENDBRANCH   1  32
TORSDOF 7
ENDMDL
MODEL 8
REMARK VINA RESULT:      -8.2      5.003      8.550
REMARK  7 active torsions:
REMARK  status: ('A' for Active; 'I' for Inactive)
REMARK       I    between atoms: C_2  and  N_3 
REMARK    1  A    between atoms: N_3  and  C_4 
REMARK    2  A    between atoms: N_9  and  C_10 
REMARK    3  A    between atoms: C_10  and  C_11 
REMARK    4  A    between atoms: C_11  and  C_12 
REMARK    5  A    between atoms: C_12  and  O_13 
REMARK    6  A    between atoms: O_13  and  C_14 
REMARK    7  A    between atoms: C_17  and  C_18 
REMARK       I    between atoms: N_30  and  C_31 
ROOT
HETATM    1  C   UNL     1      39.035 -10.949   3.314  1.00  0.00     0.191 C 
HETATM    2  S   UNL     1      38.992 -10.791   1.588  1.00  0.00    -0.042 SA
HETATM    3  C   UNL     1      40.463 -11.892   1.513  1.00  0.00     0.224 A 
HETATM    4  C   UNL     1      39.980 -13.288   1.026  1.00  0.00     0.271 A 
HETATM    5  O   UNL     1      39.232 -14.035   1.643  1.00  0.00    -0.269 OA
HETATM    6  N   UNL     1      40.542 -13.494  -0.248  1.00  0.00    -0.314 N 
HETATM    7  C   UNL     1      41.422 -12.440  -0.571  1.00  0.00     0.047 A 
HETATM    8  C   UNL     1      41.421 -11.471   0.441  1.00  0.00     0.019 A 
HETATM    9  C   UNL     1      42.223 -12.305  -1.691  1.00  0.00     0.030 A 
HETATM   10  C   UNL     1      43.034 -11.169  -1.786  1.00  0.00     0.002 A 
HETATM   11  C   UNL     1      43.036 -10.199  -0.772  1.00  0.00     0.001 A 
HETATM   12  C   UNL     1      42.225 -10.343   0.355  1.00  0.00     0.013 A 
HETATM   13  N   UNL     1      40.939 -11.957   2.891  1.00  0.00    -0.201 N 
HETATM   14  C   UNL     1      42.069 -12.676   3.242  1.00  0.00     0.238 C 
HETATM   15  C   UNL     1      42.371 -12.735   4.718  1.00  0.00     0.119 C 
HETATM   16  O   UNL     1      42.789 -13.250   2.424  1.00  0.00    -0.272 OA
HETATM   17  N   UNL     1      40.063 -11.500   3.863  1.00  0.00    -0.141 NA
ENDROOT
BRANCH   6  18
HETATM   18  C   UNL     1      40.419 -14.688  -1.074  1.00  0.00     0.134 C 
BRANCH  18  19
HETATM   19  C   UNL     1      41.527 -15.724  -0.910  1.00  0.00     0.047 C 
BRANCH  19  20
HETATM   20  C   UNL     1      41.219 -16.730   0.193  1.00  0.00     0.177 C 
BRANCH  20  21
HETATM   21  O   UNL     1      41.705 -16.169   1.412  1.00  0.00    -0.351 OA
BRANCH  21  22
HETATM   22  C   UNL     1      42.397 -16.984   2.257  1.00  0.00     0.068 A 
HETATM   23  C   UNL     1      42.983 -18.203   1.932  1.00  0.00     0.037 A 
HETATM   24  C   UNL     1      43.656 -18.949   2.913  1.00  0.00     0.011 A 
HETATM   25  C   UNL     1      43.762 -18.496   4.239  1.00  0.00    -0.050 A 
HETATM   26  C   UNL     1      43.169 -17.256   4.539  1.00  0.00     0.011 A 
HETATM   27  C   UNL     1      42.498 -16.515   3.564  1.00  0.00     0.037 A 
BRANCH  25  28
HETATM   28  C   UNL     1      44.484 -19.292   5.338  1.00  0.00    -0.024 C 
HETATM   29  C   UNL     1      43.534 -19.915   6.384  1.00  0.00     0.019 C 
HETATM   30  C   UNL     1      45.283 -20.447   4.697  1.00  0.00     0.019 C 
HETATM   31  C   UNL     1      45.456 -18.364   6.101  1.00  0.00     0.019 C 
ENDBRANCH  25  28
ENDBRANCH  21  22
ENDBRANCH  20  21
ENDBRANCH  19  20
ENDBRANCH  18  19
ENDBRANCH   6  18
BRANCH   1  32
HETATM   32  N   UNL     1      37.936 -10.441   3.944  1.00  0.00    -0.305 N 
HETATM   33  C   UNL     1      37.674  -9.171   4.399  1.00  0.00     0.219 C 
HETATM   34  C   UNL     1      38.747  -8.125   4.292  1.00  0.00     0.117 C 
HETATM   35  O   UNL     1      36.570  -8.920   4.885  1.00  0.00    -0.274 OA
HETATM   36  H   UNL     1      37.185 -11.093   4.122  1.00  0.00     0.171 HD
ENDBRANCH   1  32
TORSDOF 7
ENDMDL
MODEL 9
REMARK VINA RESULT:      -8.1      3.966      9.015
REMARK  7 active torsions:
REMARK  status: ('A' for Active; 'I' for Inactive)
REMARK       I    between atoms: C_2  and  N_3 
REMARK    1  A    between atoms: N_3  and  C_4 
REMARK    2  A    between atoms: N_9  and  C_10 
REMARK    3  A    between atoms: C_10  and  C_11 
REMARK    4  A    between atoms: C_11  and  C_12 
REMARK    5  A    between atoms: C_12  and  O_13 
REMARK    6  A    between atoms: O_13  and  C_14 
REMARK    7  A    between atoms: C_17  and  C_18 
REMARK       I    between atoms: N_30  and  C_31 
ROOT
HETATM    1  C   UNL     1      42.846 -17.288   6.684  1.00  0.00     0.191 C 
HETATM    2  S   UNL     1      41.450 -17.090   5.677  1.00  0.00    -0.042 SA
HETATM    3  C   UNL     1      42.152 -15.483   5.125  1.00  0.00     0.224 A 
HETATM    4  C   UNL     1      42.704 -15.681   3.685  1.00  0.00     0.271 A 
HETATM    5  O   UNL     1      43.646 -16.400   3.379  1.00  0.00    -0.269 OA
HETATM    6  N   UNL     1      41.898 -14.908   2.827  1.00  0.00    -0.314 N 
HETATM    7  C   UNL     1      40.974 -14.150   3.576  1.00  0.00     0.047 A 
HETATM    8  C   UNL     1      41.089 -14.443   4.941  1.00  0.00     0.019 A 
HETATM    9  C   UNL     1      40.062 -13.215   3.119  1.00  0.00     0.030 A 
HETATM   10  C   UNL     1      39.254 -12.570   4.060  1.00  0.00     0.002 A 
HETATM   11  C   UNL     1      39.369 -12.861   5.428  1.00  0.00     0.001 A 
HETATM   12  C   UNL     1      40.292 -13.806   5.881  1.00  0.00     0.013 A 
HETATM   13  N   UNL     1      43.235 -15.218   6.067  1.00  0.00    -0.201 N 
HETATM   14  C   UNL     1      43.996 -14.063   6.000  1.00  0.00     0.238 C 
HETATM   15  C   UNL     1      45.146 -13.984   6.973  1.00  0.00     0.119 C 
HETATM   16  O   UNL     1      43.779 -13.153   5.200  1.00  0.00    -0.272 OA
HETATM   17  N   UNL     1      43.643 -16.287   6.848  1.00  0.00    -0.141 NA
ENDROOT
BRANCH   6  18
HETATM   18  C   UNL     1      42.069 -14.732   1.391  1.00  0.00     0.134 C 
BRANCH  18  19
HETATM   19  C   UNL     1      41.122 -15.536   0.507  1.00  0.00     0.047 C 
BRANCH  19  20
HETATM   20  C   UNL     1      41.008 -14.956  -0.898  1.00  0.00     0.177 C 
BRANCH  20  21
HETATM   21  O   UNL     1      39.618 -14.767  -1.157  1.00  0.00    -0.351 OA
BRANCH  21  22
HETATM   22  C   UNL     1      39.029 -13.634  -0.679  1.00  0.00     0.068 A 
HETATM   23  C   UNL     1      39.491 -12.333  -0.843  1.00  0.00     0.037 A 
HETATM   24  C   UNL     1      38.788 -11.255  -0.280  1.00  0.00     0.011 A 
HETATM   25  C   UNL     1      37.609 -11.451   0.458  1.00  0.00    -0.050 A 
HETATM   26  C   UNL     1      37.157 -12.776   0.601  1.00  0.00     0.011 A 
HETATM   27  C   UNL     1      37.858 -13.847   0.043  1.00  0.00     0.037 A 
BRANCH  25  28
HETATM   28  C   UNL     1      36.820 -10.295   1.094  1.00  0.00    -0.024 C 
HETATM   29  C   UNL     1      35.301 -10.557   1.196  1.00  0.00     0.019 C 
HETATM   30  C   UNL     1      37.340 -10.042   2.525  1.00  0.00     0.019 C 
HETATM   31  C   UNL     1      37.004  -9.012   0.252  1.00  0.00     0.019 C 
ENDBRANCH  25  28
ENDBRANCH  21  22
ENDBRANCH  20  21
ENDBRANCH  19  20
ENDBRANCH  18  19
ENDBRANCH   6  18
BRANCH   1  32
HETATM   32  N   UNL     1      42.960 -18.532   7.235  1.00  0.00    -0.305 N 
HETATM   33  C   UNL     1      43.682 -19.628   6.827  1.00  0.00     0.219 C 
HETATM   34  C   UNL     1      44.442 -19.556   5.532  1.00  0.00     0.117 C 
HETATM   35  O   UNL     1      43.688 -20.641   7.527  1.00  0.00    -0.274 OA
HETATM   36  H   UNL     1      42.425 -18.695   8.076  1.00  0.00     0.171 HD
ENDBRANCH   1  32
TORSDOF 7
ENDMDL
MODEL 10
REMARK VINA RESULT:      -8.1      5.866      9.288
REMARK  7 active torsions:
REMARK  status: ('A' for Active; 'I' for Inactive)
REMARK       I    between atoms: C_2  and  N_3 
REMARK    1  A    between atoms: N_3  and  C_4 
REMARK    2  A    between atoms: N_9  and  C_10 
REMARK    3  A    between atoms: C_10  and  C_11 
REMARK    4  A    between atoms: C_11  and  C_12 
REMARK    5  A    between atoms: C_12  and  O_13 
REMARK    6  A    between atoms: O_13  and  C_14 
REMARK    7  A    between atoms: C_17  and  C_18 
REMARK       I    between atoms: N_30  and  C_31 
ROOT
HETATM    1  C   UNL     1      37.154 -13.354  -3.519  1.00  0.00     0.191 C 
HETATM    2  S   UNL     1      38.802 -13.890  -3.495  1.00  0.00    -0.042 SA
HETATM    3  C   UNL     1      39.118 -12.660  -2.165  1.00  0.00     0.224 A 
HETATM    4  C   UNL     1      39.233 -13.438  -0.824  1.00  0.00     0.271 A 
HETATM    5  O   UNL     1      38.326 -14.055  -0.281  1.00  0.00    -0.269 OA
HETATM    6  N   UNL     1      40.567 -13.313  -0.391  1.00  0.00    -0.314 N 
HETATM    7  C   UNL     1      41.279 -12.444  -1.245  1.00  0.00     0.047 A 
HETATM    8  C   UNL     1      40.465 -12.021  -2.305  1.00  0.00     0.019 A 
HETATM    9  C   UNL     1      42.585 -12.005  -1.125  1.00  0.00     0.030 A 
HETATM   10  C   UNL     1      43.074 -11.123  -2.095  1.00  0.00     0.002 A 
HETATM   11  C   UNL     1      42.260 -10.696  -3.156  1.00  0.00     0.001 A 
HETATM   12  C   UNL     1      40.943 -11.145  -3.269  1.00  0.00     0.013 A 
HETATM   13  N   UNL     1      37.934 -11.806  -2.173  1.00  0.00    -0.201 N 
HETATM   14  C   UNL     1      37.809 -10.722  -1.320  1.00  0.00     0.238 C 
HETATM   15  C   UNL     1      36.484 -10.003  -1.371  1.00  0.00     0.119 C 
HETATM   16  O   UNL     1      38.698 -10.358  -0.550  1.00  0.00    -0.272 OA
HETATM   17  N   UNL     1      36.837 -12.287  -2.869  1.00  0.00    -0.141 NA
ENDROOT
BRANCH   6  18
HETATM   18  C   UNL     1      41.136 -13.826   0.848  1.00  0.00     0.134 C 
BRANCH  18  19
HETATM   19  C   UNL     1      41.706 -15.239   0.780  1.00  0.00     0.047 C 
BRANCH  19  20
HETATM   20  C   UNL     1      40.754 -16.276   1.366  1.00  0.00     0.177 C 
BRANCH  20  21
HETATM   21  O   UNL     1      41.460 -17.516   1.395  1.00  0.00    -0.351 OA
BRANCH  21  22
HETATM   22  C   UNL     1      42.123 -17.844   2.540  1.00  0.00     0.068 A 
HETATM   23  C   UNL     1      43.256 -18.643   2.636  1.00  0.00     0.037 A 
HETATM   24  C   UNL     1      43.829 -18.912   3.890  1.00  0.00     0.011 A 
HETATM   25  C   UNL     1      43.285 -18.389   5.075  1.00  0.00    -0.050 A 
HETATM   26  C   UNL     1      42.145 -17.575   4.950  1.00  0.00     0.011 A 
HETATM   27  C   UNL     1      41.574 -17.310   3.703  1.00  0.00     0.037 A 
BRANCH  25  28
HETATM   28  C   UNL     1      43.883 -18.670   6.464  1.00  0.00    -0.024 C 
HETATM   29  C   UNL     1      43.112 -18.000   7.622  1.00  0.00     0.019 C 
HETATM   30  C   UNL     1      43.880 -20.191   6.728  1.00  0.00     0.019 C 
HETATM   31  C   UNL     1      45.336 -18.148   6.522  1.00  0.00     0.019 C 
ENDBRANCH  25  28
ENDBRANCH  21  22
ENDBRANCH  20  21
ENDBRANCH  19  20
ENDBRANCH  18  19
ENDBRANCH   6  18
BRANCH   1  32
HETATM   32  N   UNL     1      36.326 -14.142  -4.266  1.00  0.00    -0.305 N 
HETATM   33  C   UNL     1      35.637 -13.869  -5.424  1.00  0.00     0.219 C 
HETATM   34  C   UNL     1      35.689 -12.478  -5.990  1.00  0.00     0.117 C 
HETATM   35  O   UNL     1      34.993 -14.767  -5.967  1.00  0.00    -0.274 OA
HETATM   36  H   UNL     1      36.176 -15.079  -3.921  1.00  0.00     0.171 HD
ENDBRANCH   1  32
TORSDOF 7
ENDMDL
