MODEL 1
REMARK VINA RESULT:      -8.6      0.000      0.000
REMARK  9 active torsions:
REMARK  status: ('A' for Active; 'I' for Inactive)
REMARK    1  A    between atoms: C_2  and  N_3 
REMARK    2  A    between atoms: C_2  and  C_23 
REMARK       I    between atoms: N_3  and  C_4 
REMARK       I    between atoms: C_4  and  N_5 
REMARK    3  A    between atoms: N_5  and  C_6 
REMARK    4  A    between atoms: C_6  and  C_7 
REMARK    5  A    between atoms: C_7  and  N_8 
REMARK    6  A    between atoms: C_7  and  C_14 
REMARK    7  A    between atoms: C_15  and  O_16 
REMARK    8  A    between atoms: C_23  and  C_24 
REMARK    9  A    between atoms: C_27  and  O_28 
ROOT
HETATM    1  N   UNL     1      39.745 -14.997   0.576  1.00  0.00    -0.339 N 
HETATM    2  C   UNL     1      41.023 -15.006   1.049  1.00  0.00     0.316 C 
HETATM    3  N   UNL     1      41.457 -16.286   1.306  1.00  0.00    -0.341 N 
HETATM    4  O   UNL     1      41.692 -14.016   1.302  1.00  0.00    -0.248 OA
HETATM    5  H   UNL     1      39.240 -15.870   0.603  1.00  0.00     0.164 HD
HETATM    6  H   UNL     1      41.069 -16.960   0.656  1.00  0.00     0.164 HD
ENDROOT
BRANCH   3   7
HETATM    7  C   UNL     1      42.853 -16.505   1.658  1.00  0.00     0.162 C 
BRANCH   7   8
HETATM    8  C   UNL     1      43.188 -16.912   3.134  1.00  0.00     0.241 C 
BRANCH   8   9
HETATM    9  N   UNL     1      42.009 -16.625   4.091  1.00  0.00    -0.061 N 
HETATM   10  H   UNL     1      41.251 -16.224   3.533  1.00  0.00     0.280 HD
HETATM   11  C   UNL     1      42.313 -15.632   5.208  1.00  0.00     0.236 C 
HETATM   12  C   UNL     1      41.938 -16.338   6.499  1.00  0.00     0.029 C 
HETATM   13  C   UNL     1      40.911 -17.361   6.081  1.00  0.00     0.029 C 
HETATM   14  C   UNL     1      41.477 -17.873   4.777  1.00  0.00     0.236 C 
ENDBRANCH   8   9
BRANCH   8  15
HETATM   15  C   UNL     1      43.585 -18.392   3.109  1.00  0.00     0.007 A 
HETATM   16  C   UNL     1      44.381 -18.922   4.146  1.00  0.00     0.076 A 
HETATM   17  C   UNL     1      44.755 -20.267   4.122  1.00  0.00     0.037 A 
HETATM   18  C   UNL     1      44.370 -21.087   3.060  1.00  0.00     0.003 A 
HETATM   19  C   UNL     1      43.617 -20.568   2.014  1.00  0.00     0.001 A 
HETATM   20  C   UNL     1      43.232 -19.227   2.030  1.00  0.00     0.012 A 
BRANCH  16  21
HETATM   21  O   UNL     1      44.724 -18.046   5.140  1.00  0.00    -0.355 OA
HETATM   22  C   UNL     1      44.821 -18.568   6.464  1.00  0.00     0.210 C 
ENDBRANCH  16  21
ENDBRANCH   8  15
ENDBRANCH   7   8
ENDBRANCH   3   7
BRANCH   1  23
HETATM   23  C   UNL     1      38.935 -13.785   0.430  1.00  0.00     0.086 C 
HETATM   24  C   UNL     1      37.483 -14.023   0.852  1.00  0.00     0.032 C 
BRANCH  23  25
HETATM   25  C   UNL     1      38.996 -13.168  -0.988  1.00  0.00     0.063 C 
BRANCH  25  26
HETATM   26  C   UNL     1      38.923 -14.105  -2.183  1.00  0.00    -0.056 A 
HETATM   27  C   UNL     1      40.117 -14.701  -2.628  1.00  0.00     0.010 A 
HETATM   28  C   UNL     1      40.122 -15.591  -3.705  1.00  0.00     0.037 A 
HETATM   29  C   UNL     1      38.929 -15.883  -4.351  1.00  0.00     0.065 A 
HETATM   30  C   UNL     1      37.735 -15.320  -3.922  1.00  0.00     0.037 A 
HETATM   31  C   UNL     1      37.728 -14.452  -2.828  1.00  0.00     0.010 A 
BRANCH  29  32
HETATM   32  O   UNL     1      38.886 -16.729  -5.417  1.00  0.00    -0.361 OA
HETATM   33  H   UNL     1      38.929 -16.205  -6.235  1.00  0.00     0.217 HD
ENDBRANCH  29  32
ENDBRANCH  25  26
ENDBRANCH  23  25
ENDBRANCH   1  23
TORSDOF 9
ENDMDL
MODEL 2
REMARK VINA RESULT:      -8.4      1.384      2.244
REMARK  9 active torsions:
REMARK  status: ('A' for Active; 'I' for Inactive)
REMARK    1  A    between atoms: C_2  and  N_3 
REMARK    2  A    between atoms: C_2  and  C_23 
REMARK       I    between atoms: N_3  and  C_4 
REMARK       I    between atoms: C_4  and  N_5 
REMARK    3  A    between atoms: N_5  and  C_6 
REMARK    4  A    between atoms: C_6  and  C_7 
REMARK    5  A    between atoms: C_7  and  N_8 
REMARK    6  A    between atoms: C_7  and  C_14 
REMARK    7  A    between atoms: C_15  and  O_16 
REMARK    8  A    between atoms: C_23  and  C_24 
REMARK    9  A    between atoms: C_27  and  O_28 
ROOT
HETATM    1  N   UNL     1      39.456 -15.205   1.154  1.00  0.00    -0.339 N 
HETATM    2  C   UNL     1      40.004 -15.409   2.385  1.00  0.00     0.316 C 
HETATM    3  N   UNL     1      40.357 -16.726   2.568  1.00  0.00    -0.341 N 
HETATM    4  O   UNL     1      40.104 -14.567   3.265  1.00  0.00    -0.248 OA
HETATM    5  H   UNL     1      39.252 -16.024   0.602  1.00  0.00     0.164 HD
HETATM    6  H   UNL     1      40.671 -17.161   1.709  1.00  0.00     0.164 HD
ENDROOT
BRANCH   3   7
HETATM    7  C   UNL     1      41.110 -17.100   3.757  1.00  0.00     0.162 C 
BRANCH   7   8
HETATM    8  C   UNL     1      42.644 -16.783   3.791  1.00  0.00     0.241 C 
BRANCH   8   9
HETATM    9  N   UNL     1      43.012 -15.848   4.966  1.00  0.00    -0.061 N 
HETATM   10  H   UNL     1      43.788 -16.281   5.472  1.00  0.00     0.280 HD
HETATM   11  C   UNL     1      41.895 -15.616   5.978  1.00  0.00     0.236 C 
HETATM   12  C   UNL     1      41.742 -14.108   6.082  1.00  0.00     0.029 C 
HETATM   13  C   UNL     1      43.087 -13.566   5.669  1.00  0.00     0.029 C 
HETATM   14  C   UNL     1      43.459 -14.466   4.514  1.00  0.00     0.236 C 
ENDBRANCH   8   9
BRANCH   8  15
HETATM   15  C   UNL     1      43.377 -18.128   3.851  1.00  0.00     0.007 A 
HETATM   16  C   UNL     1      43.441 -18.943   2.703  1.00  0.00     0.076 A 
HETATM   17  C   UNL     1      44.098 -20.175   2.756  1.00  0.00     0.037 A 
HETATM   18  C   UNL     1      44.668 -20.619   3.950  1.00  0.00     0.003 A 
HETATM   19  C   UNL     1      44.580 -19.840   5.098  1.00  0.00     0.001 A 
HETATM   20  C   UNL     1      43.932 -18.606   5.055  1.00  0.00     0.012 A 
BRANCH  16  21
HETATM   21  O   UNL     1      42.845 -18.437   1.579  1.00  0.00    -0.355 OA
HETATM   22  C   UNL     1      43.642 -17.610   0.735  1.00  0.00     0.210 C 
ENDBRANCH  16  21
ENDBRANCH   8  15
ENDBRANCH   7   8
ENDBRANCH   3   7
BRANCH   1  23
HETATM   23  C   UNL     1      38.779 -13.969   0.754  1.00  0.00     0.086 C 
HETATM   24  C   UNL     1      37.259 -14.147   0.711  1.00  0.00     0.032 C 
BRANCH  23  25
HETATM   25  C   UNL     1      39.296 -13.385  -0.582  1.00  0.00     0.063 C 
BRANCH  25  26
HETATM   26  C   UNL     1      39.161 -14.232  -1.837  1.00  0.00    -0.056 A 
HETATM   27  C   UNL     1      40.273 -14.996  -2.240  1.00  0.00     0.010 A 
HETATM   28  C   UNL     1      40.213 -15.817  -3.369  1.00  0.00     0.037 A 
HETATM   29  C   UNL     1      39.040 -15.870  -4.110  1.00  0.00     0.065 A 
HETATM   30  C   UNL     1      37.926 -15.138  -3.725  1.00  0.00     0.037 A 
HETATM   31  C   UNL     1      37.978 -14.339  -2.580  1.00  0.00     0.010 A 
BRANCH  29  32
HETATM   32  O   UNL     1      38.940 -16.639  -5.229  1.00  0.00    -0.361 OA
HETATM   33  H   UNL     1      38.171 -16.343  -5.746  1.00  0.00     0.217 HD
ENDBRANCH  29  32
ENDBRANCH  25  26
ENDBRANCH  23  25
ENDBRANCH   1  23
TORSDOF 9
ENDMDL
MODEL 3
REMARK VINA RESULT:      -8.4      2.414      8.934
REMARK  9 active torsions:
REMARK  status: ('A' for Active; 'I' for Inactive)
REMARK    1  A    between atoms: C_2  and  N_3 
REMARK    2  A    between atoms: C_2  and  C_23 
REMARK       I    between atoms: N_3  and  C_4 
REMARK       I    between atoms: C_4  and  N_5 
REMARK    3  A    between atoms: N_5  and  C_6 
REMARK    4  A    between atoms: C_6  and  C_7 
REMARK    5  A    between atoms: C_7  and  N_8 
REMARK    6  A    between atoms: C_7  and  C_14 
REMARK    7  A    between atoms: C_15  and  O_16 
REMARK    8  A    between atoms: C_23  and  C_24 
REMARK    9  A    between atoms: C_27  and  O_28 
ROOT
HETATM    1  N   UNL     1      42.016 -16.046   2.395  1.00  0.00    -0.339 N 
HETATM    2  C   UNL     1      41.999 -15.843   1.047  1.00  0.00     0.316 C 
HETATM    3  N   UNL     1      41.575 -14.572   0.734  1.00  0.00    -0.341 N 
HETATM    4  O   UNL     1      42.242 -16.688   0.200  1.00  0.00    -0.248 OA
HETATM    5  H   UNL     1      41.602 -15.329   2.972  1.00  0.00     0.164 HD
HETATM    6  H   UNL     1      41.865 -13.891   1.425  1.00  0.00     0.164 HD
ENDROOT
BRANCH   3   7
HETATM    7  C   UNL     1      41.651 -14.119  -0.648  1.00  0.00     0.162 C 
BRANCH   7   8
HETATM    8  C   UNL     1      40.415 -13.366  -1.248  1.00  0.00     0.241 C 
BRANCH   8   9
HETATM    9  N   UNL     1      40.816 -12.011  -1.876  1.00  0.00    -0.061 N 
HETATM   10  H   UNL     1      40.069 -11.344  -1.669  1.00  0.00     0.280 HD
HETATM   11  C   UNL     1      40.991 -12.030  -3.391  1.00  0.00     0.236 C 
HETATM   12  C   UNL     1      42.380 -11.473  -3.650  1.00  0.00     0.029 C 
HETATM   13  C   UNL     1      42.672 -10.618  -2.442  1.00  0.00     0.029 C 
HETATM   14  C   UNL     1      42.113 -11.452  -1.313  1.00  0.00     0.236 C 
ENDBRANCH   8   9
BRANCH   8  15
HETATM   15  C   UNL     1      39.760 -14.316  -2.256  1.00  0.00     0.007 A 
HETATM   16  C   UNL     1      38.427 -14.098  -2.661  1.00  0.00     0.076 A 
HETATM   17  C   UNL     1      37.822 -14.969  -3.571  1.00  0.00     0.037 A 
HETATM   18  C   UNL     1      38.520 -16.073  -4.061  1.00  0.00     0.003 A 
HETATM   19  C   UNL     1      39.823 -16.319  -3.641  1.00  0.00     0.001 A 
HETATM   20  C   UNL     1      40.439 -15.453  -2.738  1.00  0.00     0.012 A 
BRANCH  16  21
HETATM   21  O   UNL     1      37.813 -13.000  -2.122  1.00  0.00    -0.355 OA
HETATM   22  C   UNL     1      37.021 -12.200  -2.998  1.00  0.00     0.210 C 
ENDBRANCH  16  21
ENDBRANCH   8  15
ENDBRANCH   7   8
ENDBRANCH   3   7
BRANCH   1  23
HETATM   23  C   UNL     1      42.199 -17.357   3.023  1.00  0.00     0.086 C 
HETATM   24  C   UNL     1      41.517 -17.427   4.391  1.00  0.00     0.032 C 
BRANCH  23  25
HETATM   25  C   UNL     1      43.681 -17.789   3.131  1.00  0.00     0.063 C 
BRANCH  25  26
HETATM   26  C   UNL     1      43.992 -19.271   3.249  1.00  0.00    -0.056 A 
HETATM   27  C   UNL     1      43.714 -20.095   2.142  1.00  0.00     0.010 A 
HETATM   28  C   UNL     1      43.996 -21.463   2.171  1.00  0.00     0.037 A 
HETATM   29  C   UNL     1      44.550 -22.019   3.316  1.00  0.00     0.065 A 
HETATM   30  C   UNL     1      44.848 -21.226   4.415  1.00  0.00     0.037 A 
HETATM   31  C   UNL     1      44.591 -19.854   4.375  1.00  0.00     0.010 A 
BRANCH  29  32
HETATM   32  O   UNL     1      44.824 -23.350   3.399  1.00  0.00    -0.361 OA
HETATM   33  H   UNL     1      45.477 -23.579   2.715  1.00  0.00     0.217 HD
ENDBRANCH  29  32
ENDBRANCH  25  26
ENDBRANCH  23  25
ENDBRANCH   1  23
TORSDOF 9
ENDMDL
MODEL 4
REMARK VINA RESULT:      -8.2      5.470      9.890
REMARK  9 active torsions:
REMARK  status: ('A' for Active; 'I' for Inactive)
REMARK    1  A    between atoms: C_2  and  N_3 
REMARK    2  A    between atoms: C_2  and  C_23 
REMARK       I    between atoms: N_3  and  C_4 
REMARK       I    between atoms: C_4  and  N_5 
REMARK    3  A    between atoms: N_5  and  C_6 
REMARK    4  A    between atoms: C_6  and  C_7 
REMARK    5  A    between atoms: C_7  and  N_8 
REMARK    6  A    between atoms: C_7  and  C_14 
REMARK    7  A    between atoms: C_15  and  O_16 
REMARK    8  A    between atoms: C_23  and  C_24 
REMARK    9  A    between atoms: C_27  and  O_28 
ROOT
HETATM    1  N   UNL     1      44.094 -13.273   8.585  1.00  0.00    -0.339 N 
HETATM    2  C   UNL     1      44.524 -14.016   7.526  1.00  0.00     0.316 C 
HETATM    3  N   UNL     1      43.952 -15.267   7.523  1.00  0.00    -0.341 N 
HETATM    4  O   UNL     1      45.371 -13.672   6.717  1.00  0.00    -0.248 OA
HETATM    5  H   UNL     1      43.546 -13.748   9.286  1.00  0.00     0.164 HD
HETATM    6  H   UNL     1      43.005 -15.256   7.884  1.00  0.00     0.164 HD
ENDROOT
BRANCH   3   7
HETATM    7  C   UNL     1      44.162 -16.141   6.377  1.00  0.00     0.162 C 
BRANCH   7   8
HETATM    8  C   UNL     1      42.966 -17.032   5.897  1.00  0.00     0.241 C 
BRANCH   8   9
HETATM    9  N   UNL     1      41.862 -16.193   5.214  1.00  0.00    -0.061 N 
HETATM   10  H   UNL     1      41.505 -16.738   4.426  1.00  0.00     0.280 HD
HETATM   11  C   UNL     1      42.325 -14.851   4.656  1.00  0.00     0.236 C 
HETATM   12  C   UNL     1      41.401 -13.812   5.267  1.00  0.00     0.029 C 
HETATM   13  C   UNL     1      40.145 -14.577   5.601  1.00  0.00     0.029 C 
HETATM   14  C   UNL     1      40.693 -15.880   6.135  1.00  0.00     0.236 C 
ENDBRANCH   8   9
BRANCH   8  15
HETATM   15  C   UNL     1      43.551 -18.106   4.974  1.00  0.00     0.007 A 
HETATM   16  C   UNL     1      44.195 -19.232   5.528  1.00  0.00     0.076 A 
HETATM   17  C   UNL     1      44.741 -20.207   4.690  1.00  0.00     0.037 A 
HETATM   18  C   UNL     1      44.678 -20.061   3.304  1.00  0.00     0.003 A 
HETATM   19  C   UNL     1      44.078 -18.938   2.746  1.00  0.00     0.001 A 
HETATM   20  C   UNL     1      43.524 -17.961   3.573  1.00  0.00     0.012 A 
BRANCH  16  21
HETATM   21  O   UNL     1      44.223 -19.289   6.895  1.00  0.00    -0.355 OA
HETATM   22  C   UNL     1      43.611 -20.419   7.513  1.00  0.00     0.210 C 
ENDBRANCH  16  21
ENDBRANCH   8  15
ENDBRANCH   7   8
ENDBRANCH   3   7
BRANCH   1  23
HETATM   23  C   UNL     1      44.692 -11.996   8.985  1.00  0.00     0.086 C 
HETATM   24  C   UNL     1      45.667 -12.171  10.152  1.00  0.00     0.032 C 
BRANCH  23  25
HETATM   25  C   UNL     1      43.648 -10.900   9.307  1.00  0.00     0.063 C 
BRANCH  25  26
HETATM   26  C   UNL     1      43.243 -10.696  10.757  1.00  0.00    -0.056 A 
HETATM   27  C   UNL     1      42.106 -11.381  11.227  1.00  0.00     0.010 A 
HETATM   28  C   UNL     1      41.689 -11.262  12.556  1.00  0.00     0.037 A 
HETATM   29  C   UNL     1      42.404 -10.445  13.421  1.00  0.00     0.065 A 
HETATM   30  C   UNL     1      43.536  -9.771  12.986  1.00  0.00     0.037 A 
HETATM   31  C   UNL     1      43.968  -9.913  11.666  1.00  0.00     0.010 A 
BRANCH  29  32
HETATM   32  O   UNL     1      42.025 -10.281  14.719  1.00  0.00    -0.361 OA
HETATM   33  H   UNL     1      42.722  -9.792  15.190  1.00  0.00     0.217 HD
ENDBRANCH  29  32
ENDBRANCH  25  26
ENDBRANCH  23  25
ENDBRANCH   1  23
TORSDOF 9
ENDMDL
MODEL 5
REMARK VINA RESULT:      -7.7      2.593      9.081
REMARK  9 active torsions:
REMARK  status: ('A' for Active; 'I' for Inactive)
REMARK    1  A    between atoms: C_2  and  N_3 
REMARK    2  A    between atoms: C_2  and  C_23 
REMARK       I    between atoms: N_3  and  C_4 
REMARK       I    between atoms: C_4  and  N_5 
REMARK    3  A    between atoms: N_5  and  C_6 
REMARK    4  A    between atoms: C_6  and  C_7 
REMARK    5  A    between atoms: C_7  and  N_8 
REMARK    6  A    between atoms: C_7  and  C_14 
REMARK    7  A    between atoms: C_15  and  O_16 
REMARK    8  A    between atoms: C_23  and  C_24 
REMARK    9  A    between atoms: C_27  and  O_28 
ROOT
HETATM    1  N   UNL     1      41.658 -17.120   0.565  1.00  0.00    -0.339 N 
HETATM    2  C   UNL     1      41.798 -15.772   0.424  1.00  0.00     0.316 C 
HETATM    3  N   UNL     1      41.647 -15.385  -0.888  1.00  0.00    -0.341 N 
HETATM    4  O   UNL     1      42.102 -14.993   1.314  1.00  0.00    -0.248 OA
HETATM    5  H   UNL     1      41.606 -17.667  -0.281  1.00  0.00     0.164 HD
HETATM    6  H   UNL     1      40.974 -15.958  -1.382  1.00  0.00     0.164 HD
ENDROOT
BRANCH   3   7
HETATM    7  C   UNL     1      41.597 -13.965  -1.208  1.00  0.00     0.162 C 
BRANCH   7   8
HETATM    8  C   UNL     1      40.318 -13.413  -1.927  1.00  0.00     0.241 C 
BRANCH   8   9
HETATM    9  N   UNL     1      39.287 -12.857  -0.919  1.00  0.00    -0.061 N 
HETATM   10  H   UNL     1      38.912 -11.989  -1.310  1.00  0.00     0.280 HD
HETATM   11  C   UNL     1      39.849 -12.520   0.458  1.00  0.00     0.236 C 
HETATM   12  C   UNL     1      38.983 -13.275   1.451  1.00  0.00     0.029 C 
HETATM   13  C   UNL     1      37.672 -13.471   0.731  1.00  0.00     0.029 C 
HETATM   14  C   UNL     1      38.121 -13.802  -0.673  1.00  0.00     0.236 C 
ENDBRANCH   8   9
BRANCH   8  15
HETATM   15  C   UNL     1      40.792 -12.360  -2.934  1.00  0.00     0.007 A 
HETATM   16  C   UNL     1      39.873 -11.793  -3.840  1.00  0.00     0.076 A 
HETATM   17  C   UNL     1      40.302 -10.841  -4.767  1.00  0.00     0.037 A 
HETATM   18  C   UNL     1      41.646 -10.466  -4.822  1.00  0.00     0.003 A 
HETATM   19  C   UNL     1      42.568 -11.044  -3.958  1.00  0.00     0.001 A 
HETATM   20  C   UNL     1      42.149 -11.991  -3.023  1.00  0.00     0.012 A 
BRANCH  16  21
HETATM   21  O   UNL     1      38.580 -12.227  -3.726  1.00  0.00    -0.355 OA
HETATM   22  C   UNL     1      37.548 -11.270  -3.957  1.00  0.00     0.210 C 
ENDBRANCH  16  21
ENDBRANCH   8  15
ENDBRANCH   7   8
ENDBRANCH   3   7
BRANCH   1  23
HETATM   23  C   UNL     1      41.989 -17.853   1.791  1.00  0.00     0.086 C 
HETATM   24  C   UNL     1      41.487 -17.121   3.038  1.00  0.00     0.032 C 
BRANCH  23  25
HETATM   25  C   UNL     1      43.494 -18.187   1.924  1.00  0.00     0.063 C 
BRANCH  25  26
HETATM   26  C   UNL     1      43.883 -19.518   2.545  1.00  0.00    -0.056 A 
HETATM   27  C   UNL     1      43.708 -20.682   1.774  1.00  0.00     0.010 A 
HETATM   28  C   UNL     1      44.067 -21.938   2.272  1.00  0.00     0.037 A 
HETATM   29  C   UNL     1      44.595 -22.036   3.552  1.00  0.00     0.065 A 
HETATM   30  C   UNL     1      44.791 -20.902   4.326  1.00  0.00     0.037 A 
HETATM   31  C   UNL     1      44.458 -19.644   3.817  1.00  0.00     0.010 A 
BRANCH  29  32
HETATM   32  O   UNL     1      44.941 -23.239   4.087  1.00  0.00    -0.361 OA
HETATM   33  H   UNL     1      45.422 -23.087   4.919  1.00  0.00     0.217 HD
ENDBRANCH  29  32
ENDBRANCH  25  26
ENDBRANCH  23  25
ENDBRANCH   1  23
TORSDOF 9
ENDMDL
MODEL 6
REMARK VINA RESULT:      -7.7      2.003      2.398
REMARK  9 active torsions:
REMARK  status: ('A' for Active; 'I' for Inactive)
REMARK    1  A    between atoms: C_2  and  N_3 
REMARK    2  A    between atoms: C_2  and  C_23 
REMARK       I    between atoms: N_3  and  C_4 
REMARK       I    between atoms: C_4  and  N_5 
REMARK    3  A    between atoms: N_5  and  C_6 
REMARK    4  A    between atoms: C_6  and  C_7 
REMARK    5  A    between atoms: C_7  and  N_8 
REMARK    6  A    between atoms: C_7  and  C_14 
REMARK    7  A    between atoms: C_15  and  O_16 
REMARK    8  A    between atoms: C_23  and  C_24 
REMARK    9  A    between atoms: C_27  and  O_28 
ROOT
HETATM    1  N   UNL     1      40.004 -15.173  -0.075  1.00  0.00    -0.339 N 
HETATM    2  C   UNL     1      41.283 -15.235   0.391  1.00  0.00     0.316 C 
HETATM    3  N   UNL     1      41.553 -16.456   0.964  1.00  0.00    -0.341 N 
HETATM    4  O   UNL     1      42.083 -14.312   0.391  1.00  0.00    -0.248 OA
HETATM    5  H   UNL     1      39.390 -15.936   0.167  1.00  0.00     0.164 HD
HETATM    6  H   UNL     1      41.061 -17.212   0.503  1.00  0.00     0.164 HD
ENDROOT
BRANCH   3   7
HETATM    7  C   UNL     1      42.917 -16.766   1.367  1.00  0.00     0.162 C 
BRANCH   7   8
HETATM    8  C   UNL     1      43.199 -17.022   2.887  1.00  0.00     0.241 C 
BRANCH   8   9
HETATM    9  N   UNL     1      41.971 -16.685   3.764  1.00  0.00    -0.061 N 
HETATM   10  H   UNL     1      41.210 -16.416   3.136  1.00  0.00     0.280 HD
HETATM   11  C   UNL     1      42.174 -15.531   4.740  1.00  0.00     0.236 C 
HETATM   12  C   UNL     1      41.798 -16.079   6.106  1.00  0.00     0.029 C 
HETATM   13  C   UNL     1      40.852 -17.215   5.807  1.00  0.00     0.029 C 
HETATM   14  C   UNL     1      41.494 -17.861   4.601  1.00  0.00     0.236 C 
ENDBRANCH   8   9
BRANCH   8  15
HETATM   15  C   UNL     1      43.640 -18.483   3.019  1.00  0.00     0.007 A 
HETATM   16  C   UNL     1      44.379 -18.894   4.148  1.00  0.00     0.076 A 
HETATM   17  C   UNL     1      44.793 -20.222   4.267  1.00  0.00     0.037 A 
HETATM   18  C   UNL     1      44.505 -21.144   3.259  1.00  0.00     0.003 A 
HETATM   19  C   UNL     1      43.809 -20.742   2.124  1.00  0.00     0.001 A 
HETATM   20  C   UNL     1      43.385 -19.420   1.997  1.00  0.00     0.012 A 
BRANCH  16  21
HETATM   21  O   UNL     1      44.628 -17.924   5.081  1.00  0.00    -0.355 OA
HETATM   22  C   UNL     1      44.976 -18.357   6.395  1.00  0.00     0.210 C 
ENDBRANCH  16  21
ENDBRANCH   8  15
ENDBRANCH   7   8
ENDBRANCH   3   7
BRANCH   1  23
HETATM   23  C   UNL     1      39.355 -13.938  -0.525  1.00  0.00     0.086 C 
HETATM   24  C   UNL     1      38.021 -13.710   0.188  1.00  0.00     0.032 C 
BRANCH  23  25
HETATM   25  C   UNL     1      39.173 -13.861  -2.060  1.00  0.00     0.063 C 
BRANCH  25  26
HETATM   26  C   UNL     1      40.160 -13.028  -2.860  1.00  0.00    -0.056 A 
HETATM   27  C   UNL     1      39.646 -12.018  -3.695  1.00  0.00     0.010 A 
HETATM   28  C   UNL     1      40.496 -11.196  -4.441  1.00  0.00     0.037 A 
HETATM   29  C   UNL     1      41.868 -11.389  -4.364  1.00  0.00     0.065 A 
HETATM   30  C   UNL     1      42.400 -12.368  -3.537  1.00  0.00     0.037 A 
HETATM   31  C   UNL     1      41.551 -13.170  -2.771  1.00  0.00     0.010 A 
BRANCH  29  32
HETATM   32  O   UNL     1      42.735 -10.628  -5.087  1.00  0.00    -0.361 OA
HETATM   33  H   UNL     1      42.806 -10.998  -5.983  1.00  0.00     0.217 HD
ENDBRANCH  29  32
ENDBRANCH  25  26
ENDBRANCH  23  25
ENDBRANCH   1  23
TORSDOF 9
ENDMDL
MODEL 7
REMARK VINA RESULT:      -7.6      1.794      3.278
REMARK  9 active torsions:
REMARK  status: ('A' for Active; 'I' for Inactive)
REMARK    1  A    between atoms: C_2  and  N_3 
REMARK    2  A    between atoms: C_2  and  C_23 
REMARK       I    between atoms: N_3  and  C_4 
REMARK       I    between atoms: C_4  and  N_5 
REMARK    3  A    between atoms: N_5  and  C_6 
REMARK    4  A    between atoms: C_6  and  C_7 
REMARK    5  A    between atoms: C_7  and  N_8 
REMARK    6  A    between atoms: C_7  and  C_14 
REMARK    7  A    between atoms: C_15  and  O_16 
REMARK    8  A    between atoms: C_23  and  C_24 
REMARK    9  A    between atoms: C_27  and  O_28 
ROOT
HETATM    1  N   UNL     1      39.198 -13.726   2.120  1.00  0.00    -0.339 N 
HETATM    2  C   UNL     1      40.299 -13.987   2.880  1.00  0.00     0.316 C 
HETATM    3  N   UNL     1      40.165 -15.170   3.570  1.00  0.00    -0.341 N 
HETATM    4  O   UNL     1      41.258 -13.244   3.018  1.00  0.00    -0.248 OA
HETATM    5  H   UNL     1      38.397 -14.324   2.252  1.00  0.00     0.164 HD
HETATM    6  H   UNL     1      39.637 -15.860   3.049  1.00  0.00     0.164 HD
ENDROOT
BRANCH   3   7
HETATM    7  C   UNL     1      41.307 -15.697   4.304  1.00  0.00     0.162 C 
BRANCH   7   8
HETATM    8  C   UNL     1      41.809 -17.140   3.955  1.00  0.00     0.241 C 
BRANCH   8   9
HETATM    9  N   UNL     1      42.139 -17.286   2.452  1.00  0.00    -0.061 N 
HETATM   10  H   UNL     1      42.645 -18.168   2.334  1.00  0.00     0.280 HD
HETATM   11  C   UNL     1      43.023 -16.184   1.877  1.00  0.00     0.236 C 
HETATM   12  C   UNL     1      42.269 -15.639   0.677  1.00  0.00     0.029 C 
HETATM   13  C   UNL     1      41.376 -16.776   0.247  1.00  0.00     0.029 C 
HETATM   14  C   UNL     1      40.902 -17.333   1.570  1.00  0.00     0.236 C 
ENDBRANCH   8   9
BRANCH   8  15
HETATM   15  C   UNL     1      43.013 -17.424   4.859  1.00  0.00     0.007 A 
HETATM   16  C   UNL     1      43.754 -18.612   4.687  1.00  0.00     0.076 A 
HETATM   17  C   UNL     1      44.846 -18.880   5.516  1.00  0.00     0.037 A 
HETATM   18  C   UNL     1      45.193 -17.992   6.535  1.00  0.00     0.003 A 
HETATM   19  C   UNL     1      44.449 -16.836   6.737  1.00  0.00     0.001 A 
HETATM   20  C   UNL     1      43.360 -16.554   5.912  1.00  0.00     0.012 A 
BRANCH  16  21
HETATM   21  O   UNL     1      43.338 -19.432   3.674  1.00  0.00    -0.355 OA
HETATM   22  C   UNL     1      44.342 -20.159   2.968  1.00  0.00     0.210 C 
ENDBRANCH  16  21
ENDBRANCH   8  15
ENDBRANCH   7   8
ENDBRANCH   3   7
BRANCH   1  23
HETATM   23  C   UNL     1      38.947 -12.443   1.458  1.00  0.00     0.086 C 
HETATM   24  C   UNL     1      37.961 -11.583   2.251  1.00  0.00     0.032 C 
BRANCH  23  25
HETATM   25  C   UNL     1      38.484 -12.587  -0.012  1.00  0.00     0.063 C 
BRANCH  25  26
HETATM   26  C   UNL     1      39.445 -13.212  -1.010  1.00  0.00    -0.056 A 
HETATM   27  C   UNL     1      40.750 -12.690  -1.086  1.00  0.00     0.010 A 
HETATM   28  C   UNL     1      41.694 -13.231  -1.963  1.00  0.00     0.037 A 
HETATM   29  C   UNL     1      41.332 -14.294  -2.780  1.00  0.00     0.065 A 
HETATM   30  C   UNL     1      40.057 -14.835  -2.714  1.00  0.00     0.037 A 
HETATM   31  C   UNL     1      39.122 -14.311  -1.817  1.00  0.00     0.010 A 
BRANCH  29  32
HETATM   32  O   UNL     1      42.211 -14.841  -3.664  1.00  0.00    -0.361 OA
HETATM   33  H   UNL     1      41.710 -15.284  -4.370  1.00  0.00     0.217 HD
ENDBRANCH  29  32
ENDBRANCH  25  26
ENDBRANCH  23  25
ENDBRANCH   1  23
TORSDOF 9
ENDMDL
MODEL 8
REMARK VINA RESULT:      -7.6      4.670      9.090
REMARK  9 active torsions:
REMARK  status: ('A' for Active; 'I' for Inactive)
REMARK    1  A    between atoms: C_2  and  N_3 
REMARK    2  A    between atoms: C_2  and  C_23 
REMARK       I    between atoms: N_3  and  C_4 
REMARK       I    between atoms: C_4  and  N_5 
REMARK    3  A    between atoms: N_5  and  C_6 
REMARK    4  A    between atoms: C_6  and  C_7 
REMARK    5  A    between atoms: C_7  and  N_8 
REMARK    6  A    between atoms: C_7  and  C_14 
REMARK    7  A    between atoms: C_15  and  O_16 
REMARK    8  A    between atoms: C_23  and  C_24 
REMARK    9  A    between atoms: C_27  and  O_28 
ROOT
HETATM    1  N   UNL     1      39.571 -11.759   8.198  1.00  0.00    -0.339 N 
HETATM    2  C   UNL     1      39.971 -12.232   6.984  1.00  0.00     0.316 C 
HETATM    3  N   UNL     1      39.730 -13.581   6.864  1.00  0.00    -0.341 N 
HETATM    4  O   UNL     1      40.549 -11.583   6.126  1.00  0.00    -0.248 OA
HETATM    5  H   UNL     1      39.292 -12.441   8.886  1.00  0.00     0.164 HD
HETATM    6  H   UNL     1      38.891 -13.865   7.356  1.00  0.00     0.164 HD
ENDROOT
BRANCH   3   7
HETATM    7  C   UNL     1      39.936 -14.227   5.576  1.00  0.00     0.162 C 
BRANCH   7   8
HETATM    8  C   UNL     1      40.763 -15.558   5.541  1.00  0.00     0.241 C 
BRANCH   8   9
HETATM    9  N   UNL     1      40.610 -16.295   4.191  1.00  0.00    -0.061 N 
HETATM   10  H   UNL     1      39.758 -16.859   4.244  1.00  0.00     0.280 HD
HETATM   11  C   UNL     1      41.751 -17.245   3.842  1.00  0.00     0.236 C 
HETATM   12  C   UNL     1      42.229 -16.821   2.464  1.00  0.00     0.029 C 
HETATM   13  C   UNL     1      41.034 -16.141   1.845  1.00  0.00     0.029 C 
HETATM   14  C   UNL     1      40.474 -15.352   3.006  1.00  0.00     0.236 C 
ENDBRANCH   8   9
BRANCH   8  15
HETATM   15  C   UNL     1      42.217 -15.188   5.853  1.00  0.00     0.007 A 
HETATM   16  C   UNL     1      42.954 -15.957   6.778  1.00  0.00     0.076 A 
HETATM   17  C   UNL     1      44.275 -15.616   7.074  1.00  0.00     0.037 A 
HETATM   18  C   UNL     1      44.866 -14.500   6.481  1.00  0.00     0.003 A 
HETATM   19  C   UNL     1      44.139 -13.713   5.595  1.00  0.00     0.001 A 
HETATM   20  C   UNL     1      42.820 -14.047   5.286  1.00  0.00     0.012 A 
BRANCH  16  21
HETATM   21  O   UNL     1      42.294 -17.025   7.323  1.00  0.00    -0.355 OA
HETATM   22  C   UNL     1      42.997 -18.265   7.381  1.00  0.00     0.210 C 
ENDBRANCH  16  21
ENDBRANCH   8  15
ENDBRANCH   7   8
ENDBRANCH   3   7
BRANCH   1  23
HETATM   23  C   UNL     1      39.902 -10.424   8.706  1.00  0.00     0.086 C 
HETATM   24  C   UNL     1      39.014  -9.347   8.079  1.00  0.00     0.032 C 
BRANCH  23  25
HETATM   25  C   UNL     1      41.397 -10.057   8.550  1.00  0.00     0.063 C 
BRANCH  25  26
HETATM   26  C   UNL     1      42.418 -10.840   9.358  1.00  0.00    -0.056 A 
HETATM   27  C   UNL     1      43.474 -11.460   8.665  1.00  0.00     0.010 A 
HETATM   28  C   UNL     1      44.463 -12.176   9.345  1.00  0.00     0.037 A 
HETATM   29  C   UNL     1      44.394 -12.284  10.728  1.00  0.00     0.065 A 
HETATM   30  C   UNL     1      43.372 -11.669  11.436  1.00  0.00     0.037 A 
HETATM   31  C   UNL     1      42.399 -10.931  10.757  1.00  0.00     0.010 A 
BRANCH  29  32
HETATM   32  O   UNL     1      45.323 -12.987  11.433  1.00  0.00    -0.361 OA
HETATM   33  H   UNL     1      45.535 -13.802  10.947  1.00  0.00     0.217 HD
ENDBRANCH  29  32
ENDBRANCH  25  26
ENDBRANCH  23  25
ENDBRANCH   1  23
TORSDOF 9
ENDMDL
MODEL 9
REMARK VINA RESULT:      -7.5      2.273      8.501
REMARK  9 active torsions:
REMARK  status: ('A' for Active; 'I' for Inactive)
REMARK    1  A    between atoms: C_2  and  N_3 
REMARK    2  A    between atoms: C_2  and  C_23 
REMARK       I    between atoms: N_3  and  C_4 
REMARK       I    between atoms: C_4  and  N_5 
REMARK    3  A    between atoms: N_5  and  C_6 
REMARK    4  A    between atoms: C_6  and  C_7 
REMARK    5  A    between atoms: C_7  and  N_8 
REMARK    6  A    between atoms: C_7  and  C_14 
REMARK    7  A    between atoms: C_15  and  O_16 
REMARK    8  A    between atoms: C_23  and  C_24 
REMARK    9  A    between atoms: C_27  and  O_28 
ROOT
HETATM    1  N   UNL     1      41.869 -16.125   3.215  1.00  0.00    -0.339 N 
HETATM    2  C   UNL     1      40.691 -15.706   2.674  1.00  0.00     0.316 C 
HETATM    3  N   UNL     1      40.621 -14.333   2.621  1.00  0.00    -0.341 N 
HETATM    4  O   UNL     1      39.764 -16.430   2.347  1.00  0.00    -0.248 OA
HETATM    5  H   UNL     1      42.463 -15.420   3.624  1.00  0.00     0.164 HD
HETATM    6  H   UNL     1      41.526 -13.910   2.453  1.00  0.00     0.164 HD
ENDROOT
BRANCH   3   7
HETATM    7  C   UNL     1      39.509 -13.705   1.921  1.00  0.00     0.162 C 
BRANCH   7   8
HETATM    8  C   UNL     1      39.409 -13.898   0.369  1.00  0.00     0.241 C 
BRANCH   8   9
HETATM    9  N   UNL     1      38.031 -13.459  -0.177  1.00  0.00    -0.061 N 
HETATM   10  H   UNL     1      37.424 -14.282  -0.177  1.00  0.00     0.280 HD
HETATM   11  C   UNL     1      38.047 -12.916  -1.603  1.00  0.00     0.236 C 
HETATM   12  C   UNL     1      37.382 -11.552  -1.529  1.00  0.00     0.029 C 
HETATM   13  C   UNL     1      36.498 -11.631  -0.310  1.00  0.00     0.029 C 
HETATM   14  C   UNL     1      37.366 -12.386   0.670  1.00  0.00     0.236 C 
ENDBRANCH   8   9
BRANCH   8  15
HETATM   15  C   UNL     1      40.571 -13.117  -0.253  1.00  0.00     0.007 A 
HETATM   16  C   UNL     1      41.377 -13.725  -1.238  1.00  0.00     0.076 A 
HETATM   17  C   UNL     1      42.445 -13.020  -1.799  1.00  0.00     0.037 A 
HETATM   18  C   UNL     1      42.738 -11.725  -1.371  1.00  0.00     0.003 A 
HETATM   19  C   UNL     1      41.973 -11.128  -0.376  1.00  0.00     0.001 A 
HETATM   20  C   UNL     1      40.901 -11.819   0.188  1.00  0.00     0.012 A 
BRANCH  16  21
HETATM   21  O   UNL     1      41.028 -15.000  -1.589  1.00  0.00    -0.355 OA
HETATM   22  C   UNL     1      41.034 -15.318  -2.980  1.00  0.00     0.210 C 
ENDBRANCH  16  21
ENDBRANCH   8  15
ENDBRANCH   7   8
ENDBRANCH   3   7
BRANCH   1  23
HETATM   23  C   UNL     1      42.141 -17.510   3.612  1.00  0.00     0.086 C 
HETATM   24  C   UNL     1      41.628 -17.803   5.024  1.00  0.00     0.032 C 
BRANCH  23  25
HETATM   25  C   UNL     1      43.630 -17.910   3.479  1.00  0.00     0.063 C 
BRANCH  25  26
HETATM   26  C   UNL     1      43.984 -19.387   3.512  1.00  0.00    -0.056 A 
HETATM   27  C   UNL     1      43.782 -20.140   2.340  1.00  0.00     0.010 A 
HETATM   28  C   UNL     1      44.108 -21.498   2.289  1.00  0.00     0.037 A 
HETATM   29  C   UNL     1      44.629 -22.115   3.418  1.00  0.00     0.065 A 
HETATM   30  C   UNL     1      44.851 -21.391   4.581  1.00  0.00     0.037 A 
HETATM   31  C   UNL     1      44.551 -20.027   4.622  1.00  0.00     0.010 A 
BRANCH  29  32
HETATM   32  O   UNL     1      44.943 -23.440   3.424  1.00  0.00    -0.361 OA
HETATM   33  H   UNL     1      45.903 -23.535   3.299  1.00  0.00     0.217 HD
ENDBRANCH  29  32
ENDBRANCH  25  26
ENDBRANCH  23  25
ENDBRANCH   1  23
TORSDOF 9
ENDMDL
MODEL 10
REMARK VINA RESULT:      -7.5      2.306      9.363
REMARK  9 active torsions:
REMARK  status: ('A' for Active; 'I' for Inactive)
REMARK    1  A    between atoms: C_2  and  N_3 
REMARK    2  A    between atoms: C_2  and  C_23 
REMARK       I    between atoms: N_3  and  C_4 
REMARK       I    between atoms: C_4  and  N_5 
REMARK    3  A    between atoms: N_5  and  C_6 
REMARK    4  A    between atoms: C_6  and  C_7 
REMARK    5  A    between atoms: C_7  and  N_8 
REMARK    6  A    between atoms: C_7  and  C_14 
REMARK    7  A    between atoms: C_15  and  O_16 
REMARK    8  A    between atoms: C_23  and  C_24 
REMARK    9  A    between atoms: C_27  and  O_28 
ROOT
HETATM    1  N   UNL     1      43.530 -17.027   1.754  1.00  0.00    -0.339 N 
HETATM    2  C   UNL     1      42.419 -17.051   0.965  1.00  0.00     0.316 C 
HETATM    3  N   UNL     1      42.324 -15.915   0.194  1.00  0.00    -0.341 N 
HETATM    4  O   UNL     1      41.558 -17.916   0.980  1.00  0.00    -0.248 OA
HETATM    5  H   UNL     1      44.050 -16.163   1.787  1.00  0.00     0.164 HD
HETATM    6  H   UNL     1      43.232 -15.564  -0.085  1.00  0.00     0.164 HD
ENDROOT
BRANCH   3   7
HETATM    7  C   UNL     1      41.294 -15.839  -0.833  1.00  0.00     0.162 C 
BRANCH   7   8
HETATM    8  C   UNL     1      40.860 -14.421  -1.340  1.00  0.00     0.241 C 
BRANCH   8   9
HETATM    9  N   UNL     1      42.048 -13.638  -1.945  1.00  0.00    -0.061 N 
HETATM   10  H   UNL     1      42.855 -14.267  -1.957  1.00  0.00     0.280 HD
HETATM   11  C   UNL     1      42.464 -12.395  -1.165  1.00  0.00     0.236 C 
HETATM   12  C   UNL     1      42.444 -11.256  -2.170  1.00  0.00     0.029 C 
HETATM   13  C   UNL     1      42.644 -11.930  -3.504  1.00  0.00     0.029 C 
HETATM   14  C   UNL     1      41.795 -13.172  -3.369  1.00  0.00     0.236 C 
ENDBRANCH   8   9
BRANCH   8  15
HETATM   15  C   UNL     1      39.719 -14.635  -2.341  1.00  0.00     0.007 A 
HETATM   16  C   UNL     1      38.616 -13.756  -2.345  1.00  0.00     0.076 A 
HETATM   17  C   UNL     1      37.569 -13.954  -3.248  1.00  0.00     0.037 A 
HETATM   18  C   UNL     1      37.592 -15.035  -4.129  1.00  0.00     0.003 A 
HETATM   19  C   UNL     1      38.657 -15.929  -4.109  1.00  0.00     0.001 A 
HETATM   20  C   UNL     1      39.712 -15.738  -3.217  1.00  0.00     0.012 A 
BRANCH  16  21
HETATM   21  O   UNL     1      38.669 -12.730  -1.440  1.00  0.00    -0.355 OA
HETATM   22  C   UNL     1      37.455 -12.385  -0.775  1.00  0.00     0.210 C 
ENDBRANCH  16  21
ENDBRANCH   8  15
ENDBRANCH   7   8
ENDBRANCH   3   7
BRANCH   1  23
HETATM   23  C   UNL     1      43.782 -17.977   2.841  1.00  0.00     0.086 C 
HETATM   24  C   UNL     1      44.172 -19.357   2.305  1.00  0.00     0.032 C 
BRANCH  23  25
HETATM   25  C   UNL     1      42.610 -18.093   3.844  1.00  0.00     0.063 C 
BRANCH  25  26
HETATM   26  C   UNL     1      42.921 -17.994   5.328  1.00  0.00    -0.056 A 
HETATM   27  C   UNL     1      42.650 -16.775   5.979  1.00  0.00     0.010 A 
HETATM   28  C   UNL     1      42.888 -16.618   7.347  1.00  0.00     0.037 A 
HETATM   29  C   UNL     1      43.409 -17.681   8.072  1.00  0.00     0.065 A 
HETATM   30  C   UNL     1      43.670 -18.897   7.457  1.00  0.00     0.037 A 
HETATM   31  C   UNL     1      43.406 -19.061   6.095  1.00  0.00     0.010 A 
BRANCH  29  32
HETATM   32  O   UNL     1      43.676 -17.571   9.403  1.00  0.00    -0.361 OA
HETATM   33  H   UNL     1      43.191 -16.806   9.758  1.00  0.00     0.217 HD
ENDBRANCH  29  32
ENDBRANCH  25  26
ENDBRANCH  23  25
ENDBRANCH   1  23
TORSDOF 9
ENDMDL
