MODEL 1
REMARK VINA RESULT:     -10.5      0.000      0.000
REMARK  8 active torsions:
REMARK  status: ('A' for Active; 'I' for Inactive)
REMARK    1  A    between atoms: C_4  and  C_5 
REMARK    2  A    between atoms: C_5  and  N_6 
REMARK    3  A    between atoms: C_5  and  C_33 
REMARK    4  A    between atoms: N_10  and  C_11 
REMARK    5  A    between atoms: C_13  and  N_14 
REMARK    6  A    between atoms: N_14  and  C_15 
REMARK    7  A    between atoms: C_22  and  N_23 
REMARK    8  A    between atoms: N_23  and  C_24 
ROOT
HETATM    1  C   UNL     1      42.506 -14.278   5.879  1.00  0.00     0.756 A 
HETATM    2  N   UNL     1      43.416 -13.485   6.360  1.00  0.00     0.131 NA
HETATM    3  C   UNL     1      44.273 -13.971   7.305  1.00  0.00     0.757 A 
HETATM    4  N   UNL     1      44.118 -15.262   7.696  1.00  0.00    -0.016 N 
HETATM    5  C   UNL     1      43.207 -16.074   7.116  1.00  0.00     0.735 A 
HETATM    6  N   UNL     1      42.418 -15.612   6.195  1.00  0.00     0.129 NA
HETATM    7  H   UNL     1      44.838 -15.652   8.282  1.00  0.00     0.203 HD
ENDROOT
BRANCH   1   8
HETATM    8  N   UNL     1      41.585 -13.786   4.962  1.00  0.00    -0.210 N 
HETATM    9  C   UNL     1      40.522 -14.672   4.472  1.00  0.00     0.169 C 
HETATM   10  C   UNL     1      41.067 -15.512   3.300  1.00  0.00     0.256 C 
HETATM   11  N   UNL     1      41.595 -14.576   2.202  1.00  0.00    -0.056 N 
HETATM   12  H   UNL     1      40.806 -13.982   1.931  1.00  0.00     0.281 HD
HETATM   13  C   UNL     1      42.644 -13.601   2.754  1.00  0.00     0.256 C 
HETATM   14  C   UNL     1      42.049 -12.822   3.949  1.00  0.00     0.169 C 
BRANCH  11  15
HETATM   15  C   UNL     1      41.962 -15.319   0.918  1.00  0.00     0.254 C 
BRANCH  15  16
HETATM   16  C   UNL     1      41.039 -15.072  -0.272  1.00  0.00    -0.023 A 
HETATM   17  C   UNL     1      41.317 -15.718  -1.495  1.00  0.00     0.009 A 
HETATM   18  C   UNL     1      40.528 -15.498  -2.626  1.00  0.00     0.001 A 
HETATM   19  C   UNL     1      39.440 -14.635  -2.560  1.00  0.00     0.000 A 
HETATM   20  C   UNL     1      39.139 -13.994  -1.362  1.00  0.00     0.001 A 
HETATM   21  C   UNL     1      39.930 -14.210  -0.230  1.00  0.00     0.009 A 
ENDBRANCH  15  16
BRANCH  15  22
HETATM   22  C   UNL     1      42.415 -16.750   1.202  1.00  0.00    -0.023 A 
HETATM   23  C   UNL     1      43.798 -16.996   1.361  1.00  0.00     0.009 A 
HETATM   24  C   UNL     1      44.279 -18.273   1.654  1.00  0.00     0.001 A 
HETATM   25  C   UNL     1      43.390 -19.331   1.798  1.00  0.00     0.000 A 
HETATM   26  C   UNL     1      42.025 -19.114   1.643  1.00  0.00     0.001 A 
HETATM   27  C   UNL     1      41.541 -17.836   1.349  1.00  0.00     0.009 A 
ENDBRANCH  15  22
ENDBRANCH  11  15
ENDBRANCH   1   8
BRANCH   3  28
HETATM   28  N   UNL     1      45.155 -13.118   7.718  1.00  0.00    -0.062 NA
BRANCH  28  29
HETATM   29  C   UNL     1      44.852 -12.269   8.790  1.00  0.00     0.076 A 
HETATM   30  C   UNL     1      45.749 -12.158   9.855  1.00  0.00     0.032 A 
HETATM   31  C   UNL     1      45.470 -11.313  10.931  1.00  0.00     0.002 A 
HETATM   32  C   UNL     1      44.290 -10.569  10.946  1.00  0.00     0.000 A 
HETATM   33  C   UNL     1      43.399 -10.658   9.878  1.00  0.00     0.002 A 
HETATM   34  C   UNL     1      43.686 -11.495   8.799  1.00  0.00     0.032 A 
ENDBRANCH  28  29
ENDBRANCH   3  28
BRANCH   5  35
HETATM   35  N   UNL     1      43.223 -17.359   7.592  1.00  0.00    -0.189 N 
HETATM   36  H   UNL     1      42.487 -17.591   8.249  1.00  0.00     0.184 HD
BRANCH  35  37
HETATM   37  C   UNL     1      43.697 -18.481   6.879  1.00  0.00     0.049 A 
HETATM   38  C   UNL     1      44.439 -18.349   5.697  1.00  0.00     0.030 A 
HETATM   39  C   UNL     1      44.890 -19.474   5.003  1.00  0.00     0.002 A 
HETATM   40  C   UNL     1      44.594 -20.750   5.476  1.00  0.00     0.000 A 
HETATM   41  C   UNL     1      43.855 -20.898   6.646  1.00  0.00     0.002 A 
HETATM   42  C   UNL     1      43.413 -19.771   7.346  1.00  0.00     0.030 A 
ENDBRANCH  35  37
ENDBRANCH   5  35
TORSDOF 8
ENDMDL
MODEL 2
REMARK VINA RESULT:     -10.4      0.558      5.282
REMARK  8 active torsions:
REMARK  status: ('A' for Active; 'I' for Inactive)
REMARK    1  A    between atoms: C_4  and  C_5 
REMARK    2  A    between atoms: C_5  and  N_6 
REMARK    3  A    between atoms: C_5  and  C_33 
REMARK    4  A    between atoms: N_10  and  C_11 
REMARK    5  A    between atoms: C_13  and  N_14 
REMARK    6  A    between atoms: N_14  and  C_15 
REMARK    7  A    between atoms: C_22  and  N_23 
REMARK    8  A    between atoms: N_23  and  C_24 
ROOT
HETATM    1  C   UNL     1      42.316 -14.258   5.769  1.00  0.00     0.756 A 
HETATM    2  N   UNL     1      42.093 -15.492   6.106  1.00  0.00     0.131 NA
HETATM    3  C   UNL     1      42.943 -16.093   6.990  1.00  0.00     0.757 A 
HETATM    4  N   UNL     1      43.984 -15.360   7.464  1.00  0.00    -0.016 N 
HETATM    5  C   UNL     1      44.135 -14.056   7.146  1.00  0.00     0.735 A 
HETATM    6  N   UNL     1      43.304 -13.485   6.330  1.00  0.00     0.129 NA
HETATM    7  H   UNL     1      44.518 -15.759   8.218  1.00  0.00     0.203 HD
ENDROOT
BRANCH   1   8
HETATM    8  N   UNL     1      41.499 -13.648   4.824  1.00  0.00    -0.210 N 
HETATM    9  C   UNL     1      40.354 -14.392   4.284  1.00  0.00     0.169 C 
HETATM   10  C   UNL     1      40.836 -15.284   3.123  1.00  0.00     0.256 C 
HETATM   11  N   UNL     1      41.517 -14.412   2.057  1.00  0.00    -0.056 N 
HETATM   12  H   UNL     1      40.818 -13.722   1.765  1.00  0.00     0.281 HD
HETATM   13  C   UNL     1      42.656 -13.578   2.660  1.00  0.00     0.256 C 
HETATM   14  C   UNL     1      42.116 -12.741   3.842  1.00  0.00     0.169 C 
BRANCH  11  15
HETATM   15  C   UNL     1      41.838 -15.183   0.779  1.00  0.00     0.254 C 
BRANCH  15  16
HETATM   16  C   UNL     1      40.883 -14.951  -0.389  1.00  0.00    -0.023 A 
HETATM   17  C   UNL     1      41.168 -15.554  -1.633  1.00  0.00     0.009 A 
HETATM   18  C   UNL     1      40.348 -15.343  -2.743  1.00  0.00     0.001 A 
HETATM   19  C   UNL     1      39.222 -14.535  -2.636  1.00  0.00     0.000 A 
HETATM   20  C   UNL     1      38.914 -13.939  -1.417  1.00  0.00     0.001 A 
HETATM   21  C   UNL     1      39.735 -14.145  -0.305  1.00  0.00     0.009 A 
ENDBRANCH  15  16
BRANCH  15  22
HETATM   22  C   UNL     1      42.287 -16.613   1.077  1.00  0.00    -0.023 A 
HETATM   23  C   UNL     1      43.668 -16.860   1.249  1.00  0.00     0.009 A 
HETATM   24  C   UNL     1      44.145 -18.135   1.557  1.00  0.00     0.001 A 
HETATM   25  C   UNL     1      43.253 -19.191   1.703  1.00  0.00     0.000 A 
HETATM   26  C   UNL     1      41.890 -18.973   1.536  1.00  0.00     0.001 A 
HETATM   27  C   UNL     1      41.410 -17.697   1.228  1.00  0.00     0.009 A 
ENDBRANCH  15  22
ENDBRANCH  11  15
ENDBRANCH   1   8
BRANCH   3  28
HETATM   28  N   UNL     1      42.638 -17.317   7.279  1.00  0.00    -0.062 NA
BRANCH  28  29
HETATM   29  C   UNL     1      43.320 -18.369   6.653  1.00  0.00     0.076 A 
HETATM   30  C   UNL     1      43.286 -19.645   7.220  1.00  0.00     0.032 A 
HETATM   31  C   UNL     1      43.953 -20.709   6.610  1.00  0.00     0.002 A 
HETATM   32  C   UNL     1      44.656 -20.503   5.423  1.00  0.00     0.000 A 
HETATM   33  C   UNL     1      44.678 -19.237   4.838  1.00  0.00     0.002 A 
HETATM   34  C   UNL     1      44.001 -18.178   5.446  1.00  0.00     0.032 A 
ENDBRANCH  28  29
ENDBRANCH   3  28
BRANCH   5  35
HETATM   35  N   UNL     1      45.206 -13.455   7.755  1.00  0.00    -0.189 N 
HETATM   36  H   UNL     1      45.994 -13.251   7.152  1.00  0.00     0.184 HD
BRANCH  35  37
HETATM   37  C   UNL     1      45.125 -12.589   8.866  1.00  0.00     0.049 A 
HETATM   38  C   UNL     1      44.216 -12.806   9.911  1.00  0.00     0.030 A 
HETATM   39  C   UNL     1      44.147 -11.929  10.996  1.00  0.00     0.002 A 
HETATM   40  C   UNL     1      44.979 -10.813  11.045  1.00  0.00     0.000 A 
HETATM   41  C   UNL     1      45.884 -10.580  10.013  1.00  0.00     0.002 A 
HETATM   42  C   UNL     1      45.960 -11.465   8.932  1.00  0.00     0.030 A 
ENDBRANCH  35  37
ENDBRANCH   5  35
TORSDOF 8
ENDMDL
MODEL 3
REMARK VINA RESULT:     -10.4      1.596      8.654
REMARK  8 active torsions:
REMARK  status: ('A' for Active; 'I' for Inactive)
REMARK    1  A    between atoms: C_4  and  C_5 
REMARK    2  A    between atoms: C_5  and  N_6 
REMARK    3  A    between atoms: C_5  and  C_33 
REMARK    4  A    between atoms: N_10  and  C_11 
REMARK    5  A    between atoms: C_13  and  N_14 
REMARK    6  A    between atoms: N_14  and  C_15 
REMARK    7  A    between atoms: C_22  and  N_23 
REMARK    8  A    between atoms: N_23  and  C_24 
ROOT
HETATM    1  C   UNL     1      41.378 -14.860   2.253  1.00  0.00     0.756 A 
HETATM    2  N   UNL     1      41.368 -14.370   1.050  1.00  0.00     0.131 NA
HETATM    3  C   UNL     1      41.452 -15.231  -0.008  1.00  0.00     0.757 A 
HETATM    4  N   UNL     1      41.550 -16.558   0.263  1.00  0.00    -0.016 N 
HETATM    5  C   UNL     1      41.480 -17.030   1.527  1.00  0.00     0.735 A 
HETATM    6  N   UNL     1      41.368 -16.207   2.523  1.00  0.00     0.129 NA
HETATM    7  H   UNL     1      41.467 -17.190  -0.516  1.00  0.00     0.203 HD
ENDROOT
BRANCH   1   8
HETATM    8  N   UNL     1      41.354 -13.998   3.343  1.00  0.00    -0.210 N 
HETATM    9  C   UNL     1      42.413 -12.990   3.478  1.00  0.00     0.169 C 
HETATM   10  C   UNL     1      43.637 -13.633   4.159  1.00  0.00     0.256 C 
HETATM   11  N   UNL     1      43.217 -14.220   5.516  1.00  0.00    -0.056 N 
HETATM   12  H   UNL     1      42.826 -13.441   6.054  1.00  0.00     0.281 HD
HETATM   13  C   UNL     1      42.052 -15.208   5.362  1.00  0.00     0.256 C 
HETATM   14  C   UNL     1      40.876 -14.514   4.637  1.00  0.00     0.169 C 
BRANCH  11  15
HETATM   15  C   UNL     1      44.406 -14.691   6.350  1.00  0.00     0.254 C 
BRANCH  15  16
HETATM   16  C   UNL     1      44.303 -16.110   6.903  1.00  0.00    -0.023 A 
HETATM   17  C   UNL     1      45.054 -17.136   6.290  1.00  0.00     0.009 A 
HETATM   18  C   UNL     1      44.967 -18.459   6.732  1.00  0.00     0.001 A 
HETATM   19  C   UNL     1      44.136 -18.785   7.797  1.00  0.00     0.000 A 
HETATM   20  C   UNL     1      43.394 -17.789   8.424  1.00  0.00     0.001 A 
HETATM   21  C   UNL     1      43.477 -16.465   7.982  1.00  0.00     0.009 A 
ENDBRANCH  15  16
BRANCH  15  22
HETATM   22  C   UNL     1      44.925 -13.588   7.272  1.00  0.00    -0.023 A 
HETATM   23  C   UNL     1      46.265 -13.167   7.124  1.00  0.00     0.009 A 
HETATM   24  C   UNL     1      46.795 -12.141   7.910  1.00  0.00     0.001 A 
HETATM   25  C   UNL     1      45.996 -11.512   8.857  1.00  0.00     0.000 A 
HETATM   26  C   UNL     1      44.674 -11.912   9.022  1.00  0.00     0.001 A 
HETATM   27  C   UNL     1      44.141 -12.939   8.237  1.00  0.00     0.009 A 
ENDBRANCH  15  22
ENDBRANCH  11  15
ENDBRANCH   1   8
BRANCH   3  28
HETATM   28  N   UNL     1      41.421 -14.658  -1.168  1.00  0.00    -0.062 NA
BRANCH  28  29
HETATM   29  C   UNL     1      40.338 -14.883  -2.027  1.00  0.00     0.076 A 
HETATM   30  C   UNL     1      39.158 -14.157  -1.852  1.00  0.00     0.032 A 
HETATM   31  C   UNL     1      38.068 -14.361  -2.701  1.00  0.00     0.002 A 
HETATM   32  C   UNL     1      38.155 -15.293  -3.735  1.00  0.00     0.000 A 
HETATM   33  C   UNL     1      39.335 -16.008  -3.930  1.00  0.00     0.002 A 
HETATM   34  C   UNL     1      40.427 -15.793  -3.086  1.00  0.00     0.032 A 
ENDBRANCH  28  29
ENDBRANCH   3  28
BRANCH   5  35
HETATM   35  N   UNL     1      41.540 -18.397   1.614  1.00  0.00    -0.189 N 
HETATM   36  H   UNL     1      40.978 -18.903   0.940  1.00  0.00     0.184 HD
BRANCH  35  37
HETATM   37  C   UNL     1      42.661 -19.131   2.056  1.00  0.00     0.049 A 
HETATM   38  C   UNL     1      42.907 -20.442   1.623  1.00  0.00     0.030 A 
HETATM   39  C   UNL     1      44.019 -21.153   2.081  1.00  0.00     0.002 A 
HETATM   40  C   UNL     1      44.895 -20.566   2.991  1.00  0.00     0.000 A 
HETATM   41  C   UNL     1      44.663 -19.267   3.434  1.00  0.00     0.002 A 
HETATM   42  C   UNL     1      43.556 -18.552   2.967  1.00  0.00     0.030 A 
ENDBRANCH  35  37
ENDBRANCH   5  35
TORSDOF 8
ENDMDL
MODEL 4
REMARK VINA RESULT:     -10.2      0.499      3.108
REMARK  8 active torsions:
REMARK  status: ('A' for Active; 'I' for Inactive)
REMARK    1  A    between atoms: C_4  and  C_5 
REMARK    2  A    between atoms: C_5  and  N_6 
REMARK    3  A    between atoms: C_5  and  C_33 
REMARK    4  A    between atoms: N_10  and  C_11 
REMARK    5  A    between atoms: C_13  and  N_14 
REMARK    6  A    between atoms: N_14  and  C_15 
REMARK    7  A    between atoms: C_22  and  N_23 
REMARK    8  A    between atoms: N_23  and  C_24 
ROOT
HETATM    1  C   UNL     1      42.560 -14.150   5.842  1.00  0.00     0.756 A 
HETATM    2  N   UNL     1      43.505 -13.457   6.402  1.00  0.00     0.131 NA
HETATM    3  C   UNL     1      44.277 -14.056   7.356  1.00  0.00     0.757 A 
HETATM    4  N   UNL     1      44.004 -15.348   7.671  1.00  0.00    -0.016 N 
HETATM    5  C   UNL     1      43.061 -16.055   7.010  1.00  0.00     0.735 A 
HETATM    6  N   UNL     1      42.354 -15.486   6.083  1.00  0.00     0.129 NA
HETATM    7  H   UNL     1      44.663 -15.823   8.266  1.00  0.00     0.203 HD
ENDROOT
BRANCH   1   8
HETATM    8  N   UNL     1      41.724 -13.541   4.913  1.00  0.00    -0.210 N 
HETATM    9  C   UNL     1      40.388 -14.103   4.678  1.00  0.00     0.169 C 
HETATM   10  C   UNL     1      40.496 -15.251   3.656  1.00  0.00     0.256 C 
HETATM   11  N   UNL     1      41.141 -14.725   2.363  1.00  0.00    -0.056 N 
HETATM   12  H   UNL     1      40.543 -13.959   2.039  1.00  0.00     0.281 HD
HETATM   13  C   UNL     1      42.498 -14.066   2.643  1.00  0.00     0.256 C 
HETATM   14  C   UNL     1      42.327 -12.955   3.703  1.00  0.00     0.169 C 
BRANCH  11  15
HETATM   15  C   UNL     1      41.096 -15.742   1.225  1.00  0.00     0.254 C 
BRANCH  15  16
HETATM   16  C   UNL     1      42.075 -16.908   1.344  1.00  0.00    -0.023 A 
HETATM   17  C   UNL     1      41.571 -18.194   1.633  1.00  0.00     0.009 A 
HETATM   18  C   UNL     1      42.425 -19.287   1.790  1.00  0.00     0.001 A 
HETATM   19  C   UNL     1      43.799 -19.124   1.656  1.00  0.00     0.000 A 
HETATM   20  C   UNL     1      44.319 -17.868   1.362  1.00  0.00     0.001 A 
HETATM   21  C   UNL     1      43.467 -16.771   1.207  1.00  0.00     0.009 A 
ENDBRANCH  15  16
BRANCH  15  22
HETATM   22  C   UNL     1      40.936 -15.065  -0.135  1.00  0.00    -0.023 A 
HETATM   23  C   UNL     1      41.173 -15.831  -1.298  1.00  0.00     0.009 A 
HETATM   24  C   UNL     1      41.013 -15.285  -2.573  1.00  0.00     0.001 A 
HETATM   25  C   UNL     1      40.608 -13.963  -2.713  1.00  0.00     0.000 A 
HETATM   26  C   UNL     1      40.371 -13.188  -1.583  1.00  0.00     0.001 A 
HETATM   27  C   UNL     1      40.531 -13.732  -0.305  1.00  0.00     0.009 A 
ENDBRANCH  15  22
ENDBRANCH  11  15
ENDBRANCH   1   8
BRANCH   3  28
HETATM   28  N   UNL     1      45.202 -13.297   7.850  1.00  0.00    -0.062 NA
BRANCH  28  29
HETATM   29  C   UNL     1      44.871 -12.336   8.814  1.00  0.00     0.076 A 
HETATM   30  C   UNL     1      45.811 -11.981   9.784  1.00  0.00     0.032 A 
HETATM   31  C   UNL     1      45.504 -11.021  10.751  1.00  0.00     0.002 A 
HETATM   32  C   UNL     1      44.253 -10.405  10.749  1.00  0.00     0.000 A 
HETATM   33  C   UNL     1      43.315 -10.737   9.772  1.00  0.00     0.002 A 
HETATM   34  C   UNL     1      43.630 -11.690   8.801  1.00  0.00     0.032 A 
ENDBRANCH  28  29
ENDBRANCH   3  28
BRANCH   5  35
HETATM   35  N   UNL     1      42.955 -17.359   7.418  1.00  0.00    -0.189 N 
HETATM   36  H   UNL     1      42.108 -17.592   7.924  1.00  0.00     0.184 HD
BRANCH  35  37
HETATM   37  C   UNL     1      43.514 -18.466   6.745  1.00  0.00     0.049 A 
HETATM   38  C   UNL     1      44.191 -18.327   5.525  1.00  0.00     0.030 A 
HETATM   39  C   UNL     1      44.729 -19.439   4.872  1.00  0.00     0.002 A 
HETATM   40  C   UNL     1      44.585 -20.709   5.424  1.00  0.00     0.000 A 
HETATM   41  C   UNL     1      43.911 -20.865   6.632  1.00  0.00     0.002 A 
HETATM   42  C   UNL     1      43.383 -19.750   7.291  1.00  0.00     0.030 A 
ENDBRANCH  35  37
ENDBRANCH   5  35
TORSDOF 8
ENDMDL
MODEL 5
REMARK VINA RESULT:     -10.1      1.624      8.902
REMARK  8 active torsions:
REMARK  status: ('A' for Active; 'I' for Inactive)
REMARK    1  A    between atoms: C_4  and  C_5 
REMARK    2  A    between atoms: C_5  and  N_6 
REMARK    3  A    between atoms: C_5  and  C_33 
REMARK    4  A    between atoms: N_10  and  C_11 
REMARK    5  A    between atoms: C_13  and  N_14 
REMARK    6  A    between atoms: N_14  and  C_15 
REMARK    7  A    between atoms: C_22  and  N_23 
REMARK    8  A    between atoms: N_23  and  C_24 
ROOT
HETATM    1  C   UNL     1      40.244 -14.187   3.064  1.00  0.00     0.756 A 
HETATM    2  N   UNL     1      40.495 -15.456   2.936  1.00  0.00     0.131 NA
HETATM    3  C   UNL     1      40.276 -16.047   1.725  1.00  0.00     0.757 A 
HETATM    4  N   UNL     1      39.799 -15.270   0.719  1.00  0.00    -0.016 N 
HETATM    5  C   UNL     1      39.624 -13.939   0.873  1.00  0.00     0.735 A 
HETATM    6  N   UNL     1      39.865 -13.380   2.019  1.00  0.00     0.129 NA
HETATM    7  H   UNL     1      39.777 -15.676  -0.202  1.00  0.00     0.203 HD
ENDROOT
BRANCH   1   8
HETATM    8  N   UNL     1      40.402 -13.580   4.304  1.00  0.00    -0.210 N 
HETATM    9  C   UNL     1      41.422 -12.536   4.463  1.00  0.00     0.169 C 
HETATM   10  C   UNL     1      42.784 -13.200   4.744  1.00  0.00     0.256 C 
HETATM   11  N   UNL     1      42.670 -14.095   5.988  1.00  0.00    -0.056 N 
HETATM   12  H   UNL     1      42.361 -13.484   6.750  1.00  0.00     0.281 HD
HETATM   13  C   UNL     1      41.542 -15.124   5.835  1.00  0.00     0.256 C 
HETATM   14  C   UNL     1      40.216 -14.398   5.515  1.00  0.00     0.169 C 
BRANCH  11  15
HETATM   15  C   UNL     1      44.022 -14.626   6.459  1.00  0.00     0.254 C 
BRANCH  15  16
HETATM   16  C   UNL     1      44.048 -16.099   6.858  1.00  0.00    -0.023 A 
HETATM   17  C   UNL     1      44.571 -17.042   5.948  1.00  0.00     0.009 A 
HETATM   18  C   UNL     1      44.583 -18.407   6.247  1.00  0.00     0.001 A 
HETATM   19  C   UNL     1      44.081 -18.859   7.462  1.00  0.00     0.000 A 
HETATM   20  C   UNL     1      43.570 -17.947   8.380  1.00  0.00     0.001 A 
HETATM   21  C   UNL     1      43.553 -16.582   8.082  1.00  0.00     0.009 A 
ENDBRANCH  15  16
BRANCH  15  22
HETATM   22  C   UNL     1      44.748 -13.619   7.350  1.00  0.00    -0.023 A 
HETATM   23  C   UNL     1      46.065 -13.246   7.003  1.00  0.00     0.009 A 
HETATM   24  C   UNL     1      46.775 -12.306   7.753  1.00  0.00     0.001 A 
HETATM   25  C   UNL     1      46.183 -11.717   8.863  1.00  0.00     0.000 A 
HETATM   26  C   UNL     1      44.887 -12.070   9.226  1.00  0.00     0.001 A 
HETATM   27  C   UNL     1      44.175 -13.011   8.477  1.00  0.00     0.009 A 
ENDBRANCH  15  22
ENDBRANCH  11  15
ENDBRANCH   1   8
BRANCH   3  28
HETATM   28  N   UNL     1      40.565 -17.308   1.684  1.00  0.00    -0.062 NA
BRANCH  28  29
HETATM   29  C   UNL     1      41.894 -17.722   1.834  1.00  0.00     0.076 A 
HETATM   30  C   UNL     1      42.192 -18.784   2.691  1.00  0.00     0.032 A 
HETATM   31  C   UNL     1      43.510 -19.218   2.850  1.00  0.00     0.002 A 
HETATM   32  C   UNL     1      44.540 -18.592   2.147  1.00  0.00     0.000 A 
HETATM   33  C   UNL     1      44.250 -17.545   1.274  1.00  0.00     0.002 A 
HETATM   34  C   UNL     1      42.930 -17.121   1.109  1.00  0.00     0.032 A 
ENDBRANCH  28  29
ENDBRANCH   3  28
BRANCH   5  35
HETATM   35  N   UNL     1      39.189 -13.300  -0.259  1.00  0.00    -0.189 N 
HETATM   36  H   UNL     1      39.435 -12.319  -0.330  1.00  0.00     0.184 HD
BRANCH  35  37
HETATM   37  C   UNL     1      39.011 -13.913  -1.517  1.00  0.00     0.049 A 
HETATM   38  C   UNL     1      37.737 -14.176  -2.041  1.00  0.00     0.030 A 
HETATM   39  C   UNL     1      37.586 -14.792  -3.285  1.00  0.00     0.002 A 
HETATM   40  C   UNL     1      38.708 -15.167  -4.019  1.00  0.00     0.000 A 
HETATM   41  C   UNL     1      39.980 -14.918  -3.511  1.00  0.00     0.002 A 
HETATM   42  C   UNL     1      40.131 -14.291  -2.270  1.00  0.00     0.030 A 
ENDBRANCH  35  37
ENDBRANCH   5  35
TORSDOF 8
ENDMDL
MODEL 6
REMARK VINA RESULT:     -10.0      1.808      8.359
REMARK  8 active torsions:
REMARK  status: ('A' for Active; 'I' for Inactive)
REMARK    1  A    between atoms: C_4  and  C_5 
REMARK    2  A    between atoms: C_5  and  N_6 
REMARK    3  A    between atoms: C_5  and  C_33 
REMARK    4  A    between atoms: N_10  and  C_11 
REMARK    5  A    between atoms: C_13  and  N_14 
REMARK    6  A    between atoms: N_14  and  C_15 
REMARK    7  A    between atoms: C_22  and  N_23 
REMARK    8  A    between atoms: N_23  and  C_24 
ROOT
HETATM    1  C   UNL     1      39.795 -14.089   3.267  1.00  0.00     0.756 A 
HETATM    2  N   UNL     1      39.094 -13.394   2.422  1.00  0.00     0.131 NA
HETATM    3  C   UNL     1      38.895 -13.897   1.168  1.00  0.00     0.757 A 
HETATM    4  N   UNL     1      39.454 -15.099   0.873  1.00  0.00    -0.016 N 
HETATM    5  C   UNL     1      40.111 -15.823   1.805  1.00  0.00     0.735 A 
HETATM    6  N   UNL     1      40.268 -15.352   3.003  1.00  0.00     0.129 NA
HETATM    7  H   UNL     1      39.185 -15.526   0.002  1.00  0.00     0.203 HD
ENDROOT
BRANCH   1   8
HETATM    8  N   UNL     1      40.060 -13.567   4.528  1.00  0.00    -0.210 N 
HETATM    9  C   UNL     1      41.089 -12.529   4.669  1.00  0.00     0.169 C 
HETATM   10  C   UNL     1      42.471 -13.201   4.783  1.00  0.00     0.256 C 
HETATM   11  N   UNL     1      42.467 -14.181   5.968  1.00  0.00    -0.056 N 
HETATM   12  H   UNL     1      42.226 -13.625   6.795  1.00  0.00     0.281 HD
HETATM   13  C   UNL     1      41.331 -15.205   5.843  1.00  0.00     0.256 C 
HETATM   14  C   UNL     1      39.981 -14.467   5.691  1.00  0.00     0.169 C 
BRANCH  11  15
HETATM   15  C   UNL     1      43.855 -14.734   6.282  1.00  0.00     0.254 C 
BRANCH  15  16
HETATM   16  C   UNL     1      43.913 -16.225   6.605  1.00  0.00    -0.023 A 
HETATM   17  C   UNL     1      44.298 -17.127   5.590  1.00  0.00     0.009 A 
HETATM   18  C   UNL     1      44.330 -18.504   5.820  1.00  0.00     0.001 A 
HETATM   19  C   UNL     1      43.987 -19.010   7.068  1.00  0.00     0.000 A 
HETATM   20  C   UNL     1      43.614 -18.140   8.088  1.00  0.00     0.001 A 
HETATM   21  C   UNL     1      43.577 -16.762   7.859  1.00  0.00     0.009 A 
ENDBRANCH  15  16
BRANCH  15  22
HETATM   22  C   UNL     1      44.667 -13.771   7.148  1.00  0.00    -0.023 A 
HETATM   23  C   UNL     1      45.985 -13.459   6.748  1.00  0.00     0.009 A 
HETATM   24  C   UNL     1      46.772 -12.562   7.473  1.00  0.00     0.001 A 
HETATM   25  C   UNL     1      46.256 -11.954   8.611  1.00  0.00     0.000 A 
HETATM   26  C   UNL     1      44.962 -12.248   9.027  1.00  0.00     0.001 A 
HETATM   27  C   UNL     1      44.173 -13.147   8.302  1.00  0.00     0.009 A 
ENDBRANCH  15  22
ENDBRANCH  11  15
ENDBRANCH   1   8
BRANCH   3  28
HETATM   28  N   UNL     1      38.176 -13.146   0.398  1.00  0.00    -0.062 NA
BRANCH  28  29
HETATM   29  C   UNL     1      38.607 -12.872  -0.907  1.00  0.00     0.076 A 
HETATM   30  C   UNL     1      39.607 -11.920  -1.116  1.00  0.00     0.032 A 
HETATM   31  C   UNL     1      40.056 -11.636  -2.407  1.00  0.00     0.002 A 
HETATM   32  C   UNL     1      39.508 -12.309  -3.499  1.00  0.00     0.000 A 
HETATM   33  C   UNL     1      38.524 -13.276  -3.299  1.00  0.00     0.002 A 
HETATM   34  C   UNL     1      38.085 -13.564  -2.005  1.00  0.00     0.032 A 
ENDBRANCH  28  29
ENDBRANCH   3  28
BRANCH   5  35
HETATM   35  N   UNL     1      40.561 -17.036   1.351  1.00  0.00    -0.189 N 
HETATM   36  H   UNL     1      40.158 -17.354   0.478  1.00  0.00     0.184 HD
BRANCH  35  37
HETATM   37  C   UNL     1      41.852 -17.559   1.583  1.00  0.00     0.049 A 
HETATM   38  C   UNL     1      43.010 -16.886   1.168  1.00  0.00     0.030 A 
HETATM   39  C   UNL     1      44.276 -17.427   1.400  1.00  0.00     0.002 A 
HETATM   40  C   UNL     1      44.402 -18.656   2.041  1.00  0.00     0.000 A 
HETATM   41  C   UNL     1      43.262 -19.339   2.456  1.00  0.00     0.002 A 
HETATM   42  C   UNL     1      41.995 -18.792   2.233  1.00  0.00     0.030 A 
ENDBRANCH  35  37
ENDBRANCH   5  35
TORSDOF 8
ENDMDL
MODEL 7
REMARK VINA RESULT:     -10.0      0.778      6.119
REMARK  8 active torsions:
REMARK  status: ('A' for Active; 'I' for Inactive)
REMARK    1  A    between atoms: C_4  and  C_5 
REMARK    2  A    between atoms: C_5  and  N_6 
REMARK    3  A    between atoms: C_5  and  C_33 
REMARK    4  A    between atoms: N_10  and  C_11 
REMARK    5  A    between atoms: C_13  and  N_14 
REMARK    6  A    between atoms: N_14  and  C_15 
REMARK    7  A    between atoms: C_22  and  N_23 
REMARK    8  A    between atoms: N_23  and  C_24 
ROOT
HETATM    1  C   UNL     1      42.229 -14.043   5.546  1.00  0.00     0.756 A 
HETATM    2  N   UNL     1      41.990 -15.281   5.859  1.00  0.00     0.131 NA
HETATM    3  C   UNL     1      42.753 -15.870   6.826  1.00  0.00     0.757 A 
HETATM    4  N   UNL     1      43.731 -15.124   7.402  1.00  0.00    -0.016 N 
HETATM    5  C   UNL     1      43.896 -13.818   7.100  1.00  0.00     0.735 A 
HETATM    6  N   UNL     1      43.145 -13.258   6.203  1.00  0.00     0.129 NA
HETATM    7  H   UNL     1      44.191 -15.517   8.207  1.00  0.00     0.203 HD
ENDROOT
BRANCH   1   8
HETATM    8  N   UNL     1      41.504 -13.444   4.523  1.00  0.00    -0.210 N 
HETATM    9  C   UNL     1      40.188 -13.990   4.166  1.00  0.00     0.169 C 
HETATM   10  C   UNL     1      40.379 -15.165   3.187  1.00  0.00     0.256 C 
HETATM   11  N   UNL     1      41.161 -14.682   1.955  1.00  0.00    -0.056 N 
HETATM   12  H   UNL     1      40.613 -13.915   1.554  1.00  0.00     0.281 HD
HETATM   13  C   UNL     1      42.495 -14.038   2.356  1.00  0.00     0.256 C 
HETATM   14  C   UNL     1      42.237 -12.898   3.368  1.00  0.00     0.169 C 
BRANCH  11  15
HETATM   15  C   UNL     1      41.214 -15.727   0.842  1.00  0.00     0.254 C 
BRANCH  15  16
HETATM   16  C   UNL     1      42.089 -16.945   1.123  1.00  0.00    -0.023 A 
HETATM   17  C   UNL     1      41.472 -18.146   1.535  1.00  0.00     0.009 A 
HETATM   18  C   UNL     1      42.229 -19.279   1.841  1.00  0.00     0.001 A 
HETATM   19  C   UNL     1      43.614 -19.242   1.737  1.00  0.00     0.000 A 
HETATM   20  C   UNL     1      44.244 -18.073   1.323  1.00  0.00     0.001 A 
HETATM   21  C   UNL     1      43.490 -16.936   1.019  1.00  0.00     0.009 A 
ENDBRANCH  15  16
BRANCH  15  22
HETATM   22  C   UNL     1      41.291 -15.079  -0.540  1.00  0.00    -0.023 A 
HETATM   23  C   UNL     1      41.706 -13.731  -0.626  1.00  0.00     0.009 A 
HETATM   24  C   UNL     1      41.831 -13.086  -1.858  1.00  0.00     0.001 A 
HETATM   25  C   UNL     1      41.548 -13.776  -3.031  1.00  0.00     0.000 A 
HETATM   26  C   UNL     1      41.135 -15.103  -2.971  1.00  0.00     0.001 A 
HETATM   27  C   UNL     1      41.009 -15.750  -1.739  1.00  0.00     0.009 A 
ENDBRANCH  15  22
ENDBRANCH  11  15
ENDBRANCH   1   8
BRANCH   3  28
HETATM   28  N   UNL     1      42.438 -17.099   7.083  1.00  0.00    -0.062 NA
BRANCH  28  29
HETATM   29  C   UNL     1      43.192 -18.141   6.529  1.00  0.00     0.076 A 
HETATM   30  C   UNL     1      43.197 -19.392   7.149  1.00  0.00     0.032 A 
HETATM   31  C   UNL     1      43.937 -20.447   6.610  1.00  0.00     0.002 A 
HETATM   32  C   UNL     1      44.674 -20.256   5.442  1.00  0.00     0.000 A 
HETATM   33  C   UNL     1      44.659 -19.017   4.804  1.00  0.00     0.002 A 
HETATM   34  C   UNL     1      43.909 -17.967   5.340  1.00  0.00     0.032 A 
ENDBRANCH  28  29
ENDBRANCH   3  28
BRANCH   5  35
HETATM   35  N   UNL     1      44.892 -13.203   7.814  1.00  0.00    -0.189 N 
HETATM   36  H   UNL     1      45.765 -13.065   7.318  1.00  0.00     0.184 HD
BRANCH  35  37
HETATM   37  C   UNL     1      44.687 -12.254   8.838  1.00  0.00     0.049 A 
HETATM   38  C   UNL     1      43.520 -11.481   8.909  1.00  0.00     0.030 A 
HETATM   39  C   UNL     1      43.341 -10.541   9.927  1.00  0.00     0.002 A 
HETATM   40  C   UNL     1      44.336 -10.353  10.883  1.00  0.00     0.000 A 
HETATM   41  C   UNL     1      45.503 -11.109  10.824  1.00  0.00     0.002 A 
HETATM   42  C   UNL     1      45.676 -12.057   9.811  1.00  0.00     0.030 A 
ENDBRANCH  35  37
ENDBRANCH   5  35
TORSDOF 8
ENDMDL
MODEL 8
REMARK VINA RESULT:      -9.7      2.175      9.184
REMARK  8 active torsions:
REMARK  status: ('A' for Active; 'I' for Inactive)
REMARK    1  A    between atoms: C_4  and  C_5 
REMARK    2  A    between atoms: C_5  and  N_6 
REMARK    3  A    between atoms: C_5  and  C_33 
REMARK    4  A    between atoms: N_10  and  C_11 
REMARK    5  A    between atoms: C_13  and  N_14 
REMARK    6  A    between atoms: N_14  and  C_15 
REMARK    7  A    between atoms: C_22  and  N_23 
REMARK    8  A    between atoms: N_23  and  C_24 
ROOT
HETATM    1  C   UNL     1      40.070 -14.118   3.263  1.00  0.00     0.756 A 
HETATM    2  N   UNL     1      40.312 -15.379   3.073  1.00  0.00     0.131 NA
HETATM    3  C   UNL     1      40.058 -15.917   1.843  1.00  0.00     0.757 A 
HETATM    4  N   UNL     1      39.554 -15.096   0.886  1.00  0.00    -0.016 N 
HETATM    5  C   UNL     1      39.388 -13.773   1.103  1.00  0.00     0.735 A 
HETATM    6  N   UNL     1      39.663 -13.265   2.265  1.00  0.00     0.129 NA
HETATM    7  H   UNL     1      39.505 -15.462  -0.050  1.00  0.00     0.203 HD
ENDROOT
BRANCH   1   8
HETATM    8  N   UNL     1      40.265 -13.566   4.523  1.00  0.00    -0.210 N 
HETATM    9  C   UNL     1      41.269 -12.507   4.692  1.00  0.00     0.169 C 
HETATM   10  C   UNL     1      42.654 -13.153   4.887  1.00  0.00     0.256 C 
HETATM   11  N   UNL     1      42.608 -14.108   6.091  1.00  0.00    -0.056 N 
HETATM   12  H   UNL     1      42.318 -13.540   6.893  1.00  0.00     0.281 HD
HETATM   13  C   UNL     1      41.496 -15.154   5.934  1.00  0.00     0.256 C 
HETATM   14  C   UNL     1      40.144 -14.442   5.701  1.00  0.00     0.169 C 
BRANCH  11  15
HETATM   15  C   UNL     1      43.988 -14.631   6.484  1.00  0.00     0.254 C 
BRANCH  15  16
HETATM   16  C   UNL     1      44.047 -16.105   6.875  1.00  0.00    -0.023 A 
HETATM   17  C   UNL     1      44.576 -17.034   5.954  1.00  0.00     0.009 A 
HETATM   18  C   UNL     1      44.619 -18.399   6.246  1.00  0.00     0.001 A 
HETATM   19  C   UNL     1      44.141 -18.866   7.465  1.00  0.00     0.000 A 
HETATM   20  C   UNL     1      43.623 -17.969   8.393  1.00  0.00     0.001 A 
HETATM   21  C   UNL     1      43.577 -16.603   8.102  1.00  0.00     0.009 A 
ENDBRANCH  15  16
BRANCH  15  22
HETATM   22  C   UNL     1      44.755 -13.621   7.336  1.00  0.00    -0.023 A 
HETATM   23  C   UNL     1      46.075 -13.289   6.955  1.00  0.00     0.009 A 
HETATM   24  C   UNL     1      46.822 -12.349   7.669  1.00  0.00     0.001 A 
HETATM   25  C   UNL     1      46.266 -11.720   8.776  1.00  0.00     0.000 A 
HETATM   26  C   UNL     1      44.969 -12.033   9.171  1.00  0.00     0.001 A 
HETATM   27  C   UNL     1      44.220 -12.973   8.459  1.00  0.00     0.009 A 
ENDBRANCH  15  22
ENDBRANCH  11  15
ENDBRANCH   1   8
BRANCH   3  28
HETATM   28  N   UNL     1      40.341 -17.176   1.740  1.00  0.00    -0.062 NA
BRANCH  28  29
HETATM   29  C   UNL     1      41.673 -17.599   1.835  1.00  0.00     0.076 A 
HETATM   30  C   UNL     1      42.626 -17.077   0.958  1.00  0.00     0.032 A 
HETATM   31  C   UNL     1      43.960 -17.480   1.039  1.00  0.00     0.002 A 
HETATM   32  C   UNL     1      44.350 -18.408   2.005  1.00  0.00     0.000 A 
HETATM   33  C   UNL     1      43.410 -18.919   2.899  1.00  0.00     0.002 A 
HETATM   34  C   UNL     1      42.079 -18.505   2.821  1.00  0.00     0.032 A 
ENDBRANCH  28  29
ENDBRANCH   3  28
BRANCH   5  35
HETATM   35  N   UNL     1      38.923 -13.084   0.013  1.00  0.00    -0.189 N 
HETATM   36  H   UNL     1      38.889 -13.608  -0.853  1.00  0.00     0.184 HD
BRANCH  35  37
HETATM   37  C   UNL     1      37.977 -12.038   0.060  1.00  0.00     0.049 A 
HETATM   38  C   UNL     1      36.678 -12.234   0.548  1.00  0.00     0.030 A 
HETATM   39  C   UNL     1      35.755 -11.185   0.577  1.00  0.00     0.002 A 
HETATM   40  C   UNL     1      36.117  -9.926   0.105  1.00  0.00     0.000 A 
HETATM   41  C   UNL     1      37.402  -9.715  -0.387  1.00  0.00     0.002 A 
HETATM   42  C   UNL     1      38.328 -10.763  -0.405  1.00  0.00     0.030 A 
ENDBRANCH  35  37
ENDBRANCH   5  35
TORSDOF 8
ENDMDL
MODEL 9
REMARK VINA RESULT:      -9.6      3.430      8.258
REMARK  8 active torsions:
REMARK  status: ('A' for Active; 'I' for Inactive)
REMARK    1  A    between atoms: C_4  and  C_5 
REMARK    2  A    between atoms: C_5  and  N_6 
REMARK    3  A    between atoms: C_5  and  C_33 
REMARK    4  A    between atoms: N_10  and  C_11 
REMARK    5  A    between atoms: C_13  and  N_14 
REMARK    6  A    between atoms: N_14  and  C_15 
REMARK    7  A    between atoms: C_22  and  N_23 
REMARK    8  A    between atoms: N_23  and  C_24 
ROOT
HETATM    1  C   UNL     1      40.845 -14.423   1.319  1.00  0.00     0.756 A 
HETATM    2  N   UNL     1      41.766 -13.720   0.732  1.00  0.00     0.131 NA
HETATM    3  C   UNL     1      41.766 -12.366   0.905  1.00  0.00     0.757 A 
HETATM    4  N   UNL     1      40.791 -11.828   1.682  1.00  0.00    -0.016 N 
HETATM    5  C   UNL     1      39.898 -12.602   2.336  1.00  0.00     0.735 A 
HETATM    6  N   UNL     1      39.925 -13.891   2.191  1.00  0.00     0.129 NA
HETATM    7  H   UNL     1      40.881 -10.854   1.920  1.00  0.00     0.203 HD
ENDROOT
BRANCH   1   8
HETATM    8  N   UNL     1      40.791 -15.795   1.106  1.00  0.00    -0.210 N 
HETATM    9  C   UNL     1      40.260 -16.662   2.166  1.00  0.00     0.169 C 
HETATM   10  C   UNL     1      41.386 -16.979   3.169  1.00  0.00     0.256 C 
HETATM   11  N   UNL     1      42.566 -17.625   2.426  1.00  0.00    -0.056 N 
HETATM   12  H   UNL     1      42.191 -18.464   1.973  1.00  0.00     0.281 HD
HETATM   13  C   UNL     1      43.051 -16.741   1.269  1.00  0.00     0.256 C 
HETATM   14  C   UNL     1      41.868 -16.428   0.325  1.00  0.00     0.169 C 
BRANCH  11  15
HETATM   15  C   UNL     1      43.638 -18.161   3.373  1.00  0.00     0.254 C 
BRANCH  15  16
HETATM   16  C   UNL     1      43.973 -19.642   3.219  1.00  0.00    -0.023 A 
HETATM   17  C   UNL     1      43.563 -20.315   2.049  1.00  0.00     0.009 A 
HETATM   18  C   UNL     1      43.809 -21.679   1.874  1.00  0.00     0.001 A 
HETATM   19  C   UNL     1      44.476 -22.398   2.859  1.00  0.00     0.000 A 
HETATM   20  C   UNL     1      44.900 -21.755   4.017  1.00  0.00     0.001 A 
HETATM   21  C   UNL     1      44.651 -20.391   4.196  1.00  0.00     0.009 A 
ENDBRANCH  15  16
BRANCH  15  22
HETATM   22  C   UNL     1      43.484 -17.593   4.783  1.00  0.00    -0.023 A 
HETATM   23  C   UNL     1      42.848 -18.390   5.761  1.00  0.00     0.009 A 
HETATM   24  C   UNL     1      42.703 -17.947   7.077  1.00  0.00     0.001 A 
HETATM   25  C   UNL     1      43.194 -16.700   7.446  1.00  0.00     0.000 A 
HETATM   26  C   UNL     1      43.821 -15.897   6.500  1.00  0.00     0.001 A 
HETATM   27  C   UNL     1      43.967 -16.337   5.181  1.00  0.00     0.009 A 
ENDBRANCH  15  22
ENDBRANCH  11  15
ENDBRANCH   1   8
BRANCH   3  28
HETATM   28  N   UNL     1      42.725 -11.748   0.295  1.00  0.00    -0.062 NA
BRANCH  28  29
HETATM   29  C   UNL     1      42.624 -11.490  -1.078  1.00  0.00     0.076 A 
HETATM   30  C   UNL     1      42.405 -12.547  -1.963  1.00  0.00     0.032 A 
HETATM   31  C   UNL     1      42.294 -12.312  -3.335  1.00  0.00     0.002 A 
HETATM   32  C   UNL     1      42.397 -11.012  -3.830  1.00  0.00     0.000 A 
HETATM   33  C   UNL     1      42.595  -9.947  -2.952  1.00  0.00     0.002 A 
HETATM   34  C   UNL     1      42.694 -10.185  -1.580  1.00  0.00     0.032 A 
ENDBRANCH  28  29
ENDBRANCH   3  28
BRANCH   5  35
HETATM   35  N   UNL     1      39.019 -11.899   3.119  1.00  0.00    -0.189 N 
HETATM   36  H   UNL     1      38.042 -11.986   2.867  1.00  0.00     0.184 HD
BRANCH  35  37
HETATM   37  C   UNL     1      39.209 -11.606   4.486  1.00  0.00     0.049 A 
HETATM   38  C   UNL     1      39.226 -12.610   5.465  1.00  0.00     0.030 A 
HETATM   39  C   UNL     1      39.407 -12.295   6.814  1.00  0.00     0.002 A 
HETATM   40  C   UNL     1      39.562 -10.968   7.205  1.00  0.00     0.000 A 
HETATM   41  C   UNL     1      39.544  -9.958   6.247  1.00  0.00     0.002 A 
HETATM   42  C   UNL     1      39.374 -10.276   4.895  1.00  0.00     0.030 A 
ENDBRANCH  35  37
ENDBRANCH   5  35
TORSDOF 8
ENDMDL
MODEL 10
REMARK VINA RESULT:      -9.5      3.380      7.860
REMARK  8 active torsions:
REMARK  status: ('A' for Active; 'I' for Inactive)
REMARK    1  A    between atoms: C_4  and  C_5 
REMARK    2  A    between atoms: C_5  and  N_6 
REMARK    3  A    between atoms: C_5  and  C_33 
REMARK    4  A    between atoms: N_10  and  C_11 
REMARK    5  A    between atoms: C_13  and  N_14 
REMARK    6  A    between atoms: N_14  and  C_15 
REMARK    7  A    between atoms: C_22  and  N_23 
REMARK    8  A    between atoms: N_23  and  C_24 
ROOT
HETATM    1  C   UNL     1      40.818 -14.186   0.949  1.00  0.00     0.756 A 
HETATM    2  N   UNL     1      40.100 -13.494   1.782  1.00  0.00     0.131 NA
HETATM    3  C   UNL     1      40.323 -12.150   1.879  1.00  0.00     0.757 A 
HETATM    4  N   UNL     1      41.296 -11.613   1.098  1.00  0.00    -0.016 N 
HETATM    5  C   UNL     1      41.968 -12.356   0.191  1.00  0.00     0.735 A 
HETATM    6  N   UNL     1      41.726 -13.626   0.084  1.00  0.00     0.129 NA
HETATM    7  H   UNL     1      41.357 -10.609   1.070  1.00  0.00     0.203 HD
ENDROOT
BRANCH   1   8
HETATM    8  N   UNL     1      40.648 -15.563   0.880  1.00  0.00    -0.210 N 
HETATM    9  C   UNL     1      40.114 -16.276   2.047  1.00  0.00     0.169 C 
HETATM   10  C   UNL     1      41.268 -16.584   3.021  1.00  0.00     0.256 C 
HETATM   11  N   UNL     1      42.352 -17.394   2.291  1.00  0.00    -0.056 N 
HETATM   12  H   UNL     1      41.888 -18.239   1.944  1.00  0.00     0.281 HD
HETATM   13  C   UNL     1      42.835 -16.669   1.027  1.00  0.00     0.256 C 
HETATM   14  C   UNL     1      41.627 -16.355   0.115  1.00  0.00     0.169 C 
BRANCH  11  15
HETATM   15  C   UNL     1      43.432 -17.919   3.233  1.00  0.00     0.254 C 
BRANCH  15  16
HETATM   16  C   UNL     1      43.799 -19.390   3.059  1.00  0.00    -0.023 A 
HETATM   17  C   UNL     1      43.293 -20.092   1.944  1.00  0.00     0.009 A 
HETATM   18  C   UNL     1      43.567 -21.449   1.757  1.00  0.00     0.001 A 
HETATM   19  C   UNL     1      44.356 -22.133   2.674  1.00  0.00     0.000 A 
HETATM   20  C   UNL     1      44.875 -21.461   3.776  1.00  0.00     0.001 A 
HETATM   21  C   UNL     1      44.600 -20.104   3.967  1.00  0.00     0.009 A 
ENDBRANCH  15  16
BRANCH  15  22
HETATM   22  C   UNL     1      43.262 -17.375   4.651  1.00  0.00    -0.023 A 
HETATM   23  C   UNL     1      42.577 -18.172   5.596  1.00  0.00     0.009 A 
HETATM   24  C   UNL     1      42.414 -17.752   6.918  1.00  0.00     0.001 A 
HETATM   25  C   UNL     1      42.934 -16.528   7.324  1.00  0.00     0.000 A 
HETATM   26  C   UNL     1      43.609 -15.726   6.410  1.00  0.00     0.001 A 
HETATM   27  C   UNL     1      43.773 -16.144   5.087  1.00  0.00     0.009 A 
ENDBRANCH  15  22
ENDBRANCH  11  15
ENDBRANCH   1   8
BRANCH   3  28
HETATM   28  N   UNL     1      39.555 -11.539   2.722  1.00  0.00    -0.062 NA
BRANCH  28  29
HETATM   29  C   UNL     1      39.883 -11.532   4.084  1.00  0.00     0.076 A 
HETATM   30  C   UNL     1      40.956 -10.758   4.529  1.00  0.00     0.032 A 
HETATM   31  C   UNL     1      41.298 -10.731   5.883  1.00  0.00     0.002 A 
HETATM   32  C   UNL     1      40.561 -11.478   6.802  1.00  0.00     0.000 A 
HETATM   33  C   UNL     1      39.475 -12.238   6.370  1.00  0.00     0.002 A 
HETATM   34  C   UNL     1      39.130 -12.253   5.017  1.00  0.00     0.032 A 
ENDBRANCH  28  29
ENDBRANCH   3  28
BRANCH   5  35
HETATM   35  N   UNL     1      42.875 -11.643  -0.549  1.00  0.00    -0.189 N 
HETATM   36  H   UNL     1      43.849 -11.828  -0.344  1.00  0.00     0.184 HD
BRANCH  35  37
HETATM   37  C   UNL     1      42.668 -11.197  -1.872  1.00  0.00     0.049 A 
HETATM   38  C   UNL     1      42.483 -12.092  -2.936  1.00  0.00     0.030 A 
HETATM   39  C   UNL     1      42.288 -11.627  -4.239  1.00  0.00     0.002 A 
HETATM   40  C   UNL     1      42.288 -10.259  -4.498  1.00  0.00     0.000 A 
HETATM   41  C   UNL     1      42.475  -9.358  -3.454  1.00  0.00     0.002 A 
HETATM   42  C   UNL     1      42.659  -9.823  -2.149  1.00  0.00     0.030 A 
ENDBRANCH  35  37
ENDBRANCH   5  35
TORSDOF 8
ENDMDL
