MODEL 1
REMARK VINA RESULT:      -8.1      0.000      0.000
REMARK  7 active torsions:
REMARK  status: ('A' for Active; 'I' for Inactive)
REMARK    1  A    between atoms: C_2  and  O_3 
REMARK    2  A    between atoms: O_3  and  C_4 
REMARK    3  A    between atoms: C_4  and  C_5 
REMARK    4  A    between atoms: C_6  and  C_7 
REMARK    5  A    between atoms: C_18  and  C_19 
REMARK    6  A    between atoms: C_19  and  N_20 
REMARK    7  A    between atoms: N_20  and  C_21 
ROOT
HETATM    1  C   UNL     1      42.361 -15.808   6.137  1.00  0.00     0.068 A 
HETATM    2  C   UNL     1      42.174 -14.321   6.049  1.00  0.00     0.161 A 
HETATM    3  N   UNL     1      43.290 -13.608   6.640  1.00  0.00    -0.330 N 
HETATM    4  C   UNL     1      44.437 -14.174   7.082  1.00  0.00     0.321 A 
HETATM    5  O   UNL     1      45.368 -13.497   7.506  1.00  0.00    -0.247 OA
HETATM    6  N   UNL     1      44.502 -15.532   7.039  1.00  0.00    -0.311 N 
HETATM    7  C   UNL     1      43.497 -16.368   6.595  1.00  0.00     0.041 A 
HETATM    8  H   UNL     1      43.272 -12.597   6.661  1.00  0.00     0.165 HD
HETATM    9  H   UNL     1      45.370 -15.921   7.390  1.00  0.00     0.170 HD
ENDROOT
BRANCH   7  10
HETATM   10  C   UNL     1      43.781 -17.853   6.682  1.00  0.00     0.150 C 
BRANCH  10  11
HETATM   11  N   UNL     1      44.914 -18.139   5.808  1.00  0.00    -0.287 NA
HETATM   12  H   UNL     1      45.397 -17.291   5.521  1.00  0.00     0.128 HD
BRANCH  11  13
HETATM   13  C   UNL     1      44.710 -19.014   4.731  1.00  0.00     0.010 A 
HETATM   14  C   UNL     1      44.850 -20.391   4.939  1.00  0.00     0.047 A 
HETATM   15  C   UNL     1      44.607 -21.313   3.910  1.00  0.00     0.041 A 
HETATM   16 CL   UNL     1      44.832 -22.991   4.262  1.00  0.00    -0.084 Cl
HETATM   17  C   UNL     1      44.190 -20.881   2.646  1.00  0.00    -0.040 A 
HETATM   18  C   UNL     1      43.908 -21.835   1.522  1.00  0.00     0.050 C 
HETATM   19  C   UNL     1      43.988 -19.510   2.452  1.00  0.00     0.010 A 
HETATM   20  C   UNL     1      44.234 -18.595   3.484  1.00  0.00     0.024 A 
ENDBRANCH  11  13
ENDBRANCH  10  11
ENDBRANCH   7  10
BRANCH   1  21
HETATM   21  C   UNL     1      41.226 -16.643   5.686  1.00  0.00     0.293 C 
HETATM   22  O   UNL     1      40.215 -16.845   6.338  1.00  0.00    -0.259 OA
BRANCH  21  23
HETATM   23  O   UNL     1      41.502 -17.147   4.457  1.00  0.00    -0.318 OA
BRANCH  23  24
HETATM   24  C   UNL     1      40.545 -16.839   3.433  1.00  0.00     0.174 C 
HETATM   25  C   UNL     1      41.168 -16.979   2.057  1.00  0.00     0.034 C 
ENDBRANCH  23  24
ENDBRANCH  21  23
ENDBRANCH   1  21
BRANCH   2  26
HETATM   26  C   UNL     1      41.962 -13.845   4.617  1.00  0.00    -0.031 A 
HETATM   27  C   UNL     1      40.731 -13.288   4.233  1.00  0.00     0.011 A 
HETATM   28  C   UNL     1      40.510 -12.891   2.911  1.00  0.00     0.024 A 
HETATM   29  C   UNL     1      41.519 -13.047   1.963  1.00  0.00     0.034 A 
HETATM   30 CL   UNL     1      41.243 -12.565   0.335  1.00  0.00    -0.084 Cl
HETATM   31  C   UNL     1      42.748 -13.594   2.325  1.00  0.00     0.024 A 
HETATM   32  C   UNL     1      42.969 -13.991   3.645  1.00  0.00     0.011 A 
ENDBRANCH   2  26
TORSDOF 7
ENDMDL
MODEL 2
REMARK VINA RESULT:      -7.6      2.592      3.637
REMARK  7 active torsions:
REMARK  status: ('A' for Active; 'I' for Inactive)
REMARK    1  A    between atoms: C_2  and  O_3 
REMARK    2  A    between atoms: O_3  and  C_4 
REMARK    3  A    between atoms: C_4  and  C_5 
REMARK    4  A    between atoms: C_6  and  C_7 
REMARK    5  A    between atoms: C_18  and  C_19 
REMARK    6  A    between atoms: C_19  and  N_20 
REMARK    7  A    between atoms: N_20  and  C_21 
ROOT
HETATM    1  C   UNL     1      40.929 -15.561   2.579  1.00  0.00     0.068 A 
HETATM    2  C   UNL     1      39.560 -15.021   2.873  1.00  0.00     0.161 A 
HETATM    3  N   UNL     1      39.484 -14.463   4.210  1.00  0.00    -0.330 N 
HETATM    4  C   UNL     1      40.531 -14.295   5.051  1.00  0.00     0.321 A 
HETATM    5  O   UNL     1      40.400 -13.749   6.141  1.00  0.00    -0.247 OA
HETATM    6  N   UNL     1      41.734 -14.769   4.628  1.00  0.00    -0.311 N 
HETATM    7  C   UNL     1      41.964 -15.410   3.427  1.00  0.00     0.041 A 
HETATM    8  H   UNL     1      38.604 -14.084   4.535  1.00  0.00     0.165 HD
HETATM    9  H   UNL     1      42.491 -14.637   5.288  1.00  0.00     0.170 HD
ENDROOT
BRANCH   7  10
HETATM   10  C   UNL     1      43.381 -15.891   3.192  1.00  0.00     0.150 C 
BRANCH  10  11
HETATM   11  N   UNL     1      43.640 -16.980   4.127  1.00  0.00    -0.287 NA
HETATM   12  H   UNL     1      44.320 -16.718   4.837  1.00  0.00     0.128 HD
BRANCH  11  13
HETATM   13  C   UNL     1      43.899 -18.253   3.601  1.00  0.00     0.010 A 
HETATM   14  C   UNL     1      44.309 -19.275   4.466  1.00  0.00     0.047 A 
HETATM   15  C   UNL     1      44.532 -20.579   4.002  1.00  0.00     0.041 A 
HETATM   16 CL   UNL     1      45.060 -21.763   5.146  1.00  0.00    -0.084 Cl
HETATM   17  C   UNL     1      44.323 -20.905   2.657  1.00  0.00    -0.040 A 
HETATM   18  C   UNL     1      44.537 -22.292   2.122  1.00  0.00     0.050 C 
HETATM   19  C   UNL     1      43.852 -19.903   1.802  1.00  0.00     0.010 A 
HETATM   20  C   UNL     1      43.634 -18.602   2.272  1.00  0.00     0.024 A 
ENDBRANCH  11  13
ENDBRANCH  10  11
ENDBRANCH   7  10
BRANCH   1  21
HETATM   21  C   UNL     1      41.093 -16.276   1.294  1.00  0.00     0.293 C 
HETATM   22  O   UNL     1      40.707 -17.413   1.081  1.00  0.00    -0.259 OA
BRANCH  21  23
HETATM   23  O   UNL     1      41.747 -15.474   0.416  1.00  0.00    -0.318 OA
BRANCH  23  24
HETATM   24  C   UNL     1      41.118 -15.318  -0.864  1.00  0.00     0.174 C 
HETATM   25  C   UNL     1      41.466 -13.971  -1.472  1.00  0.00     0.034 C 
ENDBRANCH  23  24
ENDBRANCH  21  23
ENDBRANCH   1  21
BRANCH   2  26
HETATM   26  C   UNL     1      39.116 -13.977   1.855  1.00  0.00    -0.031 A 
HETATM   27  C   UNL     1      38.029 -14.238   1.004  1.00  0.00     0.011 A 
HETATM   28  C   UNL     1      37.643 -13.306   0.037  1.00  0.00     0.024 A 
HETATM   29  C   UNL     1      38.340 -12.106  -0.088  1.00  0.00     0.034 A 
HETATM   30 CL   UNL     1      37.868 -10.964  -1.285  1.00  0.00    -0.084 Cl
HETATM   31  C   UNL     1      39.417 -11.827   0.749  1.00  0.00     0.024 A 
HETATM   32  C   UNL     1      39.804 -12.758   1.716  1.00  0.00     0.011 A 
ENDBRANCH   2  26
TORSDOF 7
ENDMDL
MODEL 3
REMARK VINA RESULT:      -7.6      2.925      4.316
REMARK  7 active torsions:
REMARK  status: ('A' for Active; 'I' for Inactive)
REMARK    1  A    between atoms: C_2  and  O_3 
REMARK    2  A    between atoms: O_3  and  C_4 
REMARK    3  A    between atoms: C_4  and  C_5 
REMARK    4  A    between atoms: C_6  and  C_7 
REMARK    5  A    between atoms: C_18  and  C_19 
REMARK    6  A    between atoms: C_19  and  N_20 
REMARK    7  A    between atoms: N_20  and  C_21 
ROOT
HETATM    1  C   UNL     1      42.344 -14.564   4.537  1.00  0.00     0.068 A 
HETATM    2  C   UNL     1      42.491 -13.075   4.654  1.00  0.00     0.161 A 
HETATM    3  N   UNL     1      42.304 -12.419   3.374  1.00  0.00    -0.330 N 
HETATM    4  C   UNL     1      41.897 -13.024   2.234  1.00  0.00     0.321 A 
HETATM    5  O   UNL     1      41.692 -12.389   1.205  1.00  0.00    -0.247 OA
HETATM    6  N   UNL     1      41.732 -14.374   2.287  1.00  0.00    -0.311 N 
HETATM    7  C   UNL     1      41.957 -15.165   3.395  1.00  0.00     0.041 A 
HETATM    8  H   UNL     1      42.400 -11.414   3.319  1.00  0.00     0.165 HD
HETATM    9  H   UNL     1      41.439 -14.794   1.412  1.00  0.00     0.170 HD
ENDROOT
BRANCH   7  10
HETATM   10  C   UNL     1      41.749 -16.653   3.202  1.00  0.00     0.150 C 
BRANCH  10  11
HETATM   11  N   UNL     1      42.987 -17.208   2.666  1.00  0.00    -0.287 NA
HETATM   12  H   UNL     1      42.980 -17.242   1.650  1.00  0.00     0.128 HD
BRANCH  11  13
HETATM   13  C   UNL     1      43.472 -18.399   3.225  1.00  0.00     0.010 A 
HETATM   14  C   UNL     1      43.712 -19.494   2.386  1.00  0.00     0.047 A 
HETATM   15  C   UNL     1      44.245 -20.691   2.884  1.00  0.00     0.041 A 
HETATM   16 CL   UNL     1      44.481 -21.993   1.771  1.00  0.00    -0.084 Cl
HETATM   17  C   UNL     1      44.581 -20.818   4.237  1.00  0.00    -0.040 A 
HETATM   18  C   UNL     1      45.166 -22.077   4.807  1.00  0.00     0.050 C 
HETATM   19  C   UNL     1      44.402 -19.705   5.066  1.00  0.00     0.010 A 
HETATM   20  C   UNL     1      43.867 -18.513   4.563  1.00  0.00     0.024 A 
ENDBRANCH  11  13
ENDBRANCH  10  11
ENDBRANCH   7  10
BRANCH   1  21
HETATM   21  C   UNL     1      42.644 -15.354   5.752  1.00  0.00     0.293 C 
HETATM   22  O   UNL     1      41.804 -15.908   6.440  1.00  0.00    -0.259 OA
BRANCH  21  23
HETATM   23  O   UNL     1      43.982 -15.343   5.973  1.00  0.00    -0.318 OA
BRANCH  23  24
HETATM   24  C   UNL     1      44.385 -14.991   7.305  1.00  0.00     0.174 C 
HETATM   25  C   UNL     1      45.090 -13.647   7.315  1.00  0.00     0.034 C 
ENDBRANCH  23  24
ENDBRANCH  21  23
ENDBRANCH   1  21
BRANCH   2  26
HETATM   26  C   UNL     1      41.539 -12.476   5.682  1.00  0.00    -0.031 A 
HETATM   27  C   UNL     1      42.011 -11.551   6.628  1.00  0.00     0.011 A 
HETATM   28  C   UNL     1      41.157 -11.031   7.604  1.00  0.00     0.024 A 
HETATM   29  C   UNL     1      39.822 -11.430   7.641  1.00  0.00     0.034 A 
HETATM   30 CL   UNL     1      38.773 -10.794   8.847  1.00  0.00    -0.084 Cl
HETATM   31  C   UNL     1      39.333 -12.342   6.708  1.00  0.00     0.024 A 
HETATM   32  C   UNL     1      40.187 -12.863   5.734  1.00  0.00     0.011 A 
ENDBRANCH   2  26
TORSDOF 7
ENDMDL
MODEL 4
REMARK VINA RESULT:      -7.5      3.916      5.681
REMARK  7 active torsions:
REMARK  status: ('A' for Active; 'I' for Inactive)
REMARK    1  A    between atoms: C_2  and  O_3 
REMARK    2  A    between atoms: O_3  and  C_4 
REMARK    3  A    between atoms: C_4  and  C_5 
REMARK    4  A    between atoms: C_6  and  C_7 
REMARK    5  A    between atoms: C_18  and  C_19 
REMARK    6  A    between atoms: C_19  and  N_20 
REMARK    7  A    between atoms: N_20  and  C_21 
ROOT
HETATM    1  C   UNL     1      41.171 -14.601   0.472  1.00  0.00     0.068 A 
HETATM    2  C   UNL     1      40.884 -13.342  -0.294  1.00  0.00     0.161 A 
HETATM    3  N   UNL     1      40.892 -13.576  -1.726  1.00  0.00    -0.330 N 
HETATM    4  C   UNL     1      40.988 -14.788  -2.322  1.00  0.00     0.321 A 
HETATM    5  O   UNL     1      40.916 -14.914  -3.540  1.00  0.00    -0.247 OA
HETATM    6  N   UNL     1      41.175 -15.857  -1.502  1.00  0.00    -0.311 N 
HETATM    7  C   UNL     1      41.285 -15.802  -0.127  1.00  0.00     0.041 A 
HETATM    8  H   UNL     1      40.732 -12.799  -2.352  1.00  0.00     0.165 HD
HETATM    9  H   UNL     1      41.255 -16.745  -1.984  1.00  0.00     0.170 HD
ENDROOT
BRANCH   7  10
HETATM   10  C   UNL     1      41.535 -17.122   0.573  1.00  0.00     0.150 C 
BRANCH  10  11
HETATM   11  N   UNL     1      42.959 -17.195   0.882  1.00  0.00    -0.287 NA
HETATM   12  H   UNL     1      43.525 -17.314   0.045  1.00  0.00     0.128 HD
BRANCH  11  13
HETATM   13  C   UNL     1      43.366 -18.054   1.913  1.00  0.00     0.010 A 
HETATM   14  C   UNL     1      43.600 -19.403   1.619  1.00  0.00     0.047 A 
HETATM   15  C   UNL     1      44.058 -20.294   2.600  1.00  0.00     0.041 A 
HETATM   16 CL   UNL     1      44.292 -21.946   2.143  1.00  0.00    -0.084 Cl
HETATM   17  C   UNL     1      44.322 -19.853   3.902  1.00  0.00    -0.040 A 
HETATM   18  C   UNL     1      44.825 -20.771   4.977  1.00  0.00     0.050 C 
HETATM   19  C   UNL     1      44.150 -18.493   4.183  1.00  0.00     0.010 A 
HETATM   20  C   UNL     1      43.691 -17.609   3.199  1.00  0.00     0.024 A 
ENDBRANCH  11  13
ENDBRANCH  10  11
ENDBRANCH   7  10
BRANCH   1  21
HETATM   21  C   UNL     1      41.320 -14.461   1.937  1.00  0.00     0.293 C 
HETATM   22  O   UNL     1      40.400 -14.524   2.735  1.00  0.00    -0.259 OA
BRANCH  21  23
HETATM   23  O   UNL     1      42.625 -14.238   2.234  1.00  0.00    -0.318 OA
BRANCH  23  24
HETATM   24  C   UNL     1      42.866 -13.323   3.313  1.00  0.00     0.174 C 
HETATM   25  C   UNL     1      43.635 -14.002   4.431  1.00  0.00     0.034 C 
ENDBRANCH  23  24
ENDBRANCH  21  23
ENDBRANCH   1  21
BRANCH   2  26
HETATM   26  C   UNL     1      39.563 -12.701   0.113  1.00  0.00    -0.031 A 
HETATM   27  C   UNL     1      38.366 -13.432   0.027  1.00  0.00     0.011 A 
HETATM   28  C   UNL     1      37.144 -12.839   0.354  1.00  0.00     0.024 A 
HETATM   29  C   UNL     1      37.108 -11.510   0.771  1.00  0.00     0.034 A 
HETATM   30 CL   UNL     1      35.602 -10.780   1.166  1.00  0.00    -0.084 Cl
HETATM   31  C   UNL     1      38.284 -10.770   0.868  1.00  0.00     0.024 A 
HETATM   32  C   UNL     1      39.505 -11.362   0.541  1.00  0.00     0.011 A 
ENDBRANCH   2  26
TORSDOF 7
ENDMDL
MODEL 5
REMARK VINA RESULT:      -7.5      3.239      4.938
REMARK  7 active torsions:
REMARK  status: ('A' for Active; 'I' for Inactive)
REMARK    1  A    between atoms: C_2  and  O_3 
REMARK    2  A    between atoms: O_3  and  C_4 
REMARK    3  A    between atoms: C_4  and  C_5 
REMARK    4  A    between atoms: C_6  and  C_7 
REMARK    5  A    between atoms: C_18  and  C_19 
REMARK    6  A    between atoms: C_19  and  N_20 
REMARK    7  A    between atoms: N_20  and  C_21 
ROOT
HETATM    1  C   UNL     1      41.957 -15.148   1.398  1.00  0.00     0.068 A 
HETATM    2  C   UNL     1      41.770 -13.836   0.692  1.00  0.00     0.161 A 
HETATM    3  N   UNL     1      41.347 -14.026  -0.682  1.00  0.00    -0.330 N 
HETATM    4  C   UNL     1      41.007 -15.211  -1.242  1.00  0.00     0.321 A 
HETATM    5  O   UNL     1      40.590 -15.283  -2.393  1.00  0.00    -0.247 OA
HETATM    6  N   UNL     1      41.157 -16.317  -0.464  1.00  0.00    -0.311 N 
HETATM    7  C   UNL     1      41.635 -16.327   0.831  1.00  0.00     0.041 A 
HETATM    8  H   UNL     1      41.208 -13.215  -1.270  1.00  0.00     0.165 HD
HETATM    9  H   UNL     1      40.904 -17.186  -0.921  1.00  0.00     0.170 HD
ENDROOT
BRANCH   7  10
HETATM   10  C   UNL     1      41.756 -17.688   1.484  1.00  0.00     0.150 C 
BRANCH  10  11
HETATM   11  N   UNL     1      43.106 -18.182   1.230  1.00  0.00    -0.287 NA
HETATM   12  H   UNL     1      43.231 -18.464   0.261  1.00  0.00     0.128 HD
BRANCH  11  13
HETATM   13  C   UNL     1      43.642 -19.122   2.121  1.00  0.00     0.010 A 
HETATM   14  C   UNL     1      43.943 -18.722   3.429  1.00  0.00     0.047 A 
HETATM   15  C   UNL     1      44.432 -19.633   4.376  1.00  0.00     0.041 A 
HETATM   16 CL   UNL     1      44.798 -19.036   5.957  1.00  0.00    -0.084 Cl
HETATM   17  C   UNL     1      44.609 -20.982   4.047  1.00  0.00    -0.040 A 
HETATM   18  C   UNL     1      45.118 -21.992   5.034  1.00  0.00     0.050 C 
HETATM   19  C   UNL     1      44.250 -21.399   2.760  1.00  0.00     0.010 A 
HETATM   20  C   UNL     1      43.763 -20.482   1.819  1.00  0.00     0.024 A 
ENDBRANCH  11  13
ENDBRANCH  10  11
ENDBRANCH   7  10
BRANCH   1  21
HETATM   21  C   UNL     1      42.515 -15.087   2.767  1.00  0.00     0.293 C 
HETATM   22  O   UNL     1      43.685 -14.861   3.026  1.00  0.00    -0.259 OA
BRANCH  21  23
HETATM   23  O   UNL     1      41.527 -15.335   3.664  1.00  0.00    -0.318 OA
BRANCH  23  24
HETATM   24  C   UNL     1      41.432 -14.402   4.751  1.00  0.00     0.174 C 
HETATM   25  C   UNL     1      39.981 -14.169   5.132  1.00  0.00     0.034 C 
ENDBRANCH  23  24
ENDBRANCH  21  23
ENDBRANCH   1  21
BRANCH   2  26
HETATM   26  C   UNL     1      40.783 -12.924   1.411  1.00  0.00    -0.031 A 
HETATM   27  C   UNL     1      41.239 -11.771   2.071  1.00  0.00     0.011 A 
HETATM   28  C   UNL     1      40.348 -10.954   2.772  1.00  0.00     0.024 A 
HETATM   29  C   UNL     1      38.995 -11.282   2.819  1.00  0.00     0.034 A 
HETATM   30 CL   UNL     1      37.902 -10.278   3.689  1.00  0.00    -0.084 Cl
HETATM   31  C   UNL     1      38.523 -12.419   2.167  1.00  0.00     0.024 A 
HETATM   32  C   UNL     1      39.412 -13.237   1.467  1.00  0.00     0.011 A 
ENDBRANCH   2  26
TORSDOF 7
ENDMDL
MODEL 6
REMARK VINA RESULT:      -7.5      2.635      3.642
REMARK  7 active torsions:
REMARK  status: ('A' for Active; 'I' for Inactive)
REMARK    1  A    between atoms: C_2  and  O_3 
REMARK    2  A    between atoms: O_3  and  C_4 
REMARK    3  A    between atoms: C_4  and  C_5 
REMARK    4  A    between atoms: C_6  and  C_7 
REMARK    5  A    between atoms: C_18  and  C_19 
REMARK    6  A    between atoms: C_19  and  N_20 
REMARK    7  A    between atoms: N_20  and  C_21 
ROOT
HETATM    1  C   UNL     1      41.238 -14.624   3.798  1.00  0.00     0.068 A 
HETATM    2  C   UNL     1      39.977 -14.248   4.520  1.00  0.00     0.161 A 
HETATM    3  N   UNL     1      39.688 -15.171   5.602  1.00  0.00    -0.330 N 
HETATM    4  C   UNL     1      40.507 -16.160   6.029  1.00  0.00     0.321 A 
HETATM    5  O   UNL     1      40.224 -16.856   6.998  1.00  0.00    -0.247 OA
HETATM    6  N   UNL     1      41.655 -16.347   5.324  1.00  0.00    -0.311 N 
HETATM    7  C   UNL     1      42.041 -15.622   4.215  1.00  0.00     0.041 A 
HETATM    8  H   UNL     1      38.851 -15.035   6.152  1.00  0.00     0.165 HD
HETATM    9  H   UNL     1      42.237 -17.104   5.665  1.00  0.00     0.170 HD
ENDROOT
BRANCH   7  10
HETATM   10  C   UNL     1      43.344 -16.041   3.567  1.00  0.00     0.150 C 
BRANCH  10  11
HETATM   11  N   UNL     1      43.889 -17.149   4.345  1.00  0.00    -0.287 NA
HETATM   12  H   UNL     1      44.725 -16.880   4.857  1.00  0.00     0.128 HD
BRANCH  11  13
HETATM   13  C   UNL     1      44.043 -18.388   3.707  1.00  0.00     0.010 A 
HETATM   14  C   UNL     1      44.483 -19.487   4.455  1.00  0.00     0.047 A 
HETATM   15  C   UNL     1      44.605 -20.760   3.880  1.00  0.00     0.041 A 
HETATM   16 CL   UNL     1      45.181 -22.045   4.882  1.00  0.00    -0.084 Cl
HETATM   17  C   UNL     1      44.263 -20.976   2.540  1.00  0.00    -0.040 A 
HETATM   18  C   UNL     1      44.367 -22.325   1.890  1.00  0.00     0.050 C 
HETATM   19  C   UNL     1      43.763 -19.895   1.806  1.00  0.00     0.010 A 
HETATM   20  C   UNL     1      43.645 -18.625   2.387  1.00  0.00     0.024 A 
ENDBRANCH  11  13
ENDBRANCH  10  11
ENDBRANCH   7  10
BRANCH   1  21
HETATM   21  C   UNL     1      41.566 -13.834   2.590  1.00  0.00     0.293 C 
HETATM   22  O   UNL     1      42.364 -12.912   2.564  1.00  0.00    -0.259 OA
BRANCH  21  23
HETATM   23  O   UNL     1      40.831 -14.289   1.544  1.00  0.00    -0.318 OA
BRANCH  23  24
HETATM   24  C   UNL     1      41.586 -14.806   0.438  1.00  0.00     0.174 C 
HETATM   25  C   UNL     1      41.447 -16.315   0.353  1.00  0.00     0.034 C 
ENDBRANCH  23  24
ENDBRANCH  21  23
ENDBRANCH   1  21
BRANCH   2  26
HETATM   26  C   UNL     1      40.018 -12.823   5.059  1.00  0.00    -0.031 A 
HETATM   27  C   UNL     1      40.977 -12.458   6.018  1.00  0.00     0.011 A 
HETATM   28  C   UNL     1      40.993 -11.167   6.552  1.00  0.00     0.024 A 
HETATM   29  C   UNL     1      40.052 -10.230   6.131  1.00  0.00     0.034 A 
HETATM   30 CL   UNL     1      40.069  -8.643   6.795  1.00  0.00    -0.084 Cl
HETATM   31  C   UNL     1      39.096 -10.571   5.177  1.00  0.00     0.024 A 
HETATM   32  C   UNL     1      39.078 -11.861   4.644  1.00  0.00     0.011 A 
ENDBRANCH   2  26
TORSDOF 7
ENDMDL
MODEL 7
REMARK VINA RESULT:      -7.4      4.484      6.434
REMARK  7 active torsions:
REMARK  status: ('A' for Active; 'I' for Inactive)
REMARK    1  A    between atoms: C_2  and  O_3 
REMARK    2  A    between atoms: O_3  and  C_4 
REMARK    3  A    between atoms: C_4  and  C_5 
REMARK    4  A    between atoms: C_6  and  C_7 
REMARK    5  A    between atoms: C_18  and  C_19 
REMARK    6  A    between atoms: C_19  and  N_20 
REMARK    7  A    between atoms: N_20  and  C_21 
ROOT
HETATM    1  C   UNL     1      41.428 -13.497   0.312  1.00  0.00     0.068 A 
HETATM    2  C   UNL     1      42.229 -13.274  -0.938  1.00  0.00     0.161 A 
HETATM    3  N   UNL     1      41.890 -14.238  -1.967  1.00  0.00    -0.330 N 
HETATM    4  C   UNL     1      40.880 -15.136  -1.899  1.00  0.00     0.321 A 
HETATM    5  O   UNL     1      40.609 -15.873  -2.840  1.00  0.00    -0.247 OA
HETATM    6  N   UNL     1      40.186 -15.185  -0.729  1.00  0.00    -0.311 N 
HETATM    7  C   UNL     1      40.436 -14.406   0.383  1.00  0.00     0.041 A 
HETATM    8  H   UNL     1      42.378 -14.203  -2.852  1.00  0.00     0.165 HD
HETATM    9  H   UNL     1      39.447 -15.878  -0.710  1.00  0.00     0.170 HD
ENDROOT
BRANCH   7  10
HETATM   10  C   UNL     1      39.558 -14.669   1.589  1.00  0.00     0.150 C 
BRANCH  10  11
HETATM   11  N   UNL     1      39.491 -16.114   1.781  1.00  0.00    -0.287 NA
HETATM   12  H   UNL     1      38.661 -16.390   2.299  1.00  0.00     0.128 HD
BRANCH  11  13
HETATM   13  C   UNL     1      40.639 -16.771   2.245  1.00  0.00     0.010 A 
HETATM   14  C   UNL     1      40.996 -16.642   3.593  1.00  0.00     0.047 A 
HETATM   15  C   UNL     1      42.105 -17.318   4.122  1.00  0.00     0.041 A 
HETATM   16 CL   UNL     1      42.477 -17.073   5.793  1.00  0.00    -0.084 Cl
HETATM   17  C   UNL     1      42.874 -18.168   3.320  1.00  0.00    -0.040 A 
HETATM   18  C   UNL     1      44.060 -18.921   3.850  1.00  0.00     0.050 C 
HETATM   19  C   UNL     1      42.484 -18.350   1.989  1.00  0.00     0.010 A 
HETATM   20  C   UNL     1      41.376 -17.669   1.466  1.00  0.00     0.024 A 
ENDBRANCH  11  13
ENDBRANCH  10  11
ENDBRANCH   7  10
BRANCH   1  21
HETATM   21  C   UNL     1      41.780 -12.658   1.479  1.00  0.00     0.293 C 
HETATM   22  O   UNL     1      41.236 -11.603   1.761  1.00  0.00    -0.259 OA
BRANCH  21  23
HETATM   23  O   UNL     1      42.798 -13.243   2.159  1.00  0.00    -0.318 OA
BRANCH  23  24
HETATM   24  C   UNL     1      42.663 -13.252   3.587  1.00  0.00     0.174 C 
HETATM   25  C   UNL     1      43.814 -14.003   4.231  1.00  0.00     0.034 C 
ENDBRANCH  23  24
ENDBRANCH  21  23
ENDBRANCH   1  21
BRANCH   2  26
HETATM   26  C   UNL     1      42.069 -11.860  -1.486  1.00  0.00    -0.031 A 
HETATM   27  C   UNL     1      40.822 -11.424  -1.962  1.00  0.00     0.011 A 
HETATM   28  C   UNL     1      40.676 -10.147  -2.509  1.00  0.00     0.024 A 
HETATM   29  C   UNL     1      41.775  -9.294  -2.583  1.00  0.00     0.034 A 
HETATM   30 CL   UNL     1      41.595  -7.724  -3.264  1.00  0.00    -0.084 Cl
HETATM   31  C   UNL     1      43.019  -9.706  -2.112  1.00  0.00     0.024 A 
HETATM   32  C   UNL     1      43.166 -10.983  -1.566  1.00  0.00     0.011 A 
ENDBRANCH   2  26
TORSDOF 7
ENDMDL
MODEL 8
REMARK VINA RESULT:      -7.3      3.889      8.121
REMARK  7 active torsions:
REMARK  status: ('A' for Active; 'I' for Inactive)
REMARK    1  A    between atoms: C_2  and  O_3 
REMARK    2  A    between atoms: O_3  and  C_4 
REMARK    3  A    between atoms: C_4  and  C_5 
REMARK    4  A    between atoms: C_6  and  C_7 
REMARK    5  A    between atoms: C_18  and  C_19 
REMARK    6  A    between atoms: C_19  and  N_20 
REMARK    7  A    between atoms: N_20  and  C_21 
ROOT
HETATM    1  C   UNL     1      41.444 -13.967   2.917  1.00  0.00     0.068 A 
HETATM    2  C   UNL     1      40.725 -15.208   3.359  1.00  0.00     0.161 A 
HETATM    3  N   UNL     1      39.412 -15.308   2.752  1.00  0.00    -0.330 N 
HETATM    4  C   UNL     1      38.928 -14.488   1.790  1.00  0.00     0.321 A 
HETATM    5  O   UNL     1      37.832 -14.678   1.273  1.00  0.00    -0.247 OA
HETATM    6  N   UNL     1      39.716 -13.439   1.431  1.00  0.00    -0.311 N 
HETATM    7  C   UNL     1      40.951 -13.143   1.973  1.00  0.00     0.041 A 
HETATM    8  H   UNL     1      38.820 -16.093   2.988  1.00  0.00     0.165 HD
HETATM    9  H   UNL     1      39.316 -12.840   0.718  1.00  0.00     0.170 HD
ENDROOT
BRANCH   7  10
HETATM   10  C   UNL     1      41.626 -11.894   1.444  1.00  0.00     0.150 C 
BRANCH  10  11
HETATM   11  N   UNL     1      42.650 -12.314   0.492  1.00  0.00    -0.287 NA
HETATM   12  H   UNL     1      43.587 -12.227   0.879  1.00  0.00     0.128 HD
BRANCH  11  13
HETATM   13  C   UNL     1      42.577 -11.815  -0.816  1.00  0.00     0.010 A 
HETATM   14  C   UNL     1      42.753 -10.442  -1.030  1.00  0.00     0.047 A 
HETATM   15  C   UNL     1      42.741  -9.898  -2.322  1.00  0.00     0.041 A 
HETATM   16 CL   UNL     1      42.943  -8.188  -2.478  1.00  0.00    -0.084 Cl
HETATM   17  C   UNL     1      42.579 -10.719  -3.443  1.00  0.00    -0.040 A 
HETATM   18  C   UNL     1      42.574 -10.178  -4.844  1.00  0.00     0.050 C 
HETATM   19  C   UNL     1      42.466 -12.099  -3.238  1.00  0.00     0.010 A 
HETATM   20  C   UNL     1      42.477 -12.635  -1.945  1.00  0.00     0.024 A 
ENDBRANCH  11  13
ENDBRANCH  10  11
ENDBRANCH   7  10
BRANCH   1  21
HETATM   21  C   UNL     1      42.741 -13.688   3.572  1.00  0.00     0.293 C 
HETATM   22  O   UNL     1      43.830 -13.857   3.049  1.00  0.00    -0.259 OA
BRANCH  21  23
HETATM   23  O   UNL     1      42.518 -13.237   4.832  1.00  0.00    -0.318 OA
BRANCH  23  24
HETATM   24  C   UNL     1      42.846 -14.157   5.884  1.00  0.00     0.174 C 
HETATM   25  C   UNL     1      44.263 -13.927   6.376  1.00  0.00     0.034 C 
ENDBRANCH  23  24
ENDBRANCH  21  23
ENDBRANCH   1  21
BRANCH   2  26
HETATM   26  C   UNL     1      41.521 -16.476   3.070  1.00  0.00    -0.031 A 
HETATM   27  C   UNL     1      41.951 -17.296   4.126  1.00  0.00     0.011 A 
HETATM   28  C   UNL     1      42.721 -18.435   3.875  1.00  0.00     0.024 A 
HETATM   29  C   UNL     1      43.066 -18.764   2.566  1.00  0.00     0.034 A 
HETATM   30 CL   UNL     1      44.020 -20.162   2.259  1.00  0.00    -0.084 Cl
HETATM   31  C   UNL     1      42.646 -17.966   1.504  1.00  0.00     0.024 A 
HETATM   32  C   UNL     1      41.877 -16.827   1.755  1.00  0.00     0.011 A 
ENDBRANCH   2  26
TORSDOF 7
ENDMDL
MODEL 9
REMARK VINA RESULT:      -7.3      2.324      7.106
REMARK  7 active torsions:
REMARK  status: ('A' for Active; 'I' for Inactive)
REMARK    1  A    between atoms: C_2  and  O_3 
REMARK    2  A    between atoms: O_3  and  C_4 
REMARK    3  A    between atoms: C_4  and  C_5 
REMARK    4  A    between atoms: C_6  and  C_7 
REMARK    5  A    between atoms: C_18  and  C_19 
REMARK    6  A    between atoms: C_19  and  N_20 
REMARK    7  A    between atoms: N_20  and  C_21 
ROOT
HETATM    1  C   UNL     1      42.540 -16.390   5.036  1.00  0.00     0.068 A 
HETATM    2  C   UNL     1      43.908 -16.994   5.165  1.00  0.00     0.161 A 
HETATM    3  N   UNL     1      44.253 -17.242   6.552  1.00  0.00    -0.330 N 
HETATM    4  C   UNL     1      43.416 -17.102   7.605  1.00  0.00     0.321 A 
HETATM    5  O   UNL     1      43.759 -17.399   8.745  1.00  0.00    -0.247 OA
HETATM    6  N   UNL     1      42.176 -16.609   7.337  1.00  0.00    -0.311 N 
HETATM    7  C   UNL     1      41.716 -16.234   6.090  1.00  0.00     0.041 A 
HETATM    8  H   UNL     1      45.161 -17.630   6.770  1.00  0.00     0.165 HD
HETATM    9  H   UNL     1      41.582 -16.507   8.152  1.00  0.00     0.170 HD
ENDROOT
BRANCH   7  10
HETATM   10  C   UNL     1      40.312 -15.669   6.043  1.00  0.00     0.150 C 
BRANCH  10  11
HETATM   11  N   UNL     1      40.371 -14.295   6.531  1.00  0.00    -0.287 NA
HETATM   12  H   UNL     1      40.003 -14.211   7.475  1.00  0.00     0.128 HD
BRANCH  11  13
HETATM   13  C   UNL     1      39.893 -13.278   5.692  1.00  0.00     0.010 A 
HETATM   14  C   UNL     1      39.732 -11.989   6.214  1.00  0.00     0.047 A 
HETATM   15  C   UNL     1      39.307 -10.923   5.408  1.00  0.00     0.041 A 
HETATM   16 CL   UNL     1      39.114  -9.375   6.154  1.00  0.00    -0.084 Cl
HETATM   17  C   UNL     1      39.057 -11.112   4.044  1.00  0.00    -0.040 A 
HETATM   18  C   UNL     1      38.614  -9.996   3.144  1.00  0.00     0.050 C 
HETATM   19  C   UNL     1      39.279 -12.385   3.505  1.00  0.00     0.010 A 
HETATM   20  C   UNL     1      39.701 -13.445   4.317  1.00  0.00     0.024 A 
ENDBRANCH  11  13
ENDBRANCH  10  11
ENDBRANCH   7  10
BRANCH   1  21
HETATM   21  C   UNL     1      42.130 -15.969   3.678  1.00  0.00     0.293 C 
HETATM   22  O   UNL     1      42.649 -15.063   3.049  1.00  0.00    -0.259 OA
BRANCH  21  23
HETATM   23  O   UNL     1      41.090 -16.738   3.268  1.00  0.00    -0.318 OA
BRANCH  23  24
HETATM   24  C   UNL     1      40.543 -16.401   1.984  1.00  0.00     0.174 C 
HETATM   25  C   UNL     1      41.089 -17.323   0.910  1.00  0.00     0.034 C 
ENDBRANCH  23  24
ENDBRANCH  21  23
ENDBRANCH   1  21
BRANCH   2  26
HETATM   26  C   UNL     1      44.053 -18.282   4.362  1.00  0.00    -0.031 A 
HETATM   27  C   UNL     1      44.327 -19.495   5.016  1.00  0.00     0.011 A 
HETATM   28  C   UNL     1      44.507 -20.672   4.285  1.00  0.00     0.024 A 
HETATM   29  C   UNL     1      44.413 -20.647   2.895  1.00  0.00     0.034 A 
HETATM   30 CL   UNL     1      44.643 -22.097   1.997  1.00  0.00    -0.084 Cl
HETATM   31  C   UNL     1      44.137 -19.456   2.229  1.00  0.00     0.024 A 
HETATM   32  C   UNL     1      43.958 -18.279   2.958  1.00  0.00     0.011 A 
ENDBRANCH   2  26
TORSDOF 7
ENDMDL
MODEL 10
REMARK VINA RESULT:      -7.2      1.886      7.094
REMARK  7 active torsions:
REMARK  status: ('A' for Active; 'I' for Inactive)
REMARK    1  A    between atoms: C_2  and  O_3 
REMARK    2  A    between atoms: O_3  and  C_4 
REMARK    3  A    between atoms: C_4  and  C_5 
REMARK    4  A    between atoms: C_6  and  C_7 
REMARK    5  A    between atoms: C_18  and  C_19 
REMARK    6  A    between atoms: C_19  and  N_20 
REMARK    7  A    between atoms: N_20  and  C_21 
ROOT
HETATM    1  C   UNL     1      42.693 -16.874   5.082  1.00  0.00     0.068 A 
HETATM    2  C   UNL     1      44.039 -17.440   5.429  1.00  0.00     0.161 A 
HETATM    3  N   UNL     1      44.281 -17.402   6.858  1.00  0.00    -0.330 N 
HETATM    4  C   UNL     1      43.372 -17.052   7.798  1.00  0.00     0.321 A 
HETATM    5  O   UNL     1      43.629 -17.112   8.996  1.00  0.00    -0.247 OA
HETATM    6  N   UNL     1      42.163 -16.623   7.347  1.00  0.00    -0.311 N 
HETATM    7  C   UNL     1      41.798 -16.508   6.020  1.00  0.00     0.041 A 
HETATM    8  H   UNL     1      45.165 -17.738   7.216  1.00  0.00     0.165 HD
HETATM    9  H   UNL     1      41.513 -16.357   8.078  1.00  0.00     0.170 HD
ENDROOT
BRANCH   7  10
HETATM   10  C   UNL     1      40.410 -15.964   5.757  1.00  0.00     0.150 C 
BRANCH  10  11
HETATM   11  N   UNL     1      40.332 -14.638   6.360  1.00  0.00    -0.287 NA
HETATM   12  H   UNL     1      39.826 -14.649   7.242  1.00  0.00     0.128 HD
BRANCH  11  13
HETATM   13  C   UNL     1      39.938 -13.566   5.547  1.00  0.00     0.010 A 
HETATM   14  C   UNL     1      39.749 -13.787   4.177  1.00  0.00     0.047 A 
HETATM   15  C   UNL     1      39.306 -12.764   3.327  1.00  0.00     0.041 A 
HETATM   16 CL   UNL     1      39.127 -13.132   1.647  1.00  0.00    -0.084 Cl
HETATM   17  C   UNL     1      39.012 -11.492   3.831  1.00  0.00    -0.040 A 
HETATM   18  C   UNL     1      38.523 -10.373   2.957  1.00  0.00     0.050 C 
HETATM   19  C   UNL     1      39.139 -11.284   5.209  1.00  0.00     0.010 A 
HETATM   20  C   UNL     1      39.584 -12.310   6.052  1.00  0.00     0.024 A 
ENDBRANCH  11  13
ENDBRANCH  10  11
ENDBRANCH   7  10
BRANCH   1  21
HETATM   21  C   UNL     1      42.387 -16.737   3.641  1.00  0.00     0.293 C 
HETATM   22  O   UNL     1      41.453 -17.283   3.078  1.00  0.00    -0.259 OA
BRANCH  21  23
HETATM   23  O   UNL     1      43.312 -15.932   3.061  1.00  0.00    -0.318 OA
BRANCH  23  24
HETATM   24  C   UNL     1      42.850 -14.624   2.695  1.00  0.00     0.174 C 
HETATM   25  C   UNL     1      43.342 -13.584   3.685  1.00  0.00     0.034 C 
ENDBRANCH  23  24
ENDBRANCH  21  23
ENDBRANCH   1  21
BRANCH   2  26
HETATM   26  C   UNL     1      44.221 -18.864   4.916  1.00  0.00    -0.031 A 
HETATM   27  C   UNL     1      44.316 -19.934   5.820  1.00  0.00     0.011 A 
HETATM   28  C   UNL     1      44.529 -21.237   5.362  1.00  0.00     0.024 A 
HETATM   29  C   UNL     1      44.648 -21.481   3.995  1.00  0.00     0.034 A 
HETATM   30 CL   UNL     1      44.918 -23.084   3.434  1.00  0.00    -0.084 Cl
HETATM   31  C   UNL     1      44.552 -20.434   3.082  1.00  0.00     0.024 A 
HETATM   32  C   UNL     1      44.340 -19.131   3.539  1.00  0.00     0.011 A 
ENDBRANCH   2  26
TORSDOF 7
ENDMDL
