MODEL 1
REMARK VINA RESULT:      -7.4      0.000      0.000
REMARK  4 active torsions:
REMARK  status: ('A' for Active; 'I' for Inactive)
REMARK    1  A    between atoms: C_4  and  N_5 
REMARK       I    between atoms: N_5  and  C_6 
REMARK    2  A    between atoms: C_6  and  C_7 
REMARK    3  A    between atoms: C_7  and  O_8 
REMARK    4  A    between atoms: O_8  and  C_9 
ROOT
HETATM    1  N   UNL     1      43.983 -18.014   5.827  1.00  0.00    -0.309 N 
HETATM    2  C   UNL     1      43.040 -17.155   6.309  1.00  0.00     0.252 C 
HETATM    3  O   UNL     1      43.293 -16.629   7.402  1.00  0.00    -0.270 OA
HETATM    4  H   UNL     1      44.747 -18.138   6.477  1.00  0.00     0.170 HD
ENDROOT
BRANCH   2   5
HETATM    5  C   UNL     1      41.717 -16.879   5.560  1.00  0.00     0.217 C 
HETATM    6  C   UNL     1      40.578 -16.812   6.580  1.00  0.00     0.050 C 
BRANCH   5   7
HETATM    7  O   UNL     1      41.698 -15.607   4.898  1.00  0.00    -0.335 OA
BRANCH   7   8
HETATM    8  C   UNL     1      41.487 -15.560   3.546  1.00  0.00     0.091 A 
HETATM    9  C   UNL     1      42.231 -14.607   2.825  1.00  0.00     0.069 A 
HETATM   10 CL   UNL     1      43.361 -13.562   3.616  1.00  0.00    -0.081 Cl
HETATM   11  C   UNL     1      42.084 -14.478   1.442  1.00  0.00     0.050 A 
HETATM   12  C   UNL     1      41.182 -15.296   0.772  1.00  0.00     0.035 A 
HETATM   13 CL   UNL     1      40.989 -15.143  -0.931  1.00  0.00    -0.084 Cl
HETATM   14  C   UNL     1      40.427 -16.235   1.471  1.00  0.00     0.026 A 
HETATM   15  C   UNL     1      40.578 -16.367   2.856  1.00  0.00     0.040 A 
ENDBRANCH   7   8
ENDBRANCH   5   7
ENDBRANCH   2   5
BRANCH   1  16
HETATM   16  C   UNL     1      44.056 -18.690   4.611  1.00  0.00     0.130 A 
HETATM   17  C   UNL     1      43.896 -17.934   3.452  1.00  0.00     0.057 A 
HETATM   18  C   UNL     1      43.971 -18.562   2.207  1.00  0.00    -0.057 A 
HETATM   19  C   UNL     1      43.833 -17.784   0.933  1.00  0.00     0.048 C 
HETATM   20  C   UNL     1      44.195 -19.937   2.171  1.00  0.00     0.033 A 
HETATM   21  C   UNL     1      44.332 -20.627   3.369  1.00  0.00     0.033 A 
HETATM   22  N   UNL     1      44.265 -20.017   4.577  1.00  0.00    -0.236 NA
HETATM   23  C   UNL     1      44.575 -22.107   3.361  1.00  0.00     0.070 C 
ENDBRANCH   1  16
TORSDOF 4
ENDMDL
MODEL 2
REMARK VINA RESULT:      -7.3      3.135      4.939
REMARK  4 active torsions:
REMARK  status: ('A' for Active; 'I' for Inactive)
REMARK    1  A    between atoms: C_4  and  N_5 
REMARK       I    between atoms: N_5  and  C_6 
REMARK    2  A    between atoms: C_6  and  C_7 
REMARK    3  A    between atoms: C_7  and  O_8 
REMARK    4  A    between atoms: O_8  and  C_9 
ROOT
HETATM    1  N   UNL     1      39.731 -16.390   2.380  1.00  0.00    -0.309 N 
HETATM    2  C   UNL     1      39.325 -15.201   1.849  1.00  0.00     0.252 C 
HETATM    3  O   UNL     1      38.107 -15.076   1.665  1.00  0.00    -0.270 OA
HETATM    4  H   UNL     1      38.959 -17.032   2.500  1.00  0.00     0.170 HD
ENDROOT
BRANCH   2   5
HETATM    5  C   UNL     1      40.325 -14.088   1.462  1.00  0.00     0.217 C 
HETATM    6  C   UNL     1      39.703 -13.228   0.361  1.00  0.00     0.050 C 
BRANCH   5   7
HETATM    7  O   UNL     1      40.599 -13.177   2.536  1.00  0.00    -0.335 OA
BRANCH   7   8
HETATM    8  C   UNL     1      41.599 -13.469   3.424  1.00  0.00     0.091 A 
HETATM    9  C   UNL     1      41.231 -13.567   4.778  1.00  0.00     0.069 A 
HETATM   10 CL   UNL     1      39.591 -13.341   5.283  1.00  0.00    -0.081 Cl
HETATM   11  C   UNL     1      42.180 -13.858   5.761  1.00  0.00     0.050 A 
HETATM   12  C   UNL     1      43.508 -14.040   5.395  1.00  0.00     0.035 A 
HETATM   13 CL   UNL     1      44.687 -14.393   6.597  1.00  0.00    -0.084 Cl
HETATM   14  C   UNL     1      43.893 -13.933   4.060  1.00  0.00     0.026 A 
HETATM   15  C   UNL     1      42.941 -13.647   3.075  1.00  0.00     0.040 A 
ENDBRANCH   7   8
ENDBRANCH   5   7
ENDBRANCH   2   5
BRANCH   1  16
HETATM   16  C   UNL     1      40.992 -16.817   2.791  1.00  0.00     0.130 A 
HETATM   17  C   UNL     1      41.157 -17.103   4.144  1.00  0.00     0.057 A 
HETATM   18  C   UNL     1      42.398 -17.544   4.607  1.00  0.00    -0.057 A 
HETATM   19  C   UNL     1      42.614 -17.890   6.049  1.00  0.00     0.048 C 
HETATM   20  C   UNL     1      43.439 -17.672   3.689  1.00  0.00     0.033 A 
HETATM   21  C   UNL     1      43.203 -17.356   2.357  1.00  0.00     0.033 A 
HETATM   22  N   UNL     1      41.997 -16.933   1.908  1.00  0.00    -0.236 NA
HETATM   23  C   UNL     1      44.304 -17.486   1.347  1.00  0.00     0.070 C 
ENDBRANCH   1  16
TORSDOF 4
ENDMDL
MODEL 3
REMARK VINA RESULT:      -7.3      0.589      1.826
REMARK  4 active torsions:
REMARK  status: ('A' for Active; 'I' for Inactive)
REMARK    1  A    between atoms: C_4  and  N_5 
REMARK       I    between atoms: N_5  and  C_6 
REMARK    2  A    between atoms: C_6  and  C_7 
REMARK    3  A    between atoms: C_7  and  O_8 
REMARK    4  A    between atoms: O_8  and  C_9 
ROOT
HETATM    1  N   UNL     1      43.982 -18.085   5.790  1.00  0.00    -0.309 N 
HETATM    2  C   UNL     1      43.039 -17.258   6.326  1.00  0.00     0.252 C 
HETATM    3  O   UNL     1      43.286 -16.813   7.455  1.00  0.00    -0.270 OA
HETATM    4  H   UNL     1      44.741 -18.259   6.435  1.00  0.00     0.170 HD
ENDROOT
BRANCH   2   5
HETATM    5  C   UNL     1      41.723 -16.923   5.590  1.00  0.00     0.217 C 
HETATM    6  C   UNL     1      40.601 -16.792   6.621  1.00  0.00     0.050 C 
BRANCH   5   7
HETATM    7  O   UNL     1      41.758 -15.657   4.917  1.00  0.00    -0.335 OA
BRANCH   7   8
HETATM    8  C   UNL     1      41.524 -15.608   3.569  1.00  0.00     0.091 A 
HETATM    9  C   UNL     1      42.190 -14.598   2.851  1.00  0.00     0.069 A 
HETATM   10 CL   UNL     1      43.257 -13.487   3.638  1.00  0.00    -0.081 Cl
HETATM   11  C   UNL     1      42.013 -14.463   1.471  1.00  0.00     0.050 A 
HETATM   12  C   UNL     1      41.158 -15.333   0.804  1.00  0.00     0.035 A 
HETATM   13 CL   UNL     1      40.929 -15.173  -0.894  1.00  0.00    -0.084 Cl
HETATM   14  C   UNL     1      40.481 -16.330   1.502  1.00  0.00     0.026 A 
HETATM   15  C   UNL     1      40.662 -16.468   2.883  1.00  0.00     0.040 A 
ENDBRANCH   7   8
ENDBRANCH   5   7
ENDBRANCH   2   5
BRANCH   1  16
HETATM   16  C   UNL     1      44.062 -18.672   4.529  1.00  0.00     0.130 A 
HETATM   17  C   UNL     1      44.266 -20.049   4.480  1.00  0.00     0.057 A 
HETATM   18  C   UNL     1      44.344 -20.689   3.241  1.00  0.00    -0.057 A 
HETATM   19  C   UNL     1      44.534 -22.172   3.141  1.00  0.00     0.048 C 
HETATM   20  C   UNL     1      44.223 -19.915   2.088  1.00  0.00     0.033 A 
HETATM   21  C   UNL     1      44.034 -18.545   2.215  1.00  0.00     0.033 A 
HETATM   22  N   UNL     1      43.954 -17.925   3.418  1.00  0.00    -0.236 NA
HETATM   23  C   UNL     1      43.901 -17.687   0.992  1.00  0.00     0.070 C 
ENDBRANCH   1  16
TORSDOF 4
ENDMDL
MODEL 4
REMARK VINA RESULT:      -7.2      3.447      6.195
REMARK  4 active torsions:
REMARK  status: ('A' for Active; 'I' for Inactive)
REMARK    1  A    between atoms: C_4  and  N_5 
REMARK       I    between atoms: N_5  and  C_6 
REMARK    2  A    between atoms: C_6  and  C_7 
REMARK    3  A    between atoms: C_7  and  O_8 
REMARK    4  A    between atoms: O_8  and  C_9 
ROOT
HETATM    1  N   UNL     1      40.709 -14.414   1.937  1.00  0.00    -0.309 N 
HETATM    2  C   UNL     1      41.399 -14.974   2.971  1.00  0.00     0.252 C 
HETATM    3  O   UNL     1      40.738 -15.243   3.983  1.00  0.00    -0.270 OA
HETATM    4  H   UNL     1      39.741 -14.249   2.176  1.00  0.00     0.170 HD
ENDROOT
BRANCH   2   5
HETATM    5  C   UNL     1      42.923 -15.225   2.904  1.00  0.00     0.217 C 
HETATM    6  C   UNL     1      43.651 -13.972   3.392  1.00  0.00     0.050 C 
BRANCH   5   7
HETATM    7  O   UNL     1      43.361 -16.274   3.779  1.00  0.00    -0.335 OA
BRANCH   7   8
HETATM    8  C   UNL     1      43.523 -17.538   3.280  1.00  0.00     0.091 A 
HETATM    9  C   UNL     1      44.085 -18.491   4.149  1.00  0.00     0.069 A 
HETATM   10 CL   UNL     1      44.533 -18.079   5.768  1.00  0.00    -0.081 Cl
HETATM   11  C   UNL     1      44.294 -19.808   3.731  1.00  0.00     0.050 A 
HETATM   12  C   UNL     1      43.952 -20.176   2.435  1.00  0.00     0.035 A 
HETATM   13 CL   UNL     1      44.210 -21.794   1.908  1.00  0.00    -0.084 Cl
HETATM   14  C   UNL     1      43.407 -19.241   1.557  1.00  0.00     0.026 A 
HETATM   15  C   UNL     1      43.193 -17.924   1.977  1.00  0.00     0.040 A 
ENDBRANCH   7   8
ENDBRANCH   5   7
ENDBRANCH   2   5
BRANCH   1  16
HETATM   16  C   UNL     1      41.119 -14.081   0.647  1.00  0.00     0.130 A 
HETATM   17  C   UNL     1      40.846 -15.000  -0.364  1.00  0.00     0.057 A 
HETATM   18  C   UNL     1      41.227 -14.711  -1.676  1.00  0.00    -0.057 A 
HETATM   19  C   UNL     1      40.929 -15.656  -2.800  1.00  0.00     0.048 C 
HETATM   20  C   UNL     1      41.881 -13.506  -1.925  1.00  0.00     0.033 A 
HETATM   21  C   UNL     1      42.131 -12.645  -0.863  1.00  0.00     0.033 A 
HETATM   22  N   UNL     1      41.756 -12.924   0.409  1.00  0.00    -0.236 NA
HETATM   23  C   UNL     1      42.833 -11.341  -1.101  1.00  0.00     0.070 C 
ENDBRANCH   1  16
TORSDOF 4
ENDMDL
MODEL 5
REMARK VINA RESULT:      -7.1      2.997      5.463
REMARK  4 active torsions:
REMARK  status: ('A' for Active; 'I' for Inactive)
REMARK    1  A    between atoms: C_4  and  N_5 
REMARK       I    between atoms: N_5  and  C_6 
REMARK    2  A    between atoms: C_6  and  C_7 
REMARK    3  A    between atoms: C_7  and  O_8 
REMARK    4  A    between atoms: O_8  and  C_9 
ROOT
HETATM    1  N   UNL     1      40.651 -16.341   5.153  1.00  0.00    -0.309 N 
HETATM    2  C   UNL     1      41.780 -16.616   5.866  1.00  0.00     0.252 C 
HETATM    3  O   UNL     1      41.612 -17.203   6.944  1.00  0.00    -0.270 OA
HETATM    4  H   UNL     1      39.815 -16.618   5.649  1.00  0.00     0.170 HD
ENDROOT
BRANCH   2   5
HETATM    5  C   UNL     1      43.185 -16.191   5.383  1.00  0.00     0.217 C 
HETATM    6  C   UNL     1      43.726 -15.115   6.325  1.00  0.00     0.050 C 
BRANCH   5   7
HETATM    7  O   UNL     1      44.147 -17.253   5.440  1.00  0.00    -0.335 OA
BRANCH   7   8
HETATM    8  C   UNL     1      44.124 -18.230   4.481  1.00  0.00     0.091 A 
HETATM    9  C   UNL     1      44.196 -19.560   4.935  1.00  0.00     0.069 A 
HETATM   10 CL   UNL     1      44.296 -19.931   6.622  1.00  0.00    -0.081 Cl
HETATM   11  C   UNL     1      44.184 -20.628   4.033  1.00  0.00     0.050 A 
HETATM   12  C   UNL     1      44.110 -20.370   2.670  1.00  0.00     0.035 A 
HETATM   13 CL   UNL     1      44.099 -21.676   1.551  1.00  0.00    -0.084 Cl
HETATM   14  C   UNL     1      44.052 -19.058   2.202  1.00  0.00     0.026 A 
HETATM   15  C   UNL     1      44.060 -17.990   3.106  1.00  0.00     0.040 A 
ENDBRANCH   7   8
ENDBRANCH   5   7
ENDBRANCH   2   5
BRANCH   1  16
HETATM   16  C   UNL     1      40.493 -15.786   3.884  1.00  0.00     0.130 A 
HETATM   17  C   UNL     1      40.978 -16.520   2.804  1.00  0.00     0.057 A 
HETATM   18  C   UNL     1      40.836 -16.013   1.511  1.00  0.00    -0.057 A 
HETATM   19  C   UNL     1      41.317 -16.781   0.316  1.00  0.00     0.048 C 
HETATM   20  C   UNL     1      40.216 -14.775   1.349  1.00  0.00     0.033 A 
HETATM   21  C   UNL     1      39.770 -14.095   2.475  1.00  0.00     0.033 A 
HETATM   22  N   UNL     1      39.903 -14.589   3.729  1.00  0.00    -0.236 NA
HETATM   23  C   UNL     1      39.099 -12.761   2.331  1.00  0.00     0.070 C 
ENDBRANCH   1  16
TORSDOF 4
ENDMDL
MODEL 6
REMARK VINA RESULT:      -7.1      3.127      5.637
REMARK  4 active torsions:
REMARK  status: ('A' for Active; 'I' for Inactive)
REMARK    1  A    between atoms: C_4  and  N_5 
REMARK       I    between atoms: N_5  and  C_6 
REMARK    2  A    between atoms: C_6  and  C_7 
REMARK    3  A    between atoms: C_7  and  O_8 
REMARK    4  A    between atoms: O_8  and  C_9 
ROOT
HETATM    1  N   UNL     1      40.279 -15.859   4.042  1.00  0.00    -0.309 N 
HETATM    2  C   UNL     1      41.371 -16.213   4.778  1.00  0.00     0.252 C 
HETATM    3  O   UNL     1      41.143 -16.842   5.820  1.00  0.00    -0.270 OA
HETATM    4  H   UNL     1      39.416 -16.125   4.496  1.00  0.00     0.170 HD
ENDROOT
BRANCH   2   5
HETATM    5  C   UNL     1      42.808 -15.822   4.362  1.00  0.00     0.217 C 
HETATM    6  C   UNL     1      43.238 -14.597   5.169  1.00  0.00     0.050 C 
BRANCH   5   7
HETATM    7  O   UNL     1      43.779 -16.831   4.671  1.00  0.00    -0.335 OA
BRANCH   7   8
HETATM    8  C   UNL     1      43.845 -17.957   3.895  1.00  0.00     0.091 A 
HETATM    9  C   UNL     1      44.291 -19.132   4.527  1.00  0.00     0.069 A 
HETATM   10 CL   UNL     1      44.718 -19.146   6.203  1.00  0.00    -0.081 Cl
HETATM   11  C   UNL     1      44.397 -20.332   3.819  1.00  0.00     0.050 A 
HETATM   12  C   UNL     1      44.068 -20.360   2.469  1.00  0.00     0.035 A 
HETATM   13 CL   UNL     1      44.200 -21.830   1.585  1.00  0.00    -0.084 Cl
HETATM   14  C   UNL     1      43.638 -19.201   1.824  1.00  0.00     0.026 A 
HETATM   15  C   UNL     1      43.528 -18.001   2.534  1.00  0.00     0.040 A 
ENDBRANCH   7   8
ENDBRANCH   5   7
ENDBRANCH   2   5
BRANCH   1  16
HETATM   16  C   UNL     1      40.187 -15.239   2.797  1.00  0.00     0.130 A 
HETATM   17  C   UNL     1      39.504 -14.026   2.740  1.00  0.00     0.057 A 
HETATM   18  C   UNL     1      39.391 -13.359   1.519  1.00  0.00    -0.057 A 
HETATM   19  C   UNL     1      38.691 -12.037   1.415  1.00  0.00     0.048 C 
HETATM   20  C   UNL     1      39.962 -13.943   0.390  1.00  0.00     0.033 A 
HETATM   21  C   UNL     1      40.616 -15.162   0.522  1.00  0.00     0.033 A 
HETATM   22  N   UNL     1      40.730 -15.806   1.708  1.00  0.00    -0.236 NA
HETATM   23  C   UNL     1      41.240 -15.813  -0.676  1.00  0.00     0.070 C 
ENDBRANCH   1  16
TORSDOF 4
ENDMDL
MODEL 7
REMARK VINA RESULT:      -7.0      3.306      6.108
REMARK  4 active torsions:
REMARK  status: ('A' for Active; 'I' for Inactive)
REMARK    1  A    between atoms: C_4  and  N_5 
REMARK       I    between atoms: N_5  and  C_6 
REMARK    2  A    between atoms: C_6  and  C_7 
REMARK    3  A    between atoms: C_7  and  O_8 
REMARK    4  A    between atoms: O_8  and  C_9 
ROOT
HETATM    1  N   UNL     1      42.491 -13.618   2.444  1.00  0.00    -0.309 N 
HETATM    2  C   UNL     1      41.671 -14.416   1.702  1.00  0.00     0.252 C 
HETATM    3  O   UNL     1      41.848 -14.388   0.476  1.00  0.00    -0.270 OA
HETATM    4  H   UNL     1      43.105 -13.065   1.862  1.00  0.00     0.170 HD
ENDROOT
BRANCH   2   5
HETATM    5  C   UNL     1      40.560 -15.279   2.343  1.00  0.00     0.217 C 
HETATM    6  C   UNL     1      39.260 -15.065   1.567  1.00  0.00     0.050 C 
BRANCH   5   7
HETATM    7  O   UNL     1      40.817 -16.688   2.254  1.00  0.00    -0.335 OA
BRANCH   7   8
HETATM    8  C   UNL     1      41.677 -17.268   3.147  1.00  0.00     0.091 A 
HETATM    9  C   UNL     1      42.908 -17.718   2.636  1.00  0.00     0.069 A 
HETATM   10 CL   UNL     1      43.310 -17.531   0.963  1.00  0.00    -0.081 Cl
HETATM   11  C   UNL     1      43.851 -18.329   3.466  1.00  0.00     0.050 A 
HETATM   12  C   UNL     1      43.563 -18.503   4.815  1.00  0.00     0.035 A 
HETATM   13 CL   UNL     1      44.714 -19.257   5.846  1.00  0.00    -0.084 Cl
HETATM   14  C   UNL     1      42.343 -18.075   5.336  1.00  0.00     0.026 A 
HETATM   15  C   UNL     1      41.401 -17.460   4.504  1.00  0.00     0.040 A 
ENDBRANCH   7   8
ENDBRANCH   5   7
ENDBRANCH   2   5
BRANCH   1  16
HETATM   16  C   UNL     1      42.619 -13.484   3.825  1.00  0.00     0.130 A 
HETATM   17  C   UNL     1      43.447 -14.394   4.477  1.00  0.00     0.057 A 
HETATM   18  C   UNL     1      43.619 -14.297   5.860  1.00  0.00    -0.057 A 
HETATM   19  C   UNL     1      44.522 -15.236   6.601  1.00  0.00     0.048 C 
HETATM   20  C   UNL     1      42.939 -13.290   6.543  1.00  0.00     0.033 A 
HETATM   21  C   UNL     1      42.120 -12.427   5.825  1.00  0.00     0.033 A 
HETATM   22  N   UNL     1      41.958 -12.518   4.483  1.00  0.00    -0.236 NA
HETATM   23  C   UNL     1      41.377 -11.333   6.533  1.00  0.00     0.070 C 
ENDBRANCH   1  16
TORSDOF 4
ENDMDL
MODEL 8
REMARK VINA RESULT:      -6.7      1.719      2.220
REMARK  4 active torsions:
REMARK  status: ('A' for Active; 'I' for Inactive)
REMARK    1  A    between atoms: C_4  and  N_5 
REMARK       I    between atoms: N_5  and  C_6 
REMARK    2  A    between atoms: C_6  and  C_7 
REMARK    3  A    between atoms: C_7  and  O_8 
REMARK    4  A    between atoms: O_8  and  C_9 
ROOT
HETATM    1  N   UNL     1      43.881 -16.654   5.884  1.00  0.00    -0.309 N 
HETATM    2  C   UNL     1      42.877 -15.788   5.564  1.00  0.00     0.252 C 
HETATM    3  O   UNL     1      43.110 -14.589   5.767  1.00  0.00    -0.270 OA
HETATM    4  H   UNL     1      44.670 -16.180   6.300  1.00  0.00     0.170 HD
ENDROOT
BRANCH   2   5
HETATM    5  C   UNL     1      41.515 -16.271   5.016  1.00  0.00     0.217 C 
HETATM    6  C   UNL     1      40.547 -16.445   6.187  1.00  0.00     0.050 C 
BRANCH   5   7
HETATM    7  O   UNL     1      40.884 -15.316   4.151  1.00  0.00    -0.335 OA
BRANCH   7   8
HETATM    8  C   UNL     1      40.971 -15.482   2.795  1.00  0.00     0.091 A 
HETATM    9  C   UNL     1      40.414 -14.465   1.999  1.00  0.00     0.069 A 
HETATM   10 CL   UNL     1      39.670 -13.073   2.708  1.00  0.00    -0.081 Cl
HETATM   11  C   UNL     1      40.448 -14.545   0.604  1.00  0.00     0.050 A 
HETATM   12  C   UNL     1      41.031 -15.651  -0.002  1.00  0.00     0.035 A 
HETATM   13 CL   UNL     1      41.075 -15.763  -1.719  1.00  0.00    -0.084 Cl
HETATM   14  C   UNL     1      41.576 -16.674   0.771  1.00  0.00     0.026 A 
HETATM   15  C   UNL     1      41.545 -16.592   2.167  1.00  0.00     0.040 A 
ENDBRANCH   7   8
ENDBRANCH   5   7
ENDBRANCH   2   5
BRANCH   1  16
HETATM   16  C   UNL     1      43.983 -18.032   5.699  1.00  0.00     0.130 A 
HETATM   17  C   UNL     1      44.331 -18.478   4.426  1.00  0.00     0.057 A 
HETATM   18  C   UNL     1      44.457 -19.849   4.190  1.00  0.00    -0.057 A 
HETATM   19  C   UNL     1      44.857 -20.374   2.844  1.00  0.00     0.048 C 
HETATM   20  C   UNL     1      44.216 -20.728   5.245  1.00  0.00     0.033 A 
HETATM   21  C   UNL     1      43.860 -20.208   6.483  1.00  0.00     0.033 A 
HETATM   22  N   UNL     1      43.744 -18.878   6.713  1.00  0.00    -0.236 NA
HETATM   23  C   UNL     1      43.597 -21.130   7.637  1.00  0.00     0.070 C 
ENDBRANCH   1  16
TORSDOF 4
ENDMDL
MODEL 9
REMARK VINA RESULT:      -6.6      3.306      5.296
REMARK  4 active torsions:
REMARK  status: ('A' for Active; 'I' for Inactive)
REMARK    1  A    between atoms: C_4  and  N_5 
REMARK       I    between atoms: N_5  and  C_6 
REMARK    2  A    between atoms: C_6  and  C_7 
REMARK    3  A    between atoms: C_7  and  O_8 
REMARK    4  A    between atoms: O_8  and  C_9 
ROOT
HETATM    1  N   UNL     1      40.120 -15.819   3.413  1.00  0.00    -0.309 N 
HETATM    2  C   UNL     1      39.914 -15.569   2.089  1.00  0.00     0.252 C 
HETATM    3  O   UNL     1      38.745 -15.329   1.757  1.00  0.00    -0.270 OA
HETATM    4  H   UNL     1      39.254 -15.824   3.935  1.00  0.00     0.170 HD
ENDROOT
BRANCH   2   5
HETATM    5  C   UNL     1      41.059 -15.616   1.053  1.00  0.00     0.217 C 
HETATM    6  C   UNL     1      41.334 -17.076   0.688  1.00  0.00     0.050 C 
BRANCH   5   7
HETATM    7  O   UNL     1      40.725 -14.980  -0.188  1.00  0.00    -0.335 OA
BRANCH   7   8
HETATM    8  C   UNL     1      41.352 -13.812  -0.532  1.00  0.00     0.091 A 
HETATM    9  C   UNL     1      41.732 -13.674  -1.879  1.00  0.00     0.069 A 
HETATM   10 CL   UNL     1      41.409 -14.918  -3.038  1.00  0.00    -0.081 Cl
HETATM   11  C   UNL     1      42.382 -12.521  -2.328  1.00  0.00     0.050 A 
HETATM   12  C   UNL     1      42.664 -11.502  -1.425  1.00  0.00     0.035 A 
HETATM   13 CL   UNL     1      43.467 -10.080  -1.965  1.00  0.00    -0.084 Cl
HETATM   14  C   UNL     1      42.306 -11.628  -0.085  1.00  0.00     0.026 A 
HETATM   15  C   UNL     1      41.652 -12.781   0.363  1.00  0.00     0.040 A 
ENDBRANCH   7   8
ENDBRANCH   5   7
ENDBRANCH   2   5
BRANCH   1  16
HETATM   16  C   UNL     1      41.301 -16.028   4.124  1.00  0.00     0.130 A 
HETATM   17  C   UNL     1      41.687 -17.349   4.339  1.00  0.00     0.057 A 
HETATM   18  C   UNL     1      42.867 -17.614   5.037  1.00  0.00    -0.057 A 
HETATM   19  C   UNL     1      43.337 -19.018   5.268  1.00  0.00     0.048 C 
HETATM   20  C   UNL     1      43.616 -16.535   5.505  1.00  0.00     0.033 A 
HETATM   21  C   UNL     1      43.160 -15.246   5.262  1.00  0.00     0.033 A 
HETATM   22  N   UNL     1      42.018 -14.989   4.581  1.00  0.00    -0.236 NA
HETATM   23  C   UNL     1      43.946 -14.066   5.753  1.00  0.00     0.070 C 
ENDBRANCH   1  16
TORSDOF 4
ENDMDL
MODEL 10
REMARK VINA RESULT:      -6.6      2.574      4.504
REMARK  4 active torsions:
REMARK  status: ('A' for Active; 'I' for Inactive)
REMARK    1  A    between atoms: C_4  and  N_5 
REMARK       I    between atoms: N_5  and  C_6 
REMARK    2  A    between atoms: C_6  and  C_7 
REMARK    3  A    between atoms: C_7  and  O_8 
REMARK    4  A    between atoms: O_8  and  C_9 
ROOT
HETATM    1  N   UNL     1      40.788 -17.048   3.173  1.00  0.00    -0.309 N 
HETATM    2  C   UNL     1      40.575 -16.188   2.137  1.00  0.00     0.252 C 
HETATM    3  O   UNL     1      39.395 -15.885   1.916  1.00  0.00    -0.270 OA
HETATM    4  H   UNL     1      39.921 -17.361   3.587  1.00  0.00     0.170 HD
ENDROOT
BRANCH   2   5
HETATM    5  C   UNL     1      41.730 -15.650   1.262  1.00  0.00     0.217 C 
HETATM    6  C   UNL     1      41.380 -15.876  -0.210  1.00  0.00     0.050 C 
BRANCH   5   7
HETATM    7  O   UNL     1      41.918 -14.233   1.385  1.00  0.00    -0.335 OA
BRANCH   7   8
HETATM    8  C   UNL     1      41.958 -13.669   2.632  1.00  0.00     0.091 A 
HETATM    9  C   UNL     1      40.900 -12.806   2.967  1.00  0.00     0.069 A 
HETATM   10 CL   UNL     1      39.610 -12.490   1.857  1.00  0.00    -0.081 Cl
HETATM   11  C   UNL     1      40.852 -12.177   4.214  1.00  0.00     0.050 A 
HETATM   12  C   UNL     1      41.873 -12.402   5.131  1.00  0.00     0.035 A 
HETATM   13 CL   UNL     1      41.828 -11.630   6.667  1.00  0.00    -0.084 Cl
HETATM   14  C   UNL     1      42.937 -13.243   4.810  1.00  0.00     0.026 A 
HETATM   15  C   UNL     1      42.981 -13.875   3.563  1.00  0.00     0.040 A 
ENDBRANCH   7   8
ENDBRANCH   5   7
ENDBRANCH   2   5
BRANCH   1  16
HETATM   16  C   UNL     1      41.975 -17.511   3.738  1.00  0.00     0.130 A 
HETATM   17  C   UNL     1      42.623 -18.557   3.085  1.00  0.00     0.057 A 
HETATM   18  C   UNL     1      43.822 -19.052   3.604  1.00  0.00    -0.057 A 
HETATM   19  C   UNL     1      44.569 -20.157   2.920  1.00  0.00     0.048 C 
HETATM   20  C   UNL     1      44.323 -18.482   4.774  1.00  0.00     0.033 A 
HETATM   21  C   UNL     1      43.613 -17.451   5.376  1.00  0.00     0.033 A 
HETATM   22  N   UNL     1      42.453 -16.967   4.869  1.00  0.00    -0.236 NA
HETATM   23  C   UNL     1      44.128 -16.818   6.634  1.00  0.00     0.070 C 
ENDBRANCH   1  16
TORSDOF 4
ENDMDL
