MODEL 1
REMARK VINA RESULT:      -9.6      0.000      0.000
REMARK  5 active torsions:
REMARK  status: ('A' for Active; 'I' for Inactive)
REMARK    1  A    between atoms: C_2  and  N_3 
REMARK    2  A    between atoms: C_5  and  C_6 
REMARK    3  A    between atoms: C_6  and  C_7 
REMARK       I    between atoms: C_7  and  N_8 
REMARK    4  A    between atoms: N_8  and  C_9 
REMARK    5  A    between atoms: C_16  and  O_17 
ROOT
HETATM    1  C   UNL     1      43.544 -17.142   1.799  1.00  0.00     0.224 C 
HETATM    2  N   UNL     1      42.401 -16.530   2.231  1.00  0.00    -0.351 N 
HETATM    3  O   UNL     1      44.295 -16.609   0.978  1.00  0.00    -0.273 OA
HETATM    4  H   UNL     1      41.852 -16.982   2.959  1.00  0.00     0.163 HD
ENDROOT
BRANCH   2   5
HETATM    5  C   UNL     1      42.158 -15.140   1.914  1.00  0.00     0.135 C 
HETATM    6  C   UNL     1      41.343 -15.053   0.672  1.00  0.00     0.040 A 
HETATM    7  C   UNL     1      40.033 -14.627   0.576  1.00  0.00    -0.021 A 
HETATM    8  N   UNL     1      41.807 -15.299  -0.592  1.00  0.00    -0.357 N 
HETATM    9  C   UNL     1      39.724 -14.513  -0.808  1.00  0.00     0.002 A 
HETATM   10  C   UNL     1      39.219 -14.251   1.767  1.00  0.00     0.042 C 
HETATM   11  C   UNL     1      40.852 -14.935  -1.517  1.00  0.00     0.043 A 
HETATM   12  C   UNL     1      38.607 -14.048  -1.531  1.00  0.00     0.051 A 
HETATM   13  C   UNL     1      40.904 -14.926  -2.914  1.00  0.00     0.033 A 
HETATM   14  C   UNL     1      39.788 -14.437  -3.608  1.00  0.00     0.039 A 
HETATM   15  C   UNL     1      38.658 -13.984  -2.929  1.00  0.00     0.069 A 
HETATM   16  C   UNL     1      39.898 -14.715   3.069  1.00  0.00     0.007 C 
HETATM   17  C   UNL     1      41.412 -14.420   3.067  1.00  0.00     0.032 C 
HETATM   18  H   UNL     1      42.737 -15.627  -0.818  1.00  0.00     0.166 HD
BRANCH  15  19
HETATM   19  O   UNL     1      37.532 -13.467  -3.517  1.00  0.00    -0.356 OA
HETATM   20  C   UNL     1      36.774 -14.364  -4.318  1.00  0.00     0.210 C 
ENDBRANCH  15  19
ENDBRANCH   2   5
BRANCH   1  21
HETATM   21  C   UNL     1      43.939 -18.469   2.389  1.00  0.00     0.164 C 
BRANCH  21  22
HETATM   22  C   UNL     1      43.943 -18.746   3.876  1.00  0.00     0.075 A 
HETATM   23  N   UNL     1      43.688 -17.792   4.719  1.00  0.00    -0.172 NA
HETATM   24  N   UNL     1      43.683 -18.063   6.072  1.00  0.00    -0.230 N 
HETATM   25  C   UNL     1      43.856 -19.341   6.609  1.00  0.00     0.275 A 
HETATM   26  C   UNL     1      44.190 -20.415   5.663  1.00  0.00     0.046 A 
HETATM   27  O   UNL     1      43.751 -19.612   7.803  1.00  0.00    -0.266 OA
HETATM   28  C   UNL     1      44.243 -20.136   4.304  1.00  0.00     0.006 A 
HETATM   29  C   UNL     1      44.452 -21.711   6.131  1.00  0.00     0.018 A 
HETATM   30  C   UNL     1      44.564 -21.165   3.403  1.00  0.00     0.014 A 
HETATM   31  C   UNL     1      44.830 -22.455   3.871  1.00  0.00     0.001 A 
HETATM   32  C   UNL     1      44.774 -22.729   5.234  1.00  0.00     0.001 A 
BRANCH  24  33
HETATM   33  C   UNL     1      43.277 -16.970   6.973  1.00  0.00     0.105 C 
HETATM   34  C   UNL     1      41.855 -16.514   6.651  1.00  0.00     0.034 C 
HETATM   35  C   UNL     1      44.252 -15.795   6.946  1.00  0.00     0.034 C 
ENDBRANCH  24  33
ENDBRANCH  21  22
ENDBRANCH   1  21
TORSDOF 5
ENDMDL
MODEL 2
REMARK VINA RESULT:      -9.4      2.977      3.798
REMARK  5 active torsions:
REMARK  status: ('A' for Active; 'I' for Inactive)
REMARK    1  A    between atoms: C_2  and  N_3 
REMARK    2  A    between atoms: C_5  and  C_6 
REMARK    3  A    between atoms: C_6  and  C_7 
REMARK       I    between atoms: C_7  and  N_8 
REMARK    4  A    between atoms: N_8  and  C_9 
REMARK    5  A    between atoms: C_16  and  O_17 
ROOT
HETATM    1  C   UNL     1      41.819 -16.713   0.915  1.00  0.00     0.224 C 
HETATM    2  N   UNL     1      42.114 -15.742  -0.001  1.00  0.00    -0.351 N 
HETATM    3  O   UNL     1      40.714 -16.777   1.459  1.00  0.00    -0.273 OA
HETATM    4  H   UNL     1      43.017 -15.775  -0.471  1.00  0.00     0.163 HD
ENDROOT
BRANCH   2   5
HETATM    5  C   UNL     1      41.065 -14.901  -0.530  1.00  0.00     0.135 C 
HETATM    6  C   UNL     1      41.642 -13.594  -0.948  1.00  0.00     0.040 A 
HETATM    7  C   UNL     1      41.773 -13.128  -2.241  1.00  0.00    -0.021 A 
HETATM    8  N   UNL     1      42.054 -12.608  -0.094  1.00  0.00    -0.357 N 
HETATM    9  C   UNL     1      42.183 -11.768  -2.163  1.00  0.00     0.002 A 
HETATM   10  C   UNL     1      41.395 -13.942  -3.432  1.00  0.00     0.042 C 
HETATM   11  C   UNL     1      42.348 -11.467  -0.809  1.00  0.00     0.043 A 
HETATM   12  C   UNL     1      42.387 -10.747  -3.113  1.00  0.00     0.051 A 
HETATM   13  C   UNL     1      42.723 -10.194  -0.367  1.00  0.00     0.033 A 
HETATM   14  C   UNL     1      42.897  -9.191  -1.331  1.00  0.00     0.039 A 
HETATM   15  C   UNL     1      42.715  -9.454  -2.687  1.00  0.00     0.069 A 
HETATM   16  C   UNL     1      41.183 -15.418  -3.049  1.00  0.00     0.007 C 
HETATM   17  C   UNL     1      40.369 -15.565  -1.747  1.00  0.00     0.032 C 
HETATM   18  H   UNL     1      42.069 -12.679   0.915  1.00  0.00     0.166 HD
BRANCH  15  19
HETATM   19  O   UNL     1      42.838  -8.536  -3.698  1.00  0.00    -0.356 OA
HETATM   20  C   UNL     1      42.524  -8.997  -5.006  1.00  0.00     0.210 C 
ENDBRANCH  15  19
ENDBRANCH   2   5
BRANCH   1  21
HETATM   21  C   UNL     1      42.840 -17.778   1.218  1.00  0.00     0.164 C 
BRANCH  21  22
HETATM   22  C   UNL     1      43.323 -18.087   2.617  1.00  0.00     0.075 A 
HETATM   23  N   UNL     1      43.301 -17.168   3.535  1.00  0.00    -0.172 NA
HETATM   24  N   UNL     1      43.732 -17.469   4.810  1.00  0.00    -0.230 N 
HETATM   25  C   UNL     1      44.124 -18.747   5.216  1.00  0.00     0.275 A 
HETATM   26  C   UNL     1      44.195 -19.779   4.172  1.00  0.00     0.046 A 
HETATM   27  O   UNL     1      44.411 -19.050   6.372  1.00  0.00    -0.266 OA
HETATM   28  C   UNL     1      43.806 -19.468   2.876  1.00  0.00     0.006 A 
HETATM   29  C   UNL     1      44.650 -21.068   4.484  1.00  0.00     0.018 A 
HETATM   30  C   UNL     1      43.876 -20.456   1.881  1.00  0.00     0.014 A 
HETATM   31  C   UNL     1      44.335 -21.739   2.191  1.00  0.00     0.001 A 
HETATM   32  C   UNL     1      44.721 -22.046   3.493  1.00  0.00     0.001 A 
BRANCH  24  33
HETATM   33  C   UNL     1      43.578 -16.422   5.834  1.00  0.00     0.105 C 
HETATM   34  C   UNL     1      42.274 -16.617   6.605  1.00  0.00     0.034 C 
HETATM   35  C   UNL     1      43.668 -15.013   5.251  1.00  0.00     0.034 C 
ENDBRANCH  24  33
ENDBRANCH  21  22
ENDBRANCH   1  21
TORSDOF 5
ENDMDL
MODEL 3
REMARK VINA RESULT:      -9.4      1.869      3.353
REMARK  5 active torsions:
REMARK  status: ('A' for Active; 'I' for Inactive)
REMARK    1  A    between atoms: C_2  and  N_3 
REMARK    2  A    between atoms: C_5  and  C_6 
REMARK    3  A    between atoms: C_6  and  C_7 
REMARK       I    between atoms: C_7  and  N_8 
REMARK    4  A    between atoms: N_8  and  C_9 
REMARK    5  A    between atoms: C_16  and  O_17 
ROOT
HETATM    1  C   UNL     1      42.751 -14.135   3.385  1.00  0.00     0.224 C 
HETATM    2  N   UNL     1      41.743 -14.303   2.476  1.00  0.00    -0.351 N 
HETATM    3  O   UNL     1      43.605 -13.255   3.252  1.00  0.00    -0.273 OA
HETATM    4  H   UNL     1      41.027 -15.000   2.667  1.00  0.00     0.163 HD
ENDROOT
BRANCH   2   5
HETATM    5  C   UNL     1      41.514 -13.305   1.456  1.00  0.00     0.135 C 
HETATM    6  C   UNL     1      40.848 -13.939   0.286  1.00  0.00     0.040 A 
HETATM    7  C   UNL     1      39.550 -13.728  -0.137  1.00  0.00    -0.021 A 
HETATM    8  N   UNL     1      41.460 -14.771  -0.612  1.00  0.00    -0.357 N 
HETATM    9  C   UNL     1      39.402 -14.375  -1.395  1.00  0.00     0.002 A 
HETATM   10  C   UNL     1      38.596 -12.851   0.601  1.00  0.00     0.042 C 
HETATM   11  C   UNL     1      40.612 -15.016  -1.671  1.00  0.00     0.043 A 
HETATM   12  C   UNL     1      38.368 -14.441  -2.351  1.00  0.00     0.051 A 
HETATM   13  C   UNL     1      40.826 -15.732  -2.854  1.00  0.00     0.033 A 
HETATM   14  C   UNL     1      39.790 -15.762  -3.797  1.00  0.00     0.039 A 
HETATM   15  C   UNL     1      38.580 -15.110  -3.562  1.00  0.00     0.069 A 
HETATM   16  C   UNL     1      39.127 -12.515   2.007  1.00  0.00     0.007 C 
HETATM   17  C   UNL     1      40.626 -12.150   1.986  1.00  0.00     0.032 C 
HETATM   18  H   UNL     1      42.415 -15.096  -0.548  1.00  0.00     0.166 HD
BRANCH  15  19
HETATM   19  O   UNL     1      37.521 -15.063  -4.432  1.00  0.00    -0.356 OA
HETATM   20  C   UNL     1      36.634 -13.961  -4.281  1.00  0.00     0.210 C 
ENDBRANCH  15  19
ENDBRANCH   2   5
BRANCH   1  21
HETATM   21  C   UNL     1      42.784 -14.999   4.618  1.00  0.00     0.164 C 
BRANCH  21  22
HETATM   22  C   UNL     1      43.220 -16.447   4.602  1.00  0.00     0.075 A 
HETATM   23  N   UNL     1      43.386 -17.069   3.475  1.00  0.00    -0.172 NA
HETATM   24  N   UNL     1      43.797 -18.385   3.477  1.00  0.00    -0.230 N 
HETATM   25  C   UNL     1      44.136 -19.091   4.634  1.00  0.00     0.275 A 
HETATM   26  C   UNL     1      43.907 -18.408   5.915  1.00  0.00     0.046 A 
HETATM   27  O   UNL     1      44.600 -20.229   4.641  1.00  0.00    -0.266 OA
HETATM   28  C   UNL     1      43.448 -17.098   5.918  1.00  0.00     0.006 A 
HETATM   29  C   UNL     1      44.152 -19.076   7.124  1.00  0.00     0.018 A 
HETATM   30  C   UNL     1      43.229 -16.449   7.144  1.00  0.00     0.014 A 
HETATM   31  C   UNL     1      43.469 -17.116   8.349  1.00  0.00     0.001 A 
HETATM   32  C   UNL     1      43.931 -18.430   8.339  1.00  0.00     0.001 A 
BRANCH  24  33
HETATM   33  C   UNL     1      44.076 -19.003   2.169  1.00  0.00     0.105 C 
HETATM   34  C   UNL     1      43.936 -17.971   1.051  1.00  0.00     0.034 C 
HETATM   35  C   UNL     1      43.204 -20.228   1.900  1.00  0.00     0.034 C 
ENDBRANCH  24  33
ENDBRANCH  21  22
ENDBRANCH   1  21
TORSDOF 5
ENDMDL
MODEL 4
REMARK VINA RESULT:      -9.3      1.771      2.629
REMARK  5 active torsions:
REMARK  status: ('A' for Active; 'I' for Inactive)
REMARK    1  A    between atoms: C_2  and  N_3 
REMARK    2  A    between atoms: C_5  and  C_6 
REMARK    3  A    between atoms: C_6  and  C_7 
REMARK       I    between atoms: C_7  and  N_8 
REMARK    4  A    between atoms: N_8  and  C_9 
REMARK    5  A    between atoms: C_16  and  O_17 
ROOT
HETATM    1  C   UNL     1      41.576 -16.588   0.844  1.00  0.00     0.224 C 
HETATM    2  N   UNL     1      40.630 -15.689   0.436  1.00  0.00    -0.351 N 
HETATM    3  O   UNL     1      42.653 -16.710   0.255  1.00  0.00    -0.273 OA
HETATM    4  H   UNL     1      39.788 -15.581   0.997  1.00  0.00     0.163 HD
ENDROOT
BRANCH   2   5
HETATM    5  C   UNL     1      40.958 -14.692  -0.558  1.00  0.00     0.135 C 
HETATM    6  C   UNL     1      39.733 -14.338  -1.325  1.00  0.00     0.040 A 
HETATM    7  C   UNL     1      39.058 -13.134  -1.287  1.00  0.00    -0.021 A 
HETATM    8  N   UNL     1      39.136 -15.134  -2.265  1.00  0.00    -0.357 N 
HETATM    9  C   UNL     1      38.077 -13.164  -2.317  1.00  0.00     0.002 A 
HETATM   10  C   UNL     1      39.453 -12.018  -0.381  1.00  0.00     0.042 C 
HETATM   11  C   UNL     1      38.149 -14.424  -2.916  1.00  0.00     0.043 A 
HETATM   12  C   UNL     1      37.161 -12.224  -2.829  1.00  0.00     0.051 A 
HETATM   13  C   UNL     1      37.336 -14.788  -3.994  1.00  0.00     0.033 A 
HETATM   14  C   UNL     1      36.450 -13.825  -4.499  1.00  0.00     0.039 A 
HETATM   15  C   UNL     1      36.373 -12.551  -3.940  1.00  0.00     0.069 A 
HETATM   16  C   UNL     1      40.447 -12.502   0.691  1.00  0.00     0.007 C 
HETATM   17  C   UNL     1      41.540 -13.413   0.096  1.00  0.00     0.032 C 
HETATM   18  H   UNL     1      39.424 -16.075  -2.500  1.00  0.00     0.166 HD
BRANCH  15  19
HETATM   19  O   UNL     1      35.559 -11.539  -4.379  1.00  0.00    -0.356 OA
HETATM   20  C   UNL     1      34.169 -11.695  -4.122  1.00  0.00     0.210 C 
ENDBRANCH  15  19
ENDBRANCH   2   5
BRANCH   1  21
HETATM   21  C   UNL     1      41.333 -17.403   2.087  1.00  0.00     0.164 C 
BRANCH  21  22
HETATM   22  C   UNL     1      42.412 -17.705   3.102  1.00  0.00     0.075 A 
HETATM   23  N   UNL     1      42.652 -16.872   4.069  1.00  0.00    -0.172 NA
HETATM   24  N   UNL     1      43.630 -17.168   4.996  1.00  0.00    -0.230 N 
HETATM   25  C   UNL     1      44.343 -18.369   5.016  1.00  0.00     0.275 A 
HETATM   26  C   UNL     1      44.108 -19.296   3.899  1.00  0.00     0.046 A 
HETATM   27  O   UNL     1      45.142 -18.688   5.894  1.00  0.00    -0.266 OA
HETATM   28  C   UNL     1      43.157 -18.979   2.938  1.00  0.00     0.006 A 
HETATM   29  C   UNL     1      44.838 -20.489   3.807  1.00  0.00     0.018 A 
HETATM   30  C   UNL     1      42.937 -19.866   1.871  1.00  0.00     0.014 A 
HETATM   31  C   UNL     1      43.668 -21.053   1.778  1.00  0.00     0.001 A 
HETATM   32  C   UNL     1      44.619 -21.366   2.745  1.00  0.00     0.001 A 
BRANCH  24  33
HETATM   33  C   UNL     1      43.781 -16.242   6.131  1.00  0.00     0.105 C 
HETATM   34  C   UNL     1      42.842 -16.637   7.270  1.00  0.00     0.034 C 
HETATM   35  C   UNL     1      43.576 -14.783   5.729  1.00  0.00     0.034 C 
ENDBRANCH  24  33
ENDBRANCH  21  22
ENDBRANCH   1  21
TORSDOF 5
ENDMDL
MODEL 5
REMARK VINA RESULT:      -9.3      5.700      9.191
REMARK  5 active torsions:
REMARK  status: ('A' for Active; 'I' for Inactive)
REMARK    1  A    between atoms: C_2  and  N_3 
REMARK    2  A    between atoms: C_5  and  C_6 
REMARK    3  A    between atoms: C_6  and  C_7 
REMARK       I    between atoms: C_7  and  N_8 
REMARK    4  A    between atoms: N_8  and  C_9 
REMARK    5  A    between atoms: C_16  and  O_17 
ROOT
HETATM    1  C   UNL     1      44.720 -14.016   7.239  1.00  0.00     0.224 C 
HETATM    2  N   UNL     1      43.973 -13.280   8.117  1.00  0.00    -0.351 N 
HETATM    3  O   UNL     1      45.706 -13.541   6.668  1.00  0.00    -0.273 OA
HETATM    4  H   UNL     1      43.211 -13.739   8.610  1.00  0.00     0.163 HD
ENDROOT
BRANCH   2   5
HETATM    5  C   UNL     1      44.453 -11.997   8.579  1.00  0.00     0.135 C 
HETATM    6  C   UNL     1      43.301 -11.181   9.051  1.00  0.00     0.040 A 
HETATM    7  C   UNL     1      43.030 -10.817  10.355  1.00  0.00    -0.021 A 
HETATM    8  N   UNL     1      42.374 -10.585   8.239  1.00  0.00    -0.357 N 
HETATM    9  C   UNL     1      41.960  -9.881  10.322  1.00  0.00     0.002 A 
HETATM   10  C   UNL     1      43.859 -11.275  11.507  1.00  0.00     0.042 C 
HETATM   11  C   UNL     1      41.570  -9.751   8.987  1.00  0.00     0.043 A 
HETATM   12  C   UNL     1      41.310  -9.096  11.295  1.00  0.00     0.051 A 
HETATM   13  C   UNL     1      40.551  -8.880   8.586  1.00  0.00     0.033 A 
HETATM   14  C   UNL     1      39.938  -8.093   9.572  1.00  0.00     0.039 A 
HETATM   15  C   UNL     1      40.321  -8.182  10.909  1.00  0.00     0.069 A 
HETATM   16  C   UNL     1      44.793 -12.427  11.093  1.00  0.00     0.007 C 
HETATM   17  C   UNL     1      45.473 -12.159   9.735  1.00  0.00     0.032 C 
HETATM   18  H   UNL     1      42.332 -10.682   7.234  1.00  0.00     0.166 HD
BRANCH  15  19
HETATM   19  O   UNL     1      39.799  -7.439  11.936  1.00  0.00    -0.356 OA
HETATM   20  C   UNL     1      40.380  -7.645  13.218  1.00  0.00     0.210 C 
ENDBRANCH  15  19
ENDBRANCH   2   5
BRANCH   1  21
HETATM   21  C   UNL     1      44.379 -15.464   7.012  1.00  0.00     0.164 C 
BRANCH  21  22
HETATM   22  C   UNL     1      43.461 -15.934   5.906  1.00  0.00     0.075 A 
HETATM   23  N   UNL     1      42.466 -15.193   5.521  1.00  0.00    -0.172 NA
HETATM   24  N   UNL     1      41.645 -15.630   4.502  1.00  0.00    -0.230 N 
HETATM   25  C   UNL     1      41.863 -16.806   3.780  1.00  0.00     0.275 A 
HETATM   26  C   UNL     1      42.958 -17.671   4.241  1.00  0.00     0.046 A 
HETATM   27  O   UNL     1      41.200 -17.154   2.805  1.00  0.00    -0.266 OA
HETATM   28  C   UNL     1      43.758 -17.257   5.297  1.00  0.00     0.006 A 
HETATM   29  C   UNL     1      43.194 -18.905   3.616  1.00  0.00     0.018 A 
HETATM   30  C   UNL     1      44.803 -18.087   5.735  1.00  0.00     0.014 A 
HETATM   31  C   UNL     1      45.034 -19.317   5.115  1.00  0.00     0.001 A 
HETATM   32  C   UNL     1      44.230 -19.727   4.055  1.00  0.00     0.001 A 
BRANCH  24  33
HETATM   33  C   UNL     1      40.605 -14.699   4.033  1.00  0.00     0.105 C 
HETATM   34  C   UNL     1      41.208 -13.651   3.099  1.00  0.00     0.034 C 
HETATM   35  C   UNL     1      39.846 -14.040   5.183  1.00  0.00     0.034 C 
ENDBRANCH  24  33
ENDBRANCH  21  22
ENDBRANCH   1  21
TORSDOF 5
ENDMDL
MODEL 6
REMARK VINA RESULT:      -9.3      2.121      3.414
REMARK  5 active torsions:
REMARK  status: ('A' for Active; 'I' for Inactive)
REMARK    1  A    between atoms: C_2  and  N_3 
REMARK    2  A    between atoms: C_5  and  C_6 
REMARK    3  A    between atoms: C_6  and  C_7 
REMARK       I    between atoms: C_7  and  N_8 
REMARK    4  A    between atoms: N_8  and  C_9 
REMARK    5  A    between atoms: C_16  and  O_17 
ROOT
HETATM    1  C   UNL     1      42.009 -16.567   0.517  1.00  0.00     0.224 C 
HETATM    2  N   UNL     1      41.974 -15.710  -0.547  1.00  0.00    -0.351 N 
HETATM    3  O   UNL     1      41.015 -17.207   0.869  1.00  0.00    -0.273 OA
HETATM    4  H   UNL     1      42.838 -15.257  -0.836  1.00  0.00     0.163 HD
ENDROOT
BRANCH   2   5
HETATM    5  C   UNL     1      40.833 -15.703  -1.435  1.00  0.00     0.135 C 
HETATM    6  C   UNL     1      39.929 -14.579  -1.069  1.00  0.00     0.040 A 
HETATM    7  C   UNL     1      39.691 -13.440  -1.812  1.00  0.00    -0.021 A 
HETATM    8  N   UNL     1      39.119 -14.548   0.033  1.00  0.00    -0.357 N 
HETATM    9  C   UNL     1      38.620 -12.742  -1.188  1.00  0.00     0.002 A 
HETATM   10  C   UNL     1      40.392 -13.155  -3.097  1.00  0.00     0.042 C 
HETATM   11  C   UNL     1      38.278 -13.457  -0.039  1.00  0.00     0.043 A 
HETATM   12  C   UNL     1      37.875 -11.590  -1.514  1.00  0.00     0.051 A 
HETATM   13  C   UNL     1      37.235 -13.063   0.806  1.00  0.00     0.033 A 
HETATM   14  C   UNL     1      36.495 -11.928   0.446  1.00  0.00     0.039 A 
HETATM   15  C   UNL     1      36.795 -11.207  -0.709  1.00  0.00     0.069 A 
HETATM   16  C   UNL     1      41.604 -14.088  -3.284  1.00  0.00     0.007 C 
HETATM   17  C   UNL     1      41.270 -15.548  -2.914  1.00  0.00     0.032 C 
HETATM   18  H   UNL     1      39.088 -15.256   0.754  1.00  0.00     0.166 HD
BRANCH  15  19
HETATM   19  O   UNL     1      36.116 -10.103  -1.155  1.00  0.00    -0.356 OA
HETATM   20  C   UNL     1      34.777 -10.319  -1.581  1.00  0.00     0.210 C 
ENDBRANCH  15  19
ENDBRANCH   2   5
BRANCH   1  21
HETATM   21  C   UNL     1      43.310 -16.794   1.240  1.00  0.00     0.164 C 
BRANCH  21  22
HETATM   22  C   UNL     1      43.400 -17.018   2.732  1.00  0.00     0.075 A 
HETATM   23  N   UNL     1      43.074 -16.070   3.558  1.00  0.00    -0.172 NA
HETATM   24  N   UNL     1      43.149 -16.294   4.917  1.00  0.00    -0.230 N 
HETATM   25  C   UNL     1      43.479 -17.528   5.484  1.00  0.00     0.275 A 
HETATM   26  C   UNL     1      43.894 -18.591   4.556  1.00  0.00     0.046 A 
HETATM   27  O   UNL     1      43.449 -17.768   6.688  1.00  0.00    -0.266 OA
HETATM   28  C   UNL     1      43.865 -18.354   3.189  1.00  0.00     0.006 A 
HETATM   29  C   UNL     1      44.312 -19.834   5.051  1.00  0.00     0.018 A 
HETATM   30  C   UNL     1      44.263 -19.371   2.306  1.00  0.00     0.014 A 
HETATM   31  C   UNL     1      44.684 -20.609   2.800  1.00  0.00     0.001 A 
HETATM   32  C   UNL     1      44.709 -20.841   4.172  1.00  0.00     0.001 A 
BRANCH  24  33
HETATM   33  C   UNL     1      42.660 -15.223   5.801  1.00  0.00     0.105 C 
HETATM   34  C   UNL     1      41.149 -15.052   5.648  1.00  0.00     0.034 C 
HETATM   35  C   UNL     1      43.389 -13.899   5.577  1.00  0.00     0.034 C 
ENDBRANCH  24  33
ENDBRANCH  21  22
ENDBRANCH   1  21
TORSDOF 5
ENDMDL
MODEL 7
REMARK VINA RESULT:      -9.2      2.029      2.533
REMARK  5 active torsions:
REMARK  status: ('A' for Active; 'I' for Inactive)
REMARK    1  A    between atoms: C_2  and  N_3 
REMARK    2  A    between atoms: C_5  and  C_6 
REMARK    3  A    between atoms: C_6  and  C_7 
REMARK       I    between atoms: C_7  and  N_8 
REMARK    4  A    between atoms: N_8  and  C_9 
REMARK    5  A    between atoms: C_16  and  O_17 
ROOT
HETATM    1  C   UNL     1      41.628 -16.211   1.517  1.00  0.00     0.224 C 
HETATM    2  N   UNL     1      40.388 -15.720   1.215  1.00  0.00    -0.351 N 
HETATM    3  O   UNL     1      42.620 -15.480   1.570  1.00  0.00    -0.273 OA
HETATM    4  H   UNL     1      39.592 -16.354   1.251  1.00  0.00     0.163 HD
ENDROOT
BRANCH   2   5
HETATM    5  C   UNL     1      40.163 -14.293   1.177  1.00  0.00     0.135 C 
HETATM    6  C   UNL     1      40.417 -13.790  -0.201  1.00  0.00     0.040 A 
HETATM    7  C   UNL     1      39.474 -13.304  -1.086  1.00  0.00    -0.021 A 
HETATM    8  N   UNL     1      41.652 -13.649  -0.772  1.00  0.00    -0.357 N 
HETATM    9  C   UNL     1      40.176 -12.752  -2.193  1.00  0.00     0.002 A 
HETATM   10  C   UNL     1      38.015 -13.286  -0.778  1.00  0.00     0.042 C 
HETATM   11  C   UNL     1      41.536 -12.977  -1.970  1.00  0.00     0.043 A 
HETATM   12  C   UNL     1      39.789 -12.041  -3.347  1.00  0.00     0.051 A 
HETATM   13  C   UNL     1      42.523 -12.535  -2.858  1.00  0.00     0.033 A 
HETATM   14  C   UNL     1      42.112 -11.810  -3.985  1.00  0.00     0.039 A 
HETATM   15  C   UNL     1      40.764 -11.548  -4.222  1.00  0.00     0.069 A 
HETATM   16  C   UNL     1      37.698 -14.159   0.450  1.00  0.00     0.007 C 
HETATM   17  C   UNL     1      38.711 -13.939   1.592  1.00  0.00     0.032 C 
HETATM   18  H   UNL     1      42.526 -13.926  -0.345  1.00  0.00     0.166 HD
BRANCH  15  19
HETATM   19  O   UNL     1      40.268 -10.829  -5.279  1.00  0.00    -0.356 OA
HETATM   20  C   UNL     1      40.049  -9.443  -5.048  1.00  0.00     0.210 C 
ENDBRANCH  15  19
ENDBRANCH   2   5
BRANCH   1  21
HETATM   21  C   UNL     1      41.781 -17.668   1.864  1.00  0.00     0.164 C 
BRANCH  21  22
HETATM   22  C   UNL     1      42.558 -18.154   3.067  1.00  0.00     0.075 A 
HETATM   23  N   UNL     1      42.569 -17.461   4.164  1.00  0.00    -0.172 NA
HETATM   24  N   UNL     1      43.272 -17.924   5.257  1.00  0.00    -0.230 N 
HETATM   25  C   UNL     1      43.923 -19.160   5.294  1.00  0.00     0.275 A 
HETATM   26  C   UNL     1      43.953 -19.928   4.041  1.00  0.00     0.046 A 
HETATM   27  O   UNL     1      44.465 -19.629   6.292  1.00  0.00    -0.266 OA
HETATM   28  C   UNL     1      43.286 -19.442   2.925  1.00  0.00     0.006 A 
HETATM   29  C   UNL     1      44.650 -21.144   3.976  1.00  0.00     0.018 A 
HETATM   30  C   UNL     1      43.319 -20.178   1.730  1.00  0.00     0.014 A 
HETATM   31  C   UNL     1      44.017 -21.387   1.664  1.00  0.00     0.001 A 
HETATM   32  C   UNL     1      44.683 -21.871   2.787  1.00  0.00     0.001 A 
BRANCH  24  33
HETATM   33  C   UNL     1      43.155 -17.153   6.506  1.00  0.00     0.105 C 
HETATM   34  C   UNL     1      41.774 -16.507   6.607  1.00  0.00     0.034 C 
HETATM   35  C   UNL     1      44.263 -16.113   6.659  1.00  0.00     0.034 C 
ENDBRANCH  24  33
ENDBRANCH  21  22
ENDBRANCH   1  21
TORSDOF 5
ENDMDL
MODEL 8
REMARK VINA RESULT:      -9.1      2.778      4.263
REMARK  5 active torsions:
REMARK  status: ('A' for Active; 'I' for Inactive)
REMARK    1  A    between atoms: C_2  and  N_3 
REMARK    2  A    between atoms: C_5  and  C_6 
REMARK    3  A    between atoms: C_6  and  C_7 
REMARK       I    between atoms: C_7  and  N_8 
REMARK    4  A    between atoms: N_8  and  C_9 
REMARK    5  A    between atoms: C_16  and  O_17 
ROOT
HETATM    1  C   UNL     1      42.108 -14.281   3.948  1.00  0.00     0.224 C 
HETATM    2  N   UNL     1      42.149 -14.574   2.613  1.00  0.00    -0.351 N 
HETATM    3  O   UNL     1      41.265 -13.512   4.418  1.00  0.00    -0.273 OA
HETATM    4  H   UNL     1      42.821 -15.266   2.288  1.00  0.00     0.163 HD
ENDROOT
BRANCH   2   5
HETATM    5  C   UNL     1      41.062 -14.172   1.749  1.00  0.00     0.135 C 
HETATM    6  C   UNL     1      41.609 -13.427   0.582  1.00  0.00     0.040 A 
HETATM    7  C   UNL     1      41.630 -13.856  -0.731  1.00  0.00    -0.021 A 
HETATM    8  N   UNL     1      42.098 -12.150   0.623  1.00  0.00    -0.357 N 
HETATM    9  C   UNL     1      42.052 -12.757  -1.529  1.00  0.00     0.002 A 
HETATM   10  C   UNL     1      41.148 -15.204  -1.145  1.00  0.00     0.042 C 
HETATM   11  C   UNL     1      42.335 -11.702  -0.659  1.00  0.00     0.043 A 
HETATM   12  C   UNL     1      42.180 -12.542  -2.916  1.00  0.00     0.051 A 
HETATM   13  C   UNL     1      42.753 -10.447  -1.115  1.00  0.00     0.033 A 
HETATM   14  C   UNL     1      42.850 -10.253  -2.500  1.00  0.00     0.039 A 
HETATM   15  C   UNL     1      42.550 -11.279  -3.395  1.00  0.00     0.069 A 
HETATM   16  C   UNL     1      40.961 -16.125   0.075  1.00  0.00     0.007 C 
HETATM   17  C   UNL     1      40.261 -15.400   1.243  1.00  0.00     0.032 C 
HETATM   18  H   UNL     1      42.199 -11.592   1.460  1.00  0.00     0.166 HD
BRANCH  15  19
HETATM   19  O   UNL     1      42.591 -11.177  -4.761  1.00  0.00    -0.356 OA
HETATM   20  C   UNL     1      42.504  -9.862  -5.296  1.00  0.00     0.210 C 
ENDBRANCH  15  19
ENDBRANCH   2   5
BRANCH   1  21
HETATM   21  C   UNL     1      43.067 -14.965   4.884  1.00  0.00     0.164 C 
BRANCH  21  22
HETATM   22  C   UNL     1      43.413 -16.434   4.786  1.00  0.00     0.075 A 
HETATM   23  N   UNL     1      43.542 -17.000   3.624  1.00  0.00    -0.172 NA
HETATM   24  N   UNL     1      43.871 -18.338   3.551  1.00  0.00    -0.230 N 
HETATM   25  C   UNL     1      44.164 -19.128   4.665  1.00  0.00     0.275 A 
HETATM   26  C   UNL     1      43.975 -18.506   5.984  1.00  0.00     0.046 A 
HETATM   27  O   UNL     1      44.557 -20.291   4.608  1.00  0.00    -0.266 OA
HETATM   28  C   UNL     1      43.598 -17.173   6.062  1.00  0.00     0.006 A 
HETATM   29  C   UNL     1      44.175 -19.256   7.152  1.00  0.00     0.018 A 
HETATM   30  C   UNL     1      43.416 -16.582   7.324  1.00  0.00     0.014 A 
HETATM   31  C   UNL     1      43.612 -17.331   8.488  1.00  0.00     0.001 A 
HETATM   32  C   UNL     1      43.992 -18.667   8.403  1.00  0.00     0.001 A 
BRANCH  24  33
HETATM   33  C   UNL     1      44.115 -18.896   2.210  1.00  0.00     0.105 C 
HETATM   34  C   UNL     1      43.968 -17.809   1.145  1.00  0.00     0.034 C 
HETATM   35  C   UNL     1      43.219 -20.094   1.902  1.00  0.00     0.034 C 
ENDBRANCH  24  33
ENDBRANCH  21  22
ENDBRANCH   1  21
TORSDOF 5
ENDMDL
MODEL 9
REMARK VINA RESULT:      -8.9      2.933      9.583
REMARK  5 active torsions:
REMARK  status: ('A' for Active; 'I' for Inactive)
REMARK    1  A    between atoms: C_2  and  N_3 
REMARK    2  A    between atoms: C_5  and  C_6 
REMARK    3  A    between atoms: C_6  and  C_7 
REMARK       I    between atoms: C_7  and  N_8 
REMARK    4  A    between atoms: N_8  and  C_9 
REMARK    5  A    between atoms: C_16  and  O_17 
ROOT
HETATM    1  C   UNL     1      40.373 -14.016   1.847  1.00  0.00     0.224 C 
HETATM    2  N   UNL     1      41.325 -14.766   2.479  1.00  0.00    -0.351 N 
HETATM    3  O   UNL     1      39.181 -14.332   1.864  1.00  0.00    -0.273 OA
HETATM    4  H   UNL     1      42.284 -14.426   2.492  1.00  0.00     0.163 HD
ENDROOT
BRANCH   2   5
HETATM    5  C   UNL     1      40.932 -15.826   3.380  1.00  0.00     0.135 C 
HETATM    6  C   UNL     1      41.925 -16.933   3.303  1.00  0.00     0.040 A 
HETATM    7  C   UNL     1      42.815 -17.310   4.290  1.00  0.00    -0.021 A 
HETATM    8  N   UNL     1      42.045 -17.811   2.261  1.00  0.00    -0.357 N 
HETATM    9  C   UNL     1      43.423 -18.525   3.872  1.00  0.00     0.002 A 
HETATM   10  C   UNL     1      42.939 -16.579   5.584  1.00  0.00     0.042 C 
HETATM   11  C   UNL     1      42.922 -18.819   2.602  1.00  0.00     0.043 A 
HETATM   12  C   UNL     1      44.322 -19.431   4.470  1.00  0.00     0.051 A 
HETATM   13  C   UNL     1      43.292 -19.971   1.899  1.00  0.00     0.033 A 
HETATM   14  C   UNL     1      44.169 -20.867   2.527  1.00  0.00     0.039 A 
HETATM   15  C   UNL     1      44.667 -20.614   3.804  1.00  0.00     0.069 A 
HETATM   16  C   UNL     1      42.225 -15.216   5.520  1.00  0.00     0.007 C 
HETATM   17  C   UNL     1      40.843 -15.320   4.843  1.00  0.00     0.032 C 
HETATM   18  H   UNL     1      41.514 -17.771   1.401  1.00  0.00     0.166 HD
BRANCH  15  19
HETATM   19  O   UNL     1      45.506 -21.439   4.507  1.00  0.00    -0.356 OA
HETATM   20  C   UNL     1      44.898 -22.255   5.501  1.00  0.00     0.210 C 
ENDBRANCH  15  19
ENDBRANCH   2   5
BRANCH   1  21
HETATM   21  C   UNL     1      40.774 -12.731   1.172  1.00  0.00     0.164 C 
BRANCH  21  22
HETATM   22  C   UNL     1      41.054 -12.627  -0.310  1.00  0.00     0.075 A 
HETATM   23  N   UNL     1      40.563 -13.505  -1.132  1.00  0.00    -0.172 NA
HETATM   24  N   UNL     1      40.817 -13.389  -2.483  1.00  0.00    -0.230 N 
HETATM   25  C   UNL     1      41.515 -12.322  -3.054  1.00  0.00     0.275 A 
HETATM   26  C   UNL     1      42.112 -11.351  -2.125  1.00  0.00     0.046 A 
HETATM   27  O   UNL     1      41.659 -12.154  -4.263  1.00  0.00    -0.266 OA
HETATM   28  C   UNL     1      41.898 -11.490  -0.761  1.00  0.00     0.006 A 
HETATM   29  C   UNL     1      42.890 -10.292  -2.616  1.00  0.00     0.018 A 
HETATM   30  C   UNL     1      42.471 -10.562   0.124  1.00  0.00     0.014 A 
HETATM   31  C   UNL     1      43.250  -9.510  -0.365  1.00  0.00     0.001 A 
HETATM   32  C   UNL     1      43.460  -9.374  -1.735  1.00  0.00     0.001 A 
BRANCH  24  33
HETATM   33  C   UNL     1      40.142 -14.346  -3.376  1.00  0.00     0.105 C 
HETATM   34  C   UNL     1      38.625 -14.210  -3.255  1.00  0.00     0.034 C 
HETATM   35  C   UNL     1      40.587 -15.787  -3.136  1.00  0.00     0.034 C 
ENDBRANCH  24  33
ENDBRANCH  21  22
ENDBRANCH   1  21
TORSDOF 5
ENDMDL
MODEL 10
REMARK VINA RESULT:      -8.7      4.684      8.662
REMARK  5 active torsions:
REMARK  status: ('A' for Active; 'I' for Inactive)
REMARK    1  A    between atoms: C_2  and  N_3 
REMARK    2  A    between atoms: C_5  and  C_6 
REMARK    3  A    between atoms: C_6  and  C_7 
REMARK       I    between atoms: C_7  and  N_8 
REMARK    4  A    between atoms: N_8  and  C_9 
REMARK    5  A    between atoms: C_16  and  O_17 
ROOT
HETATM    1  C   UNL     1      42.493 -14.010   6.016  1.00  0.00     0.224 C 
HETATM    2  N   UNL     1      43.184 -15.039   6.593  1.00  0.00    -0.351 N 
HETATM    3  O   UNL     1      41.437 -14.199   5.405  1.00  0.00    -0.273 OA
HETATM    4  H   UNL     1      44.013 -14.821   7.141  1.00  0.00     0.163 HD
ENDROOT
BRANCH   2   5
HETATM    5  C   UNL     1      42.578 -16.347   6.703  1.00  0.00     0.135 C 
HETATM    6  C   UNL     1      42.976 -17.176   5.533  1.00  0.00     0.040 A 
HETATM    7  C   UNL     1      43.807 -18.278   5.550  1.00  0.00    -0.021 A 
HETATM    8  N   UNL     1      42.498 -17.021   4.260  1.00  0.00    -0.357 N 
HETATM    9  C   UNL     1      43.749 -18.874   4.260  1.00  0.00     0.002 A 
HETATM   10  C   UNL     1      44.491 -18.751   6.788  1.00  0.00     0.042 C 
HETATM   11  C   UNL     1      42.921 -18.071   3.474  1.00  0.00     0.043 A 
HETATM   12  C   UNL     1      44.287 -20.048   3.695  1.00  0.00     0.051 A 
HETATM   13  C   UNL     1      42.619 -18.383   2.144  1.00  0.00     0.033 A 
HETATM   14  C   UNL     1      43.149 -19.568   1.613  1.00  0.00     0.039 A 
HETATM   15  C   UNL     1      43.958 -20.404   2.381  1.00  0.00     0.069 A 
HETATM   16  C   UNL     1      44.418 -17.689   7.901  1.00  0.00     0.007 C 
HETATM   17  C   UNL     1      43.013 -17.062   8.009  1.00  0.00     0.032 C 
HETATM   18  H   UNL     1      41.868 -16.288   3.959  1.00  0.00     0.166 HD
BRANCH  15  19
HETATM   19  O   UNL     1      44.499 -21.591   1.959  1.00  0.00    -0.356 OA
HETATM   20  C   UNL     1      44.659 -22.596   2.953  1.00  0.00     0.210 C 
ENDBRANCH  15  19
ENDBRANCH   2   5
BRANCH   1  21
HETATM   21  C   UNL     1      42.990 -12.600   6.187  1.00  0.00     0.164 C 
BRANCH  21  22
HETATM   22  C   UNL     1      42.618 -11.728   7.365  1.00  0.00     0.075 A 
HETATM   23  N   UNL     1      41.483 -11.098   7.381  1.00  0.00    -0.172 NA
HETATM   24  N   UNL     1      41.152 -10.318   8.469  1.00  0.00    -0.230 N 
HETATM   25  C   UNL     1      41.935 -10.220   9.622  1.00  0.00     0.275 A 
HETATM   26  C   UNL     1      43.242 -10.893   9.591  1.00  0.00     0.046 A 
HETATM   27  O   UNL     1      41.604  -9.611  10.637  1.00  0.00    -0.266 OA
HETATM   28  C   UNL     1      43.599 -11.641   8.478  1.00  0.00     0.006 A 
HETATM   29  C   UNL     1      44.119 -10.779  10.680  1.00  0.00     0.018 A 
HETATM   30  C   UNL     1      44.849 -12.281   8.452  1.00  0.00     0.014 A 
HETATM   31  C   UNL     1      45.724 -12.164   9.535  1.00  0.00     0.001 A 
HETATM   32  C   UNL     1      45.360 -11.414  10.649  1.00  0.00     0.001 A 
BRANCH  24  33
HETATM   33  C   UNL     1      39.806  -9.720   8.481  1.00  0.00     0.105 C 
HETATM   34  C   UNL     1      38.805 -10.671   9.135  1.00  0.00     0.034 C 
HETATM   35  C   UNL     1      39.338  -9.300   7.089  1.00  0.00     0.034 C 
ENDBRANCH  24  33
ENDBRANCH  21  22
ENDBRANCH   1  21
TORSDOF 5
ENDMDL
