MODEL 1
REMARK VINA RESULT:      -8.6      0.000      0.000
REMARK  11 active torsions:
REMARK  status: ('A' for Active; 'I' for Inactive)
REMARK    1  A    between atoms: C_2  and  O_3 
REMARK    2  A    between atoms: C_2  and  C_4 
REMARK    3  A    between atoms: C_8  and  C_9 
REMARK    4  A    between atoms: C_12  and  C_13 
REMARK    5  A    between atoms: C_13  and  C_14 
REMARK    6  A    between atoms: C_14  and  N_15 
REMARK    7  A    between atoms: C_14  and  C_29 
REMARK       I    between atoms: N_15  and  C_16 
REMARK    8  A    between atoms: C_16  and  C_17 
REMARK    9  A    between atoms: C_21  and  O_22 
REMARK   10  A    between atoms: O_22  and  C_23 
REMARK   11  A    between atoms: C_29  and  N_30 
ROOT
HETATM    1  C   UNL     1      44.923 -20.296   4.479  1.00  0.00     0.114 C 
ENDROOT
BRANCH   1   2
HETATM    2  C   UNL     1      44.695 -20.539   2.964  1.00  0.00     0.065 C 
BRANCH   2   3
HETATM    3  C   UNL     1      43.922 -19.439   2.273  1.00  0.00    -0.056 A 
HETATM    4  C   UNL     1      44.530 -18.219   1.948  1.00  0.00     0.008 A 
HETATM    5  C   UNL     1      43.788 -17.176   1.380  1.00  0.00     0.014 A 
HETATM    6  C   UNL     1      42.414 -17.317   1.148  1.00  0.00    -0.006 A 
HETATM    7  C   UNL     1      41.808 -18.536   1.481  1.00  0.00     0.014 A 
HETATM    8  C   UNL     1      42.549 -19.584   2.038  1.00  0.00     0.008 A 
BRANCH   6   9
HETATM    9  C   UNL     1      41.603 -16.234   0.611  1.00  0.00     0.085 A 
HETATM   10  C   UNL     1      40.480 -15.679   1.188  1.00  0.00     0.130 A 
HETATM   11  N   UNL     1      40.038 -14.725   0.305  1.00  0.00    -0.315 N 
HETATM   12  C   UNL     1      40.914 -14.734  -0.772  1.00  0.00     0.143 A 
HETATM   13  C   UNL     1      38.937 -13.884   0.403  1.00  0.00     0.098 A 
HETATM   14  C   UNL     1      40.664 -13.818  -1.859  1.00  0.00     0.017 A 
HETATM   15  N   UNL     1      41.866 -15.631  -0.601  1.00  0.00    -0.228 NA
HETATM   16  C   UNL     1      39.588 -12.997  -1.740  1.00  0.00     0.015 A 
HETATM   17  C   UNL     1      38.692 -13.020  -0.594  1.00  0.00     0.018 A 
BRANCH  14  18
HETATM   18  C   UNL     1      41.579 -13.761  -3.072  1.00  0.00     0.150 C 
HETATM   19  C   UNL     1      42.823 -12.922  -2.800  1.00  0.00     0.044 C 
BRANCH  18  20
HETATM   20  O   UNL     1      41.994 -15.072  -3.464  1.00  0.00    -0.391 OA
HETATM   21  H   UNL     1      42.297 -15.525  -2.660  1.00  0.00     0.210 HD
ENDBRANCH  18  20
ENDBRANCH  14  18
ENDBRANCH   6   9
ENDBRANCH   2   3
ENDBRANCH   1   2
BRANCH   1  22
HETATM   22  N   UNL     1      44.146 -19.111   4.906  1.00  0.00    -0.350 N 
HETATM   23  C   UNL     1      44.665 -18.092   5.676  1.00  0.00     0.252 C 
HETATM   24  O   UNL     1      45.757 -18.189   6.229  1.00  0.00    -0.268 OA
HETATM   25  H   UNL     1      43.379 -18.837   4.297  1.00  0.00     0.163 HD
BRANCH  23  26
HETATM   26  C   UNL     1      43.846 -16.859   5.792  1.00  0.00     0.033 A 
HETATM   27  C   UNL     1      44.369 -15.775   6.503  1.00  0.00     0.043 A 
HETATM   28  C   UNL     1      43.620 -14.602   6.627  1.00  0.00     0.068 A 
HETATM   29 CL   UNL     1      44.318 -13.286   7.500  1.00  0.00    -0.081 Cl
HETATM   30  C   UNL     1      42.335 -14.510   6.072  1.00  0.00     0.091 A 
HETATM   31  C   UNL     1      41.823 -15.594   5.354  1.00  0.00     0.039 A 
HETATM   32  C   UNL     1      42.570 -16.770   5.221  1.00  0.00     0.020 A 
BRANCH  30  33
HETATM   33  O   UNL     1      41.664 -13.326   6.211  1.00  0.00    -0.345 OA
BRANCH  33  34
HETATM   34  C   UNL     1      40.848 -12.891   5.114  1.00  0.00     0.121 C 
HETATM   35  C   UNL     1      39.546 -12.267   5.615  1.00  0.00     0.040 C 
HETATM   36  C   UNL     1      41.663 -11.850   4.351  1.00  0.00     0.040 C 
ENDBRANCH  33  34
ENDBRANCH  30  33
ENDBRANCH  23  26
ENDBRANCH   1  22
BRANCH   1  37
HETATM   37  C   UNL     1      44.574 -21.591   5.268  1.00  0.00     0.254 C 
BRANCH  37  38
HETATM   38  N   UNL     1      45.071 -22.810   4.579  1.00  0.00    -0.077 N 
HETATM   39  H   UNL     1      45.137 -22.695   3.562  1.00  0.00     0.274 HD
HETATM   40  H   UNL     1      46.046 -23.018   4.889  1.00  0.00     0.274 HD
HETATM   41  H   UNL     1      44.513 -23.646   4.783  1.00  0.00     0.274 HD
ENDBRANCH  37  38
ENDBRANCH   1  37
TORSDOF 11
ENDMDL
MODEL 2
REMARK VINA RESULT:      -8.4      4.359      9.607
REMARK  11 active torsions:
REMARK  status: ('A' for Active; 'I' for Inactive)
REMARK    1  A    between atoms: C_2  and  O_3 
REMARK    2  A    between atoms: C_2  and  C_4 
REMARK    3  A    between atoms: C_8  and  C_9 
REMARK    4  A    between atoms: C_12  and  C_13 
REMARK    5  A    between atoms: C_13  and  C_14 
REMARK    6  A    between atoms: C_14  and  N_15 
REMARK    7  A    between atoms: C_14  and  C_29 
REMARK       I    between atoms: N_15  and  C_16 
REMARK    8  A    between atoms: C_16  and  C_17 
REMARK    9  A    between atoms: C_21  and  O_22 
REMARK   10  A    between atoms: O_22  and  C_23 
REMARK   11  A    between atoms: C_29  and  N_30 
ROOT
HETATM    1  C   UNL     1      41.841 -12.377   1.716  1.00  0.00     0.114 C 
ENDROOT
BRANCH   1   2
HETATM    2  C   UNL     1      40.535 -12.190   2.534  1.00  0.00     0.065 C 
BRANCH   2   3
HETATM    3  C   UNL     1      40.762 -11.762   3.965  1.00  0.00    -0.056 A 
HETATM    4  C   UNL     1      41.031 -10.425   4.289  1.00  0.00     0.008 A 
HETATM    5  C   UNL     1      41.317 -10.050   5.607  1.00  0.00     0.014 A 
HETATM    6  C   UNL     1      41.369 -11.005   6.630  1.00  0.00    -0.006 A 
HETATM    7  C   UNL     1      41.106 -12.341   6.301  1.00  0.00     0.014 A 
HETATM    8  C   UNL     1      40.809 -12.718   4.987  1.00  0.00     0.008 A 
BRANCH   6   9
HETATM    9  C   UNL     1      41.718 -10.656   8.000  1.00  0.00     0.085 A 
HETATM   10  C   UNL     1      40.895 -10.068   8.937  1.00  0.00     0.130 A 
HETATM   11  N   UNL     1      41.666  -9.900  10.060  1.00  0.00    -0.315 N 
HETATM   12  C   UNL     1      42.928 -10.399   9.763  1.00  0.00     0.143 A 
HETATM   13  C   UNL     1      41.321  -9.344  11.285  1.00  0.00     0.098 A 
HETATM   14  C   UNL     1      43.943 -10.332  10.785  1.00  0.00     0.017 A 
HETATM   15  N   UNL     1      42.974 -10.865   8.529  1.00  0.00    -0.228 NA
HETATM   16  C   UNL     1      43.583  -9.794  11.979  1.00  0.00     0.015 A 
HETATM   17  C   UNL     1      42.250  -9.279  12.251  1.00  0.00     0.018 A 
BRANCH  14  18
HETATM   18  C   UNL     1      45.347 -10.862  10.542  1.00  0.00     0.150 C 
HETATM   19  C   UNL     1      45.418 -12.375  10.722  1.00  0.00     0.044 C 
BRANCH  18  20
HETATM   20  O   UNL     1      45.795 -10.543   9.222  1.00  0.00    -0.391 OA
HETATM   21  H   UNL     1      46.731 -10.289   9.294  1.00  0.00     0.210 HD
ENDBRANCH  18  20
ENDBRANCH  14  18
ENDBRANCH   6   9
ENDBRANCH   2   3
ENDBRANCH   1   2
BRANCH   1  22
HETATM   22  N   UNL     1      42.224 -13.806   1.729  1.00  0.00    -0.350 N 
HETATM   23  C   UNL     1      43.142 -14.345   2.605  1.00  0.00     0.252 C 
HETATM   24  O   UNL     1      43.856 -13.638   3.312  1.00  0.00    -0.268 OA
HETATM   25  H   UNL     1      41.522 -14.461   1.392  1.00  0.00     0.163 HD
BRANCH  23  26
HETATM   26  C   UNL     1      43.218 -15.827   2.667  1.00  0.00     0.033 A 
HETATM   27  C   UNL     1      42.941 -16.458   3.883  1.00  0.00     0.043 A 
HETATM   28  C   UNL     1      43.004 -17.851   3.969  1.00  0.00     0.068 A 
HETATM   29 CL   UNL     1      42.636 -18.584   5.490  1.00  0.00    -0.081 Cl
HETATM   30  C   UNL     1      43.370 -18.623   2.857  1.00  0.00     0.091 A 
HETATM   31  C   UNL     1      43.635 -17.985   1.642  1.00  0.00     0.039 A 
HETATM   32  C   UNL     1      43.569 -16.590   1.547  1.00  0.00     0.020 A 
BRANCH  30  33
HETATM   33  O   UNL     1      43.391 -19.983   3.003  1.00  0.00    -0.345 OA
BRANCH  33  34
HETATM   34  C   UNL     1      44.669 -20.634   2.997  1.00  0.00     0.121 C 
HETATM   35  C   UNL     1      45.109 -20.987   4.418  1.00  0.00     0.040 C 
HETATM   36  C   UNL     1      44.505 -21.908   2.173  1.00  0.00     0.040 C 
ENDBRANCH  33  34
ENDBRANCH  30  33
ENDBRANCH  23  26
ENDBRANCH   1  22
BRANCH   1  37
HETATM   37  C   UNL     1      41.642 -11.796   0.286  1.00  0.00     0.254 C 
BRANCH  37  38
HETATM   38  N   UNL     1      41.085 -12.807  -0.650  1.00  0.00    -0.077 N 
HETATM   39  H   UNL     1      41.195 -12.542  -1.635  1.00  0.00     0.274 HD
HETATM   40  H   UNL     1      41.610 -13.704  -0.554  1.00  0.00     0.274 HD
HETATM   41  H   UNL     1      40.099 -13.022  -0.473  1.00  0.00     0.274 HD
ENDBRANCH  37  38
ENDBRANCH   1  37
TORSDOF 11
ENDMDL
MODEL 3
REMARK VINA RESULT:      -8.0      4.246      9.291
REMARK  11 active torsions:
REMARK  status: ('A' for Active; 'I' for Inactive)
REMARK    1  A    between atoms: C_2  and  O_3 
REMARK    2  A    between atoms: C_2  and  C_4 
REMARK    3  A    between atoms: C_8  and  C_9 
REMARK    4  A    between atoms: C_12  and  C_13 
REMARK    5  A    between atoms: C_13  and  C_14 
REMARK    6  A    between atoms: C_14  and  N_15 
REMARK    7  A    between atoms: C_14  and  C_29 
REMARK       I    between atoms: N_15  and  C_16 
REMARK    8  A    between atoms: C_16  and  C_17 
REMARK    9  A    between atoms: C_21  and  O_22 
REMARK   10  A    between atoms: O_22  and  C_23 
REMARK   11  A    between atoms: C_29  and  N_30 
ROOT
HETATM    1  C   UNL     1      40.616 -14.442   1.875  1.00  0.00     0.114 C 
ENDROOT
BRANCH   1   2
HETATM    2  C   UNL     1      41.515 -13.195   2.084  1.00  0.00     0.065 C 
BRANCH   2   3
HETATM    3  C   UNL     1      41.524 -12.671   3.502  1.00  0.00    -0.056 A 
HETATM    4  C   UNL     1      40.985 -11.416   3.815  1.00  0.00     0.008 A 
HETATM    5  C   UNL     1      41.066 -10.904   5.115  1.00  0.00     0.014 A 
HETATM    6  C   UNL     1      41.713 -11.622   6.129  1.00  0.00    -0.006 A 
HETATM    7  C   UNL     1      42.257 -12.873   5.811  1.00  0.00     0.014 A 
HETATM    8  C   UNL     1      42.167 -13.393   4.515  1.00  0.00     0.008 A 
BRANCH   6   9
HETATM    9  C   UNL     1      41.864 -11.094   7.478  1.00  0.00     0.085 A 
HETATM   10  C   UNL     1      40.904 -10.437   8.220  1.00  0.00     0.130 A 
HETATM   11  N   UNL     1      41.513 -10.099   9.402  1.00  0.00    -0.315 N 
HETATM   12  C   UNL     1      42.818 -10.568   9.336  1.00  0.00     0.143 A 
HETATM   13  C   UNL     1      40.989  -9.416  10.493  1.00  0.00     0.098 A 
HETATM   14  C   UNL     1      43.685 -10.329  10.464  1.00  0.00     0.017 A 
HETATM   15  N   UNL     1      43.044 -11.176   8.186  1.00  0.00    -0.228 NA
HETATM   16  C   UNL     1      43.151  -9.669  11.524  1.00  0.00     0.015 A 
HETATM   17  C   UNL     1      41.778  -9.190  11.555  1.00  0.00     0.018 A 
BRANCH  14  18
HETATM   18  C   UNL     1      45.125 -10.816  10.472  1.00  0.00     0.150 C 
HETATM   19  C   UNL     1      45.213 -12.313  10.749  1.00  0.00     0.044 C 
BRANCH  18  20
HETATM   20  O   UNL     1      45.764 -10.550   9.221  1.00  0.00    -0.391 OA
HETATM   21  H   UNL     1      46.165  -9.667   9.290  1.00  0.00     0.210 HD
ENDBRANCH  18  20
ENDBRANCH  14  18
ENDBRANCH   6   9
ENDBRANCH   2   3
ENDBRANCH   1   2
BRANCH   1  22
HETATM   22  N   UNL     1      41.260 -15.618   2.502  1.00  0.00    -0.350 N 
HETATM   23  C   UNL     1      42.142 -16.449   1.845  1.00  0.00     0.252 C 
HETATM   24  O   UNL     1      42.308 -16.387   0.630  1.00  0.00    -0.268 OA
HETATM   25  H   UNL     1      41.386 -15.574   3.510  1.00  0.00     0.163 HD
BRANCH  23  26
HETATM   26  C   UNL     1      42.898 -17.416   2.681  1.00  0.00     0.033 A 
HETATM   27  C   UNL     1      43.248 -18.649   2.123  1.00  0.00     0.043 A 
HETATM   28  C   UNL     1      43.961 -19.576   2.887  1.00  0.00     0.068 A 
HETATM   29 CL   UNL     1      44.384 -21.078   2.147  1.00  0.00    -0.081 Cl
HETATM   30  C   UNL     1      44.304 -19.296   4.218  1.00  0.00     0.091 A 
HETATM   31  C   UNL     1      43.960 -18.057   4.764  1.00  0.00     0.039 A 
HETATM   32  C   UNL     1      43.251 -17.121   4.004  1.00  0.00     0.020 A 
BRANCH  30  33
HETATM   33  O   UNL     1      45.021 -20.239   4.903  1.00  0.00    -0.345 OA
BRANCH  33  34
HETATM   34  C   UNL     1      44.318 -21.395   5.379  1.00  0.00     0.121 C 
HETATM   35  C   UNL     1      45.200 -22.641   5.303  1.00  0.00     0.040 C 
HETATM   36  C   UNL     1      43.944 -21.111   6.831  1.00  0.00     0.040 C 
ENDBRANCH  33  34
ENDBRANCH  30  33
ENDBRANCH  23  26
ENDBRANCH   1  22
BRANCH   1  37
HETATM   37  C   UNL     1      39.189 -14.146   2.419  1.00  0.00     0.254 C 
BRANCH  37  38
HETATM   38  N   UNL     1      38.167 -14.183   1.341  1.00  0.00    -0.077 N 
HETATM   39  H   UNL     1      37.975 -13.258   0.941  1.00  0.00     0.274 HD
HETATM   40  H   UNL     1      38.518 -14.754   0.541  1.00  0.00     0.274 HD
HETATM   41  H   UNL     1      37.281 -14.606   1.638  1.00  0.00     0.274 HD
ENDBRANCH  37  38
ENDBRANCH   1  37
TORSDOF 11
ENDMDL
MODEL 4
REMARK VINA RESULT:      -7.9      4.228      9.337
REMARK  11 active torsions:
REMARK  status: ('A' for Active; 'I' for Inactive)
REMARK    1  A    between atoms: C_2  and  O_3 
REMARK    2  A    between atoms: C_2  and  C_4 
REMARK    3  A    between atoms: C_8  and  C_9 
REMARK    4  A    between atoms: C_12  and  C_13 
REMARK    5  A    between atoms: C_13  and  C_14 
REMARK    6  A    between atoms: C_14  and  N_15 
REMARK    7  A    between atoms: C_14  and  C_29 
REMARK       I    between atoms: N_15  and  C_16 
REMARK    8  A    between atoms: C_16  and  C_17 
REMARK    9  A    between atoms: C_21  and  O_22 
REMARK   10  A    between atoms: O_22  and  C_23 
REMARK   11  A    between atoms: C_29  and  N_30 
ROOT
HETATM    1  C   UNL     1      40.535 -13.273   2.298  1.00  0.00     0.114 C 
ENDROOT
BRANCH   1   2
HETATM    2  C   UNL     1      39.379 -12.905   3.265  1.00  0.00     0.065 C 
BRANCH   2   3
HETATM    3  C   UNL     1      39.836 -12.269   4.558  1.00  0.00    -0.056 A 
HETATM    4  C   UNL     1      40.891 -11.347   4.579  1.00  0.00     0.008 A 
HETATM    5  C   UNL     1      41.361 -10.822   5.789  1.00  0.00     0.014 A 
HETATM    6  C   UNL     1      40.806 -11.225   7.009  1.00  0.00    -0.006 A 
HETATM    7  C   UNL     1      39.755 -12.152   6.985  1.00  0.00     0.014 A 
HETATM    8  C   UNL     1      39.276 -12.671   5.777  1.00  0.00     0.008 A 
BRANCH   6   9
HETATM    9  C   UNL     1      41.307 -10.740   8.288  1.00  0.00     0.085 A 
HETATM   10  C   UNL     1      40.624  -9.966   9.202  1.00  0.00     0.130 A 
HETATM   11  N   UNL     1      41.507  -9.730  10.226  1.00  0.00    -0.315 N 
HETATM   12  C   UNL     1      42.692 -10.375   9.896  1.00  0.00     0.143 A 
HETATM   13  C   UNL     1      41.322  -8.996  11.391  1.00  0.00     0.098 A 
HETATM   14  C   UNL     1      43.800 -10.273  10.814  1.00  0.00     0.017 A 
HETATM   15  N   UNL     1      42.586 -10.994   8.735  1.00  0.00    -0.228 NA
HETATM   16  C   UNL     1      43.596  -9.558  11.951  1.00  0.00     0.015 A 
HETATM   17  C   UNL     1      42.339  -8.894  12.260  1.00  0.00     0.018 A 
BRANCH  14  18
HETATM   18  C   UNL     1      45.129 -10.954  10.530  1.00  0.00     0.150 C 
HETATM   19  C   UNL     1      45.026 -12.470  10.669  1.00  0.00     0.044 C 
BRANCH  18  20
HETATM   20  O   UNL     1      45.589 -10.652   9.210  1.00  0.00    -0.391 OA
HETATM   21  H   UNL     1      46.560 -10.641   9.244  1.00  0.00     0.210 HD
ENDBRANCH  18  20
ENDBRANCH  14  18
ENDBRANCH   6   9
ENDBRANCH   2   3
ENDBRANCH   1   2
BRANCH   1  22
HETATM   22  N   UNL     1      41.246 -14.462   2.818  1.00  0.00    -0.350 N 
HETATM   23  C   UNL     1      42.583 -14.468   3.155  1.00  0.00     0.252 C 
HETATM   24  O   UNL     1      43.329 -13.537   2.864  1.00  0.00    -0.268 OA
HETATM   25  H   UNL     1      40.677 -15.140   3.319  1.00  0.00     0.163 HD
BRANCH  23  26
HETATM   26  C   UNL     1      43.078 -15.650   3.906  1.00  0.00     0.033 A 
HETATM   27  C   UNL     1      43.124 -15.583   5.301  1.00  0.00     0.043 A 
HETATM   28  C   UNL     1      43.584 -16.681   6.032  1.00  0.00     0.068 A 
HETATM   29 CL   UNL     1      43.604 -16.554   7.755  1.00  0.00    -0.081 Cl
HETATM   30  C   UNL     1      44.029 -17.840   5.381  1.00  0.00     0.091 A 
HETATM   31  C   UNL     1      43.970 -17.903   3.986  1.00  0.00     0.039 A 
HETATM   32  C   UNL     1      43.505 -16.810   3.248  1.00  0.00     0.020 A 
BRANCH  30  33
HETATM   33  O   UNL     1      44.446 -18.888   6.156  1.00  0.00    -0.345 OA
BRANCH  33  34
HETATM   34  C   UNL     1      43.823 -20.163   5.944  1.00  0.00     0.121 C 
HETATM   35  C   UNL     1      44.721 -21.078   5.113  1.00  0.00     0.040 C 
HETATM   36  C   UNL     1      43.598 -20.771   7.326  1.00  0.00     0.040 C 
ENDBRANCH  33  34
ENDBRANCH  30  33
ENDBRANCH  23  26
ENDBRANCH   1  22
BRANCH   1  37
HETATM   37  C   UNL     1      39.966 -13.462   0.862  1.00  0.00     0.254 C 
BRANCH  37  38
HETATM   38  N   UNL     1      40.628 -14.586   0.148  1.00  0.00    -0.077 N 
HETATM   39  H   UNL     1      40.771 -15.408   0.745  1.00  0.00     0.274 HD
HETATM   40  H   UNL     1      40.015 -14.920  -0.627  1.00  0.00     0.274 HD
HETATM   41  H   UNL     1      41.523 -14.323  -0.276  1.00  0.00     0.274 HD
ENDBRANCH  37  38
ENDBRANCH   1  37
TORSDOF 11
ENDMDL
MODEL 5
REMARK VINA RESULT:      -7.9      4.371      8.592
REMARK  11 active torsions:
REMARK  status: ('A' for Active; 'I' for Inactive)
REMARK    1  A    between atoms: C_2  and  O_3 
REMARK    2  A    between atoms: C_2  and  C_4 
REMARK    3  A    between atoms: C_8  and  C_9 
REMARK    4  A    between atoms: C_12  and  C_13 
REMARK    5  A    between atoms: C_13  and  C_14 
REMARK    6  A    between atoms: C_14  and  N_15 
REMARK    7  A    between atoms: C_14  and  C_29 
REMARK       I    between atoms: N_15  and  C_16 
REMARK    8  A    between atoms: C_16  and  C_17 
REMARK    9  A    between atoms: C_21  and  O_22 
REMARK   10  A    between atoms: O_22  and  C_23 
REMARK   11  A    between atoms: C_29  and  N_30 
ROOT
HETATM    1  C   UNL     1      40.124 -11.341   5.013  1.00  0.00     0.114 C 
ENDROOT
BRANCH   1   2
HETATM    2  C   UNL     1      41.512 -11.725   4.435  1.00  0.00     0.065 C 
BRANCH   2   3
HETATM    3  C   UNL     1      41.840 -13.196   4.546  1.00  0.00    -0.056 A 
HETATM    4  C   UNL     1      41.177 -14.021   5.466  1.00  0.00     0.008 A 
HETATM    5  C   UNL     1      41.541 -15.363   5.618  1.00  0.00     0.014 A 
HETATM    6  C   UNL     1      42.594 -15.910   4.875  1.00  0.00    -0.006 A 
HETATM    7  C   UNL     1      43.259 -15.081   3.961  1.00  0.00     0.014 A 
HETATM    8  C   UNL     1      42.891 -13.742   3.798  1.00  0.00     0.008 A 
BRANCH   6   9
HETATM    9  C   UNL     1      43.034 -17.288   5.048  1.00  0.00     0.085 A 
HETATM   10  C   UNL     1      43.090 -17.993   6.232  1.00  0.00     0.130 A 
HETATM   11  N   UNL     1      43.598 -19.226   5.909  1.00  0.00    -0.315 N 
HETATM   12  C   UNL     1      43.826 -19.224   4.539  1.00  0.00     0.143 A 
HETATM   13  C   UNL     1      43.864 -20.309   6.737  1.00  0.00     0.098 A 
HETATM   14  C   UNL     1      44.376 -20.415   3.939  1.00  0.00     0.017 A 
HETATM   15  N   UNL     1      43.485 -18.067   4.004  1.00  0.00    -0.228 NA
HETATM   16  C   UNL     1      44.620 -21.466   4.765  1.00  0.00     0.015 A 
HETATM   17  C   UNL     1      44.369 -21.429   6.197  1.00  0.00     0.018 A 
BRANCH  14  18
HETATM   18  C   UNL     1      44.649 -20.497   2.446  1.00  0.00     0.150 C 
HETATM   19  C   UNL     1      44.515 -21.924   1.925  1.00  0.00     0.044 C 
BRANCH  18  20
HETATM   20  O   UNL     1      43.748 -19.662   1.713  1.00  0.00    -0.391 OA
HETATM   21  H   UNL     1      43.356 -20.213   1.015  1.00  0.00     0.210 HD
ENDBRANCH  18  20
ENDBRANCH  14  18
ENDBRANCH   6   9
ENDBRANCH   2   3
ENDBRANCH   1   2
BRANCH   1  22
HETATM   22  N   UNL     1      40.302 -10.738   6.352  1.00  0.00    -0.350 N 
HETATM   23  C   UNL     1      39.797 -11.284   7.512  1.00  0.00     0.252 C 
HETATM   24  O   UNL     1      38.993 -12.212   7.495  1.00  0.00    -0.268 OA
HETATM   25  H   UNL     1      41.135 -10.166   6.477  1.00  0.00     0.163 HD
BRANCH  23  26
HETATM   26  C   UNL     1      40.286 -10.708   8.791  1.00  0.00     0.033 A 
HETATM   27  C   UNL     1      39.348 -10.351   9.763  1.00  0.00     0.043 A 
HETATM   28  C   UNL     1      39.780  -9.808  10.976  1.00  0.00     0.068 A 
HETATM   29 CL   UNL     1      38.582  -9.401  12.151  1.00  0.00    -0.081 Cl
HETATM   30  C   UNL     1      41.144  -9.588  11.217  1.00  0.00     0.091 A 
HETATM   31  C   UNL     1      42.076  -9.956  10.243  1.00  0.00     0.039 A 
HETATM   32  C   UNL     1      41.651 -10.506   9.029  1.00  0.00     0.020 A 
BRANCH  30  33
HETATM   33  O   UNL     1      41.502  -9.073  12.433  1.00  0.00    -0.345 OA
BRANCH  33  34
HETATM   34  C   UNL     1      42.266  -9.911  13.312  1.00  0.00     0.121 C 
HETATM   35  C   UNL     1      43.545  -9.206  13.763  1.00  0.00     0.040 C 
HETATM   36  C   UNL     1      41.378 -10.200  14.518  1.00  0.00     0.040 C 
ENDBRANCH  33  34
ENDBRANCH  30  33
ENDBRANCH  23  26
ENDBRANCH   1  22
BRANCH   1  37
HETATM   37  C   UNL     1      39.382 -10.418   4.004  1.00  0.00     0.254 C 
BRANCH  37  38
HETATM   38  N   UNL     1      37.998 -10.888   3.738  1.00  0.00    -0.077 N 
HETATM   39  H   UNL     1      37.285 -10.195   3.991  1.00  0.00     0.274 HD
HETATM   40  H   UNL     1      37.868 -11.044   2.714  1.00  0.00     0.274 HD
HETATM   41  H   UNL     1      37.776 -11.776   4.201  1.00  0.00     0.274 HD
ENDBRANCH  37  38
ENDBRANCH   1  37
TORSDOF 11
ENDMDL
MODEL 6
REMARK VINA RESULT:      -7.7      2.737      5.646
REMARK  11 active torsions:
REMARK  status: ('A' for Active; 'I' for Inactive)
REMARK    1  A    between atoms: C_2  and  O_3 
REMARK    2  A    between atoms: C_2  and  C_4 
REMARK    3  A    between atoms: C_8  and  C_9 
REMARK    4  A    between atoms: C_12  and  C_13 
REMARK    5  A    between atoms: C_13  and  C_14 
REMARK    6  A    between atoms: C_14  and  N_15 
REMARK    7  A    between atoms: C_14  and  C_29 
REMARK       I    between atoms: N_15  and  C_16 
REMARK    8  A    between atoms: C_16  and  C_17 
REMARK    9  A    between atoms: C_21  and  O_22 
REMARK   10  A    between atoms: O_22  and  C_23 
REMARK   11  A    between atoms: C_29  and  N_30 
ROOT
HETATM    1  C   UNL     1      43.755 -14.846   7.187  1.00  0.00     0.114 C 
ENDROOT
BRANCH   1   2
HETATM    2  C   UNL     1      42.444 -14.245   6.614  1.00  0.00     0.065 C 
BRANCH   2   3
HETATM    3  C   UNL     1      42.327 -14.344   5.111  1.00  0.00    -0.056 A 
HETATM    4  C   UNL     1      43.140 -13.574   4.267  1.00  0.00     0.008 A 
HETATM    5  C   UNL     1      42.972 -13.611   2.878  1.00  0.00     0.014 A 
HETATM    6  C   UNL     1      41.969 -14.398   2.298  1.00  0.00    -0.006 A 
HETATM    7  C   UNL     1      41.154 -15.161   3.145  1.00  0.00     0.014 A 
HETATM    8  C   UNL     1      41.327 -15.135   4.533  1.00  0.00     0.008 A 
BRANCH   6   9
HETATM    9  C   UNL     1      41.732 -14.417   0.861  1.00  0.00     0.085 A 
HETATM   10  C   UNL     1      41.205 -15.459   0.126  1.00  0.00     0.130 A 
HETATM   11  N   UNL     1      41.205 -15.032  -1.179  1.00  0.00    -0.315 N 
HETATM   12  C   UNL     1      41.728 -13.745  -1.185  1.00  0.00     0.143 A 
HETATM   13  C   UNL     1      40.786 -15.704  -2.320  1.00  0.00     0.098 A 
HETATM   14  C   UNL     1      41.847 -13.066  -2.451  1.00  0.00     0.017 A 
HETATM   15  N   UNL     1      42.043 -13.357   0.037  1.00  0.00    -0.228 NA
HETATM   16  C   UNL     1      41.423 -13.736  -3.554  1.00  0.00     0.015 A 
HETATM   17  C   UNL     1      40.883 -15.086  -3.507  1.00  0.00     0.018 A 
BRANCH  14  18
HETATM   18  C   UNL     1      42.402 -11.654  -2.543  1.00  0.00     0.150 C 
HETATM   19  C   UNL     1      42.322 -11.108  -3.965  1.00  0.00     0.044 C 
BRANCH  18  20
HETATM   20  O   UNL     1      41.692 -10.765  -1.677  1.00  0.00    -0.391 OA
HETATM   21  H   UNL     1      40.754 -10.810  -1.932  1.00  0.00     0.210 HD
ENDBRANCH  18  20
ENDBRANCH  14  18
ENDBRANCH   6   9
ENDBRANCH   2   3
ENDBRANCH   1   2
BRANCH   1  22
HETATM   22  N   UNL     1      44.212 -15.946   6.309  1.00  0.00    -0.350 N 
HETATM   23  C   UNL     1      43.790 -17.252   6.435  1.00  0.00     0.252 C 
HETATM   24  O   UNL     1      43.152 -17.636   7.412  1.00  0.00    -0.268 OA
HETATM   25  H   UNL     1      44.497 -15.679   5.370  1.00  0.00     0.163 HD
BRANCH  23  26
HETATM   26  C   UNL     1      44.129 -18.175   5.322  1.00  0.00     0.033 A 
HETATM   27  C   UNL     1      43.770 -17.813   4.021  1.00  0.00     0.043 A 
HETATM   28  C   UNL     1      44.079 -18.662   2.956  1.00  0.00     0.068 A 
HETATM   29 CL   UNL     1      43.629 -18.159   1.365  1.00  0.00    -0.081 Cl
HETATM   30  C   UNL     1      44.719 -19.890   3.179  1.00  0.00     0.091 A 
HETATM   31  C   UNL     1      45.084 -20.240   4.482  1.00  0.00     0.039 A 
HETATM   32  C   UNL     1      44.783 -19.392   5.553  1.00  0.00     0.020 A 
BRANCH  30  33
HETATM   33  O   UNL     1      45.012 -20.664   2.090  1.00  0.00    -0.345 OA
BRANCH  33  34
HETATM   34  C   UNL     1      44.390 -21.954   2.004  1.00  0.00     0.121 C 
HETATM   35  C   UNL     1      44.556 -22.729   3.311  1.00  0.00     0.040 C 
HETATM   36  C   UNL     1      42.909 -21.706   1.731  1.00  0.00     0.040 C 
ENDBRANCH  33  34
ENDBRANCH  30  33
ENDBRANCH  23  26
ENDBRANCH   1  22
BRANCH   1  37
HETATM   37  C   UNL     1      44.806 -13.713   7.369  1.00  0.00     0.254 C 
BRANCH  37  38
HETATM   38  N   UNL     1      44.498 -12.857   8.544  1.00  0.00    -0.077 N 
HETATM   39  H   UNL     1      44.345 -13.397   9.402  1.00  0.00     0.274 HD
HETATM   40  H   UNL     1      45.314 -12.242   8.755  1.00  0.00     0.274 HD
HETATM   41  H   UNL     1      43.695 -12.238   8.394  1.00  0.00     0.274 HD
ENDBRANCH  37  38
ENDBRANCH   1  37
TORSDOF 11
ENDMDL
MODEL 7
REMARK VINA RESULT:      -7.6      4.280      8.507
REMARK  11 active torsions:
REMARK  status: ('A' for Active; 'I' for Inactive)
REMARK    1  A    between atoms: C_2  and  O_3 
REMARK    2  A    between atoms: C_2  and  C_4 
REMARK    3  A    between atoms: C_8  and  C_9 
REMARK    4  A    between atoms: C_12  and  C_13 
REMARK    5  A    between atoms: C_13  and  C_14 
REMARK    6  A    between atoms: C_14  and  N_15 
REMARK    7  A    between atoms: C_14  and  C_29 
REMARK       I    between atoms: N_15  and  C_16 
REMARK    8  A    between atoms: C_16  and  C_17 
REMARK    9  A    between atoms: C_21  and  O_22 
REMARK   10  A    between atoms: O_22  and  C_23 
REMARK   11  A    between atoms: C_29  and  N_30 
ROOT
HETATM    1  C   UNL     1      39.682 -10.553   5.088  1.00  0.00     0.114 C 
ENDROOT
BRANCH   1   2
HETATM    2  C   UNL     1      38.762 -11.798   4.982  1.00  0.00     0.065 C 
BRANCH   2   3
HETATM    3  C   UNL     1      39.503 -13.093   4.743  1.00  0.00    -0.056 A 
HETATM    4  C   UNL     1      40.250 -13.701   5.761  1.00  0.00     0.008 A 
HETATM    5  C   UNL     1      40.998 -14.858   5.510  1.00  0.00     0.014 A 
HETATM    6  C   UNL     1      41.040 -15.420   4.229  1.00  0.00    -0.006 A 
HETATM    7  C   UNL     1      40.298 -14.806   3.211  1.00  0.00     0.014 A 
HETATM    8  C   UNL     1      39.541 -13.657   3.461  1.00  0.00     0.008 A 
BRANCH   6   9
HETATM    9  C   UNL     1      41.851 -16.591   3.921  1.00  0.00     0.085 A 
HETATM   10  C   UNL     1      41.946 -17.232   2.704  1.00  0.00     0.130 A 
HETATM   11  N   UNL     1      42.793 -18.293   2.906  1.00  0.00    -0.315 N 
HETATM   12  C   UNL     1      43.183 -18.252   4.238  1.00  0.00     0.143 A 
HETATM   13  C   UNL     1      43.215 -19.261   2.003  1.00  0.00     0.098 A 
HETATM   14  C   UNL     1      44.078 -19.279   4.715  1.00  0.00     0.017 A 
HETATM   15  N   UNL     1      42.631 -17.229   4.862  1.00  0.00    -0.228 NA
HETATM   16  C   UNL     1      44.486 -20.210   3.815  1.00  0.00     0.015 A 
HETATM   17  C   UNL     1      44.052 -20.220   2.427  1.00  0.00     0.018 A 
BRANCH  14  18
HETATM   18  C   UNL     1      44.557 -19.302   6.158  1.00  0.00     0.150 C 
HETATM   19  C   UNL     1      45.465 -18.116   6.469  1.00  0.00     0.044 C 
BRANCH  18  20
HETATM   20  O   UNL     1      43.454 -19.276   7.067  1.00  0.00    -0.391 OA
HETATM   21  H   UNL     1      43.482 -20.107   7.571  1.00  0.00     0.210 HD
ENDBRANCH  18  20
ENDBRANCH  14  18
ENDBRANCH   6   9
ENDBRANCH   2   3
ENDBRANCH   1   2
BRANCH   1  22
HETATM   22  N   UNL     1      40.246 -10.478   6.454  1.00  0.00    -0.350 N 
HETATM   23  C   UNL     1      39.596  -9.897   7.521  1.00  0.00     0.252 C 
HETATM   24  O   UNL     1      38.580  -9.222   7.371  1.00  0.00    -0.268 OA
HETATM   25  H   UNL     1      40.907 -11.210   6.705  1.00  0.00     0.163 HD
BRANCH  23  26
HETATM   26  C   UNL     1      40.173 -10.138   8.868  1.00  0.00     0.033 A 
HETATM   27  C   UNL     1      41.540 -10.409   8.969  1.00  0.00     0.043 A 
HETATM   28  C   UNL     1      42.109 -10.638  10.224  1.00  0.00     0.068 A 
HETATM   29 CL   UNL     1      43.806 -10.951  10.298  1.00  0.00    -0.081 Cl
HETATM   30  C   UNL     1      41.318 -10.629  11.383  1.00  0.00     0.091 A 
HETATM   31  C   UNL     1      39.954 -10.347  11.274  1.00  0.00     0.039 A 
HETATM   32  C   UNL     1      39.378 -10.111  10.020  1.00  0.00     0.020 A 
BRANCH  30  33
HETATM   33  O   UNL     1      41.941 -10.839  12.582  1.00  0.00    -0.345 OA
BRANCH  33  34
HETATM   34  C   UNL     1      42.072  -9.720  13.470  1.00  0.00     0.121 C 
HETATM   35  C   UNL     1      41.539 -10.060  14.861  1.00  0.00     0.040 C 
HETATM   36  C   UNL     1      43.562  -9.398  13.548  1.00  0.00     0.040 C 
ENDBRANCH  33  34
ENDBRANCH  30  33
ENDBRANCH  23  26
ENDBRANCH   1  22
BRANCH   1  37
HETATM   37  C   UNL     1      40.759 -10.611   3.967  1.00  0.00     0.254 C 
BRANCH  37  38
HETATM   38  N   UNL     1      41.652  -9.423   3.996  1.00  0.00    -0.077 N 
HETATM   39  H   UNL     1      42.547  -9.608   4.463  1.00  0.00     0.274 HD
HETATM   40  H   UNL     1      41.909  -9.151   3.022  1.00  0.00     0.274 HD
HETATM   41  H   UNL     1      41.217  -8.601   4.427  1.00  0.00     0.274 HD
ENDBRANCH  37  38
ENDBRANCH   1  37
TORSDOF 11
ENDMDL
MODEL 8
REMARK VINA RESULT:      -7.5      2.973      8.531
REMARK  11 active torsions:
REMARK  status: ('A' for Active; 'I' for Inactive)
REMARK    1  A    between atoms: C_2  and  O_3 
REMARK    2  A    between atoms: C_2  and  C_4 
REMARK    3  A    between atoms: C_8  and  C_9 
REMARK    4  A    between atoms: C_12  and  C_13 
REMARK    5  A    between atoms: C_13  and  C_14 
REMARK    6  A    between atoms: C_14  and  N_15 
REMARK    7  A    between atoms: C_14  and  C_29 
REMARK       I    between atoms: N_15  and  C_16 
REMARK    8  A    between atoms: C_16  and  C_17 
REMARK    9  A    between atoms: C_21  and  O_22 
REMARK   10  A    between atoms: O_22  and  C_23 
REMARK   11  A    between atoms: C_29  and  N_30 
ROOT
HETATM    1  C   UNL     1      41.357 -11.428   4.437  1.00  0.00     0.114 C 
ENDROOT
BRANCH   1   2
HETATM    2  C   UNL     1      40.659 -12.343   5.477  1.00  0.00     0.065 C 
BRANCH   2   3
HETATM    3  C   UNL     1      41.247 -13.732   5.567  1.00  0.00    -0.056 A 
HETATM    4  C   UNL     1      42.626 -13.928   5.720  1.00  0.00     0.008 A 
HETATM    5  C   UNL     1      43.172 -15.217   5.724  1.00  0.00     0.014 A 
HETATM    6  C   UNL     1      42.357 -16.342   5.548  1.00  0.00    -0.006 A 
HETATM    7  C   UNL     1      40.979 -16.142   5.390  1.00  0.00     0.014 A 
HETATM    8  C   UNL     1      40.429 -14.856   5.396  1.00  0.00     0.008 A 
BRANCH   6   9
HETATM    9  C   UNL     1      42.899 -17.693   5.492  1.00  0.00     0.085 A 
HETATM   10  C   UNL     1      43.108 -18.542   6.558  1.00  0.00     0.130 A 
HETATM   11  N   UNL     1      43.663 -19.679   6.026  1.00  0.00    -0.315 N 
HETATM   12  C   UNL     1      43.765 -19.477   4.656  1.00  0.00     0.143 A 
HETATM   13  C   UNL     1      44.073 -20.839   6.671  1.00  0.00     0.098 A 
HETATM   14  C   UNL     1      44.335 -20.533   3.854  1.00  0.00     0.017 A 
HETATM   15  N   UNL     1      43.303 -18.289   4.317  1.00  0.00    -0.228 NA
HETATM   16  C   UNL     1      44.720 -21.663   4.502  1.00  0.00     0.015 A 
HETATM   17  C   UNL     1      44.599 -21.835   5.942  1.00  0.00     0.018 A 
BRANCH  14  18
HETATM   18  C   UNL     1      44.475 -20.393   2.346  1.00  0.00     0.150 C 
HETATM   19  C   UNL     1      44.369 -21.743   1.643  1.00  0.00     0.044 C 
BRANCH  18  20
HETATM   20  O   UNL     1      43.470 -19.527   1.815  1.00  0.00    -0.391 OA
HETATM   21  H   UNL     1      42.748 -20.093   1.495  1.00  0.00     0.210 HD
ENDBRANCH  18  20
ENDBRANCH  14  18
ENDBRANCH   6   9
ENDBRANCH   2   3
ENDBRANCH   1   2
BRANCH   1  22
HETATM   22  N   UNL     1      40.913 -11.807   3.077  1.00  0.00    -0.350 N 
HETATM   23  C   UNL     1      41.648 -12.603   2.225  1.00  0.00     0.252 C 
HETATM   24  O   UNL     1      42.818 -12.895   2.459  1.00  0.00    -0.268 OA
HETATM   25  H   UNL     1      39.907 -11.839   2.928  1.00  0.00     0.163 HD
BRANCH  23  26
HETATM   26  C   UNL     1      40.953 -13.106   1.013  1.00  0.00     0.033 A 
HETATM   27  C   UNL     1      41.653 -13.128  -0.197  1.00  0.00     0.043 A 
HETATM   28  C   UNL     1      41.023 -13.598  -1.352  1.00  0.00     0.068 A 
HETATM   29 CL   UNL     1      41.936 -13.622  -2.818  1.00  0.00    -0.081 Cl
HETATM   30  C   UNL     1      39.686 -14.020  -1.318  1.00  0.00     0.091 A 
HETATM   31  C   UNL     1      38.997 -14.005  -0.103  1.00  0.00     0.039 A 
HETATM   32  C   UNL     1      39.623 -13.541   1.059  1.00  0.00     0.020 A 
BRANCH  30  33
HETATM   33  O   UNL     1      39.136 -14.490  -2.480  1.00  0.00    -0.345 OA
BRANCH  33  34
HETATM   34  C   UNL     1      37.798 -14.079  -2.796  1.00  0.00     0.121 C 
HETATM   35  C   UNL     1      37.790 -12.693  -3.441  1.00  0.00     0.040 C 
HETATM   36  C   UNL     1      37.246 -15.111  -3.776  1.00  0.00     0.040 C 
ENDBRANCH  33  34
ENDBRANCH  30  33
ENDBRANCH  23  26
ENDBRANCH   1  22
BRANCH   1  37
HETATM   37  C   UNL     1      41.082  -9.938   4.792  1.00  0.00     0.254 C 
BRANCH  37  38
HETATM   38  N   UNL     1      39.822  -9.777   5.564  1.00  0.00    -0.077 N 
HETATM   39  H   UNL     1      39.890 -10.145   6.520  1.00  0.00     0.274 HD
HETATM   40  H   UNL     1      39.607  -8.763   5.682  1.00  0.00     0.274 HD
HETATM   41  H   UNL     1      39.009 -10.199   5.104  1.00  0.00     0.274 HD
ENDBRANCH  37  38
ENDBRANCH   1  37
TORSDOF 11
ENDMDL
MODEL 9
REMARK VINA RESULT:      -7.3      2.979      6.310
REMARK  11 active torsions:
REMARK  status: ('A' for Active; 'I' for Inactive)
REMARK    1  A    between atoms: C_2  and  O_3 
REMARK    2  A    between atoms: C_2  and  C_4 
REMARK    3  A    between atoms: C_8  and  C_9 
REMARK    4  A    between atoms: C_12  and  C_13 
REMARK    5  A    between atoms: C_13  and  C_14 
REMARK    6  A    between atoms: C_14  and  N_15 
REMARK    7  A    between atoms: C_14  and  C_29 
REMARK       I    between atoms: N_15  and  C_16 
REMARK    8  A    between atoms: C_16  and  C_17 
REMARK    9  A    between atoms: C_21  and  O_22 
REMARK   10  A    between atoms: O_22  and  C_23 
REMARK   11  A    between atoms: C_29  and  N_30 
ROOT
HETATM    1  C   UNL     1      41.550 -14.190   6.010  1.00  0.00     0.114 C 
ENDROOT
BRANCH   1   2
HETATM    2  C   UNL     1      40.057 -14.310   5.604  1.00  0.00     0.065 C 
BRANCH   2   3
HETATM    3  C   UNL     1      39.756 -13.811   4.210  1.00  0.00    -0.056 A 
HETATM    4  C   UNL     1      39.236 -12.527   3.995  1.00  0.00     0.008 A 
HETATM    5  C   UNL     1      38.886 -12.100   2.709  1.00  0.00     0.014 A 
HETATM    6  C   UNL     1      39.021 -12.955   1.608  1.00  0.00    -0.006 A 
HETATM    7  C   UNL     1      39.535 -14.240   1.827  1.00  0.00     0.014 A 
HETATM    8  C   UNL     1      39.896 -14.666   3.110  1.00  0.00     0.008 A 
BRANCH   6   9
HETATM    9  C   UNL     1      38.614 -12.562   0.266  1.00  0.00     0.085 A 
HETATM   10  C   UNL     1      38.217 -11.305  -0.141  1.00  0.00     0.130 A 
HETATM   11  N   UNL     1      37.898 -11.427  -1.470  1.00  0.00    -0.315 N 
HETATM   12  C   UNL     1      38.118 -12.753  -1.821  1.00  0.00     0.143 A 
HETATM   13  C   UNL     1      37.433 -10.459  -2.352  1.00  0.00     0.098 A 
HETATM   14  C   UNL     1      37.845 -13.151  -3.180  1.00  0.00     0.017 A 
HETATM   15  N   UNL     1      38.557 -13.448  -0.788  1.00  0.00    -0.228 NA
HETATM   16  C   UNL     1      37.401 -12.188  -4.029  1.00  0.00     0.015 A 
HETATM   17  C   UNL     1      37.180 -10.809  -3.623  1.00  0.00     0.018 A 
BRANCH  14  18
HETATM   18  C   UNL     1      38.066 -14.582  -3.645  1.00  0.00     0.150 C 
HETATM   19  C   UNL     1      39.549 -14.933  -3.702  1.00  0.00     0.044 C 
BRANCH  18  20
HETATM   20  O   UNL     1      37.415 -15.511  -2.775  1.00  0.00    -0.391 OA
HETATM   21  H   UNL     1      37.240 -15.043  -1.941  1.00  0.00     0.210 HD
ENDBRANCH  18  20
ENDBRANCH  14  18
ENDBRANCH   6   9
ENDBRANCH   2   3
ENDBRANCH   1   2
BRANCH   1  22
HETATM   22  N   UNL     1      42.326 -15.258   5.340  1.00  0.00    -0.350 N 
HETATM   23  C   UNL     1      43.202 -16.095   5.996  1.00  0.00     0.252 C 
HETATM   24  O   UNL     1      43.552 -15.887   7.155  1.00  0.00    -0.268 OA
HETATM   25  H   UNL     1      41.910 -15.651   4.498  1.00  0.00     0.163 HD
BRANCH  23  26
HETATM   26  C   UNL     1      43.694 -17.274   5.239  1.00  0.00     0.033 A 
HETATM   27  C   UNL     1      43.476 -17.320   3.860  1.00  0.00     0.043 A 
HETATM   28  C   UNL     1      43.929 -18.418   3.123  1.00  0.00     0.068 A 
HETATM   29 CL   UNL     1      43.649 -18.418   1.419  1.00  0.00    -0.081 Cl
HETATM   30  C   UNL     1      44.576 -19.489   3.757  1.00  0.00     0.091 A 
HETATM   31  C   UNL     1      44.800 -19.430   5.135  1.00  0.00     0.039 A 
HETATM   32  C   UNL     1      44.353 -18.332   5.878  1.00  0.00     0.020 A 
BRANCH  30  33
HETATM   33  O   UNL     1      45.014 -20.522   2.975  1.00  0.00    -0.345 OA
BRANCH  33  34
HETATM   34  C   UNL     1      44.138 -21.646   2.804  1.00  0.00     0.121 C 
HETATM   35  C   UNL     1      44.091 -22.083   1.340  1.00  0.00     0.040 C 
HETATM   36  C   UNL     1      44.703 -22.772   3.665  1.00  0.00     0.040 C 
ENDBRANCH  33  34
ENDBRANCH  30  33
ENDBRANCH  23  26
ENDBRANCH   1  22
BRANCH   1  37
HETATM   37  C   UNL     1      42.058 -12.755   5.692  1.00  0.00     0.254 C 
BRANCH  37  38
HETATM   38  N   UNL     1      41.723 -11.796   6.778  1.00  0.00    -0.077 N 
HETATM   39  H   UNL     1      41.814 -12.206   7.713  1.00  0.00     0.274 HD
HETATM   40  H   UNL     1      42.399 -11.001   6.767  1.00  0.00     0.274 HD
HETATM   41  H   UNL     1      40.787 -11.389   6.683  1.00  0.00     0.274 HD
ENDBRANCH  37  38
ENDBRANCH   1  37
TORSDOF 11
ENDMDL
MODEL 10
REMARK VINA RESULT:      -7.2      3.920      8.628
REMARK  11 active torsions:
REMARK  status: ('A' for Active; 'I' for Inactive)
REMARK    1  A    between atoms: C_2  and  O_3 
REMARK    2  A    between atoms: C_2  and  C_4 
REMARK    3  A    between atoms: C_8  and  C_9 
REMARK    4  A    between atoms: C_12  and  C_13 
REMARK    5  A    between atoms: C_13  and  C_14 
REMARK    6  A    between atoms: C_14  and  N_15 
REMARK    7  A    between atoms: C_14  and  C_29 
REMARK       I    between atoms: N_15  and  C_16 
REMARK    8  A    between atoms: C_16  and  C_17 
REMARK    9  A    between atoms: C_21  and  O_22 
REMARK   10  A    between atoms: O_22  and  C_23 
REMARK   11  A    between atoms: C_29  and  N_30 
ROOT
HETATM    1  C   UNL     1      38.803 -13.862  -1.739  1.00  0.00     0.114 C 
ENDROOT
BRANCH   1   2
HETATM    2  C   UNL     1      40.286 -13.464  -1.515  1.00  0.00     0.065 C 
BRANCH   2   3
HETATM    3  C   UNL     1      41.025 -14.362  -0.550  1.00  0.00    -0.056 A 
HETATM    4  C   UNL     1      41.130 -15.741  -0.776  1.00  0.00     0.008 A 
HETATM    5  C   UNL     1      41.747 -16.578   0.161  1.00  0.00     0.014 A 
HETATM    6  C   UNL     1      42.252 -16.061   1.360  1.00  0.00    -0.006 A 
HETATM    7  C   UNL     1      42.140 -14.683   1.586  1.00  0.00     0.014 A 
HETATM    8  C   UNL     1      41.533 -13.843   0.647  1.00  0.00     0.008 A 
BRANCH   6   9
HETATM    9  C   UNL     1      42.851 -16.912   2.380  1.00  0.00     0.085 A 
HETATM   10  C   UNL     1      43.134 -16.561   3.684  1.00  0.00     0.130 A 
HETATM   11  N   UNL     1      43.720 -17.667   4.249  1.00  0.00    -0.315 N 
HETATM   12  C   UNL     1      43.765 -18.648   3.267  1.00  0.00     0.143 A 
HETATM   13  C   UNL     1      44.202 -17.839   5.540  1.00  0.00     0.098 A 
HETATM   14  C   UNL     1      44.351 -19.921   3.605  1.00  0.00     0.017 A 
HETATM   15  N   UNL     1      43.239 -18.212   2.138  1.00  0.00    -0.228 NA
HETATM   16  C   UNL     1      44.809 -20.073   4.875  1.00  0.00     0.015 A 
HETATM   17  C   UNL     1      44.746 -19.019   5.876  1.00  0.00     0.018 A 
BRANCH  14  18
HETATM   18  C   UNL     1      44.433 -21.050   2.590  1.00  0.00     0.150 C 
HETATM   19  C   UNL     1      44.553 -22.411   3.268  1.00  0.00     0.044 C 
BRANCH  18  20
HETATM   20  O   UNL     1      43.279 -21.066   1.746  1.00  0.00    -0.391 OA
HETATM   21  H   UNL     1      43.371 -20.322   1.126  1.00  0.00     0.210 HD
ENDBRANCH  18  20
ENDBRANCH  14  18
ENDBRANCH   6   9
ENDBRANCH   2   3
ENDBRANCH   1   2
BRANCH   1  22
HETATM   22  N   UNL     1      37.927 -12.885  -1.055  1.00  0.00    -0.350 N 
HETATM   23  C   UNL     1      37.516 -13.010   0.254  1.00  0.00     0.252 C 
HETATM   24  O   UNL     1      37.689 -14.046   0.892  1.00  0.00    -0.268 OA
HETATM   25  H   UNL     1      37.971 -11.928  -1.398  1.00  0.00     0.163 HD
BRANCH  23  26
HETATM   26  C   UNL     1      36.867 -11.824   0.868  1.00  0.00     0.033 A 
HETATM   27  C   UNL     1      37.566 -11.113   1.848  1.00  0.00     0.043 A 
HETATM   28  C   UNL     1      36.979  -9.992   2.441  1.00  0.00     0.068 A 
HETATM   29 CL   UNL     1      37.891  -9.138   3.633  1.00  0.00    -0.081 Cl
HETATM   30  C   UNL     1      35.684  -9.589   2.085  1.00  0.00     0.091 A 
HETATM   31  C   UNL     1      34.996 -10.299   1.098  1.00  0.00     0.039 A 
HETATM   32  C   UNL     1      35.579 -11.419   0.496  1.00  0.00     0.020 A 
BRANCH  30  33
HETATM   33  O   UNL     1      35.176  -8.470   2.688  1.00  0.00    -0.345 OA
BRANCH  33  34
HETATM   34  C   UNL     1      34.215  -8.657   3.737  1.00  0.00     0.121 C 
HETATM   35  C   UNL     1      34.686  -7.998   5.033  1.00  0.00     0.040 C 
HETATM   36  C   UNL     1      32.920  -8.002   3.262  1.00  0.00     0.040 C 
ENDBRANCH  33  34
ENDBRANCH  30  33
ENDBRANCH  23  26
ENDBRANCH   1  22
BRANCH   1  37
HETATM   37  C   UNL     1      38.528 -13.988  -3.265  1.00  0.00     0.254 C 
BRANCH  37  38
HETATM   38  N   UNL     1      39.445 -14.961  -3.915  1.00  0.00    -0.077 N 
HETATM   39  H   UNL     1      39.493 -14.845  -4.933  1.00  0.00     0.274 HD
HETATM   40  H   UNL     1      40.420 -14.805  -3.580  1.00  0.00     0.274 HD
HETATM   41  H   UNL     1      39.213 -15.937  -3.703  1.00  0.00     0.274 HD
ENDBRANCH  37  38
ENDBRANCH   1  37
TORSDOF 11
ENDMDL
