MODEL 1
REMARK VINA RESULT:      -8.5      0.000      0.000
REMARK  10 active torsions:
REMARK  status: ('A' for Active; 'I' for Inactive)
REMARK    1  A    between atoms: O_2  and  C_3 
REMARK    2  A    between atoms: C_3  and  C_4 
REMARK    3  A    between atoms: C_8  and  N_9 
REMARK       I    between atoms: N_9  and  C_10 
REMARK    4  A    between atoms: C_10  and  C_11 
REMARK    5  A    between atoms: C_12  and  C_13 
REMARK    6  A    between atoms: C_22  and  C_23 
REMARK    7  A    between atoms: C_23  and  N_24 
REMARK    8  A    between atoms: C_26  and  C_27 
REMARK    9  A    between atoms: C_27  and  C_28 
REMARK   10  A    between atoms: C_28  and  O_29 
ROOT
HETATM    1  C   UNL     1      43.534 -16.277   6.236  1.00  0.00     0.110 C 
HETATM    2  S   UNL     1      43.325 -17.037   4.716  1.00  0.00    -0.061 SA
HETATM    3  C   UNL     1      42.914 -15.577   3.957  1.00  0.00     0.111 A 
HETATM    4  C   UNL     1      42.904 -14.498   4.836  1.00  0.00     0.028 A 
HETATM    5  C   UNL     1      43.370 -14.895   6.150  1.00  0.00     0.071 C 
HETATM    6  N   UNL     1      42.609 -15.563   2.637  1.00  0.00    -0.243 NA
HETATM    7  C   UNL     1      42.224 -14.352   2.165  1.00  0.00     0.061 A 
HETATM    8  C   UNL     1      42.110 -13.209   2.940  1.00  0.00     0.030 A 
HETATM    9  C   UNL     1      42.434 -13.282   4.290  1.00  0.00     0.019 A 
ENDROOT
BRANCH   5  10
HETATM   10  N   UNL     1      43.611 -14.084   7.271  1.00  0.00    -0.321 N 
HETATM   11  C   UNL     1      44.791 -13.431   7.553  1.00  0.00     0.245 C 
HETATM   12  O   UNL     1      45.831 -13.505   6.910  1.00  0.00    -0.268 OA
HETATM   13  H   UNL     1      42.929 -14.164   8.026  1.00  0.00     0.169 HD
BRANCH  11  14
HETATM   14  C   UNL     1      44.718 -12.628   8.807  1.00  0.00     0.075 C 
HETATM   15  C   UNL     1      43.744 -11.712   8.931  1.00  0.00     0.017 C 
BRANCH  15  16
HETATM   16  C   UNL     1      43.500 -10.831  10.087  1.00  0.00    -0.036 A 
HETATM   17  C   UNL     1      44.278 -10.849  11.254  1.00  0.00     0.014 A 
HETATM   18  C   UNL     1      43.976  -9.997  12.323  1.00  0.00     0.043 A 
HETATM   19  C   UNL     1      42.894  -9.132  12.231  1.00  0.00     0.116 A 
HETATM   20  F   UNL     1      42.606  -8.322  13.258  1.00  0.00    -0.206 F 
HETATM   21  C   UNL     1      42.105  -9.101  11.091  1.00  0.00     0.043 A 
HETATM   22  C   UNL     1      42.407  -9.949  10.023  1.00  0.00     0.014 A 
ENDBRANCH  15  16
ENDBRANCH  11  14
ENDBRANCH   5  10
BRANCH   1  23
HETATM   23  C   UNL     1      43.890 -17.029   7.431  1.00  0.00     0.302 C 
HETATM   24  O   UNL     1      43.617 -16.660   8.569  1.00  0.00    -0.259 OA
BRANCH  23  25
HETATM   25  O   UNL     1      44.539 -18.190   7.136  1.00  0.00    -0.322 OA
HETATM   26  C   UNL     1      43.892 -19.368   7.623  1.00  0.00     0.213 C 
ENDBRANCH  23  25
ENDBRANCH   1  23
BRANCH   7  27
HETATM   27  C   UNL     1      41.967 -14.255   0.676  1.00  0.00     0.294 C 
BRANCH  27  28
HETATM   28  N   UNL     1      40.575 -13.759   0.298  1.00  0.00    -0.061 N 
HETATM   29  H   UNL     1      40.555 -12.820   0.729  1.00  0.00     0.280 HD
HETATM   30  C   UNL     1      40.354 -13.500  -1.197  1.00  0.00     0.190 C 
HETATM   31  C   UNL     1      38.956 -12.884  -1.359  1.00  0.00     0.033 C 
HETATM   32  C   UNL     1      37.857 -13.745  -0.748  1.00  0.00     0.004 C 
HETATM   33  C   UNL     1      38.136 -13.999   0.726  1.00  0.00     0.028 C 
HETATM   34  C   UNL     1      39.511 -14.603   0.953  1.00  0.00     0.235 C 
BRANCH  30  35
HETATM   35  C   UNL     1      40.600 -14.764  -2.030  1.00  0.00     0.059 C 
BRANCH  35  36
HETATM   36  C   UNL     1      41.059 -14.473  -3.455  1.00  0.00     0.166 C 
BRANCH  36  37
HETATM   37  O   UNL     1      42.343 -15.054  -3.616  1.00  0.00    -0.401 OA
HETATM   38  H   UNL     1      42.220 -15.991  -3.859  1.00  0.00     0.209 HD
ENDBRANCH  36  37
ENDBRANCH  35  36
ENDBRANCH  30  35
ENDBRANCH  27  28
ENDBRANCH   7  27
TORSDOF 10
ENDMDL
MODEL 2
REMARK VINA RESULT:      -8.4      4.613     10.131
REMARK  10 active torsions:
REMARK  status: ('A' for Active; 'I' for Inactive)
REMARK    1  A    between atoms: O_2  and  C_3 
REMARK    2  A    between atoms: C_3  and  C_4 
REMARK    3  A    between atoms: C_8  and  N_9 
REMARK       I    between atoms: N_9  and  C_10 
REMARK    4  A    between atoms: C_10  and  C_11 
REMARK    5  A    between atoms: C_12  and  C_13 
REMARK    6  A    between atoms: C_22  and  C_23 
REMARK    7  A    between atoms: C_23  and  N_24 
REMARK    8  A    between atoms: C_26  and  C_27 
REMARK    9  A    between atoms: C_27  and  C_28 
REMARK   10  A    between atoms: C_28  and  O_29 
ROOT
HETATM    1  C   UNL     1      39.822 -13.522   3.274  1.00  0.00     0.110 C 
HETATM    2  S   UNL     1      39.147 -12.075   3.893  1.00  0.00    -0.061 SA
HETATM    3  C   UNL     1      40.362 -11.922   5.066  1.00  0.00     0.111 A 
HETATM    4  C   UNL     1      41.282 -12.966   5.029  1.00  0.00     0.028 A 
HETATM    5  C   UNL     1      41.020 -13.847   3.908  1.00  0.00     0.071 C 
HETATM    6  N   UNL     1      40.341 -10.878   5.930  1.00  0.00    -0.243 NA
HETATM    7  C   UNL     1      41.319 -10.908   6.868  1.00  0.00     0.061 A 
HETATM    8  C   UNL     1      42.261 -11.917   6.985  1.00  0.00     0.030 A 
HETATM    9  C   UNL     1      42.235 -12.965   6.072  1.00  0.00     0.019 A 
ENDROOT
BRANCH   5  10
HETATM   10  N   UNL     1      41.781 -14.940   3.463  1.00  0.00    -0.321 N 
HETATM   11  C   UNL     1      43.099 -14.894   3.064  1.00  0.00     0.245 C 
HETATM   12  O   UNL     1      43.794 -13.889   2.974  1.00  0.00    -0.268 OA
HETATM   13  H   UNL     1      41.249 -15.777   3.222  1.00  0.00     0.169 HD
BRANCH  11  14
HETATM   14  C   UNL     1      43.628 -16.232   2.673  1.00  0.00     0.075 C 
HETATM   15  C   UNL     1      43.208 -17.315   3.347  1.00  0.00     0.017 C 
BRANCH  15  16
HETATM   16  C   UNL     1      43.605 -18.714   3.108  1.00  0.00    -0.036 A 
HETATM   17  C   UNL     1      43.200 -19.455   1.988  1.00  0.00     0.014 A 
HETATM   18  C   UNL     1      43.599 -20.788   1.835  1.00  0.00     0.043 A 
HETATM   19  C   UNL     1      44.396 -21.385   2.803  1.00  0.00     0.116 A 
HETATM   20  F   UNL     1      44.771 -22.662   2.655  1.00  0.00    -0.206 F 
HETATM   21  C   UNL     1      44.803 -20.676   3.923  1.00  0.00     0.043 A 
HETATM   22  C   UNL     1      44.407 -19.344   4.075  1.00  0.00     0.014 A 
ENDBRANCH  15  16
ENDBRANCH  11  14
ENDBRANCH   5  10
BRANCH   1  23
HETATM   23  C   UNL     1      39.201 -14.255   2.180  1.00  0.00     0.302 C 
HETATM   24  O   UNL     1      39.281 -15.472   2.050  1.00  0.00    -0.259 OA
BRANCH  23  25
HETATM   25  O   UNL     1      38.511 -13.437   1.336  1.00  0.00    -0.322 OA
HETATM   26  C   UNL     1      37.361 -14.041   0.738  1.00  0.00     0.213 C 
ENDBRANCH  23  25
ENDBRANCH   1  23
BRANCH   7  27
HETATM   27  C   UNL     1      41.404  -9.716   7.797  1.00  0.00     0.294 C 
BRANCH  27  28
HETATM   28  N   UNL     1      40.627  -9.865   9.102  1.00  0.00    -0.061 N 
HETATM   29  H   UNL     1      39.831 -10.457   8.813  1.00  0.00     0.280 HD
HETATM   30  C   UNL     1      41.331 -10.675  10.197  1.00  0.00     0.190 C 
HETATM   31  C   UNL     1      40.346 -10.828  11.366  1.00  0.00     0.033 C 
HETATM   32  C   UNL     1      39.823  -9.489  11.876  1.00  0.00     0.004 C 
HETATM   33  C   UNL     1      39.161  -8.711  10.748  1.00  0.00     0.028 C 
HETATM   34  C   UNL     1      40.085  -8.533   9.556  1.00  0.00     0.235 C 
BRANCH  30  35
HETATM   35  C   UNL     1      42.684 -10.058  10.572  1.00  0.00     0.059 C 
BRANCH  35  36
HETATM   36  C   UNL     1      43.873 -10.953  10.238  1.00  0.00     0.166 C 
BRANCH  36  37
HETATM   37  O   UNL     1      43.499 -12.287  10.538  1.00  0.00    -0.401 OA
HETATM   38  H   UNL     1      42.816 -12.258  11.234  1.00  0.00     0.209 HD
ENDBRANCH  36  37
ENDBRANCH  35  36
ENDBRANCH  30  35
ENDBRANCH  27  28
ENDBRANCH   7  27
TORSDOF 10
ENDMDL
MODEL 3
REMARK VINA RESULT:      -8.0      1.715      2.433
REMARK  10 active torsions:
REMARK  status: ('A' for Active; 'I' for Inactive)
REMARK    1  A    between atoms: O_2  and  C_3 
REMARK    2  A    between atoms: C_3  and  C_4 
REMARK    3  A    between atoms: C_8  and  N_9 
REMARK       I    between atoms: N_9  and  C_10 
REMARK    4  A    between atoms: C_10  and  C_11 
REMARK    5  A    between atoms: C_12  and  C_13 
REMARK    6  A    between atoms: C_22  and  C_23 
REMARK    7  A    between atoms: C_23  and  N_24 
REMARK    8  A    between atoms: C_26  and  C_27 
REMARK    9  A    between atoms: C_27  and  C_28 
REMARK   10  A    between atoms: C_28  and  O_29 
ROOT
HETATM    1  C   UNL     1      43.008 -17.033   4.436  1.00  0.00     0.110 C 
HETATM    2  S   UNL     1      42.445 -17.547   2.903  1.00  0.00    -0.061 SA
HETATM    3  C   UNL     1      41.660 -16.072   2.613  1.00  0.00     0.111 A 
HETATM    4  C   UNL     1      41.787 -15.177   3.671  1.00  0.00     0.028 A 
HETATM    5  C   UNL     1      42.667 -15.707   4.695  1.00  0.00     0.071 C 
HETATM    6  N   UNL     1      40.975 -15.885   1.459  1.00  0.00    -0.243 NA
HETATM    7  C   UNL     1      40.327 -14.697   1.378  1.00  0.00     0.061 A 
HETATM    8  C   UNL     1      40.318 -13.740   2.381  1.00  0.00     0.030 A 
HETATM    9  C   UNL     1      41.037 -13.986   3.546  1.00  0.00     0.019 A 
ENDROOT
BRANCH   5  10
HETATM   10  N   UNL     1      43.135 -15.070   5.855  1.00  0.00    -0.321 N 
HETATM   11  C   UNL     1      44.095 -14.082   5.899  1.00  0.00     0.245 C 
HETATM   12  O   UNL     1      44.734 -13.649   4.948  1.00  0.00    -0.268 OA
HETATM   13  H   UNL     1      42.896 -15.528   6.735  1.00  0.00     0.169 HD
BRANCH  11  14
HETATM   14  C   UNL     1      44.353 -13.592   7.284  1.00  0.00     0.075 C 
HETATM   15  C   UNL     1      43.875 -12.390   7.643  1.00  0.00     0.017 C 
BRANCH  15  16
HETATM   16  C   UNL     1      44.015 -11.739   8.958  1.00  0.00    -0.036 A 
HETATM   17  C   UNL     1      45.097 -11.960   9.823  1.00  0.00     0.014 A 
HETATM   18  C   UNL     1      45.156 -11.324  11.067  1.00  0.00     0.043 A 
HETATM   19  C   UNL     1      44.130 -10.471  11.454  1.00  0.00     0.116 A 
HETATM   20  F   UNL     1      44.187  -9.867  12.648  1.00  0.00    -0.206 F 
HETATM   21  C   UNL     1      43.045 -10.242  10.621  1.00  0.00     0.043 A 
HETATM   22  C   UNL     1      42.988 -10.875   9.377  1.00  0.00     0.014 A 
ENDBRANCH  15  16
ENDBRANCH  11  14
ENDBRANCH   5  10
BRANCH   1  23
HETATM   23  C   UNL     1      43.790 -17.905   5.301  1.00  0.00     0.302 C 
HETATM   24  O   UNL     1      44.595 -17.491   6.130  1.00  0.00    -0.259 OA
BRANCH  23  25
HETATM   25  O   UNL     1      43.511 -19.222   5.094  1.00  0.00    -0.322 OA
HETATM   26  C   UNL     1      44.660 -20.072   5.068  1.00  0.00     0.213 C 
ENDBRANCH  23  25
ENDBRANCH   1  23
BRANCH   7  27
HETATM   27  C   UNL     1      39.629 -14.392   0.071  1.00  0.00     0.294 C 
BRANCH  27  28
HETATM   28  N   UNL     1      40.549 -13.927  -1.053  1.00  0.00    -0.061 N 
HETATM   29  H   UNL     1      41.485 -14.065  -0.638  1.00  0.00     0.280 HD
HETATM   30  C   UNL     1      40.552 -14.809  -2.308  1.00  0.00     0.190 C 
HETATM   31  C   UNL     1      41.628 -14.261  -3.258  1.00  0.00     0.033 C 
HETATM   32  C   UNL     1      41.431 -12.784  -3.583  1.00  0.00     0.004 C 
HETATM   33  C   UNL     1      41.406 -11.956  -2.307  1.00  0.00     0.028 C 
HETATM   34  C   UNL     1      40.363 -12.455  -1.322  1.00  0.00     0.235 C 
BRANCH  30  35
HETATM   35  C   UNL     1      39.150 -14.921  -2.920  1.00  0.00     0.059 C 
BRANCH  35  36
HETATM   36  C   UNL     1      39.085 -15.858  -4.122  1.00  0.00     0.166 C 
BRANCH  36  37
HETATM   37  O   UNL     1      38.922 -17.176  -3.625  1.00  0.00    -0.401 OA
HETATM   38  H   UNL     1      39.810 -17.553  -3.477  1.00  0.00     0.209 HD
ENDBRANCH  36  37
ENDBRANCH  35  36
ENDBRANCH  30  35
ENDBRANCH  27  28
ENDBRANCH   7  27
TORSDOF 10
ENDMDL
MODEL 4
REMARK VINA RESULT:      -7.9      3.924      5.895
REMARK  10 active torsions:
REMARK  status: ('A' for Active; 'I' for Inactive)
REMARK    1  A    between atoms: O_2  and  C_3 
REMARK    2  A    between atoms: C_3  and  C_4 
REMARK    3  A    between atoms: C_8  and  N_9 
REMARK       I    between atoms: N_9  and  C_10 
REMARK    4  A    between atoms: C_10  and  C_11 
REMARK    5  A    between atoms: C_12  and  C_13 
REMARK    6  A    between atoms: C_22  and  C_23 
REMARK    7  A    between atoms: C_23  and  N_24 
REMARK    8  A    between atoms: C_26  and  C_27 
REMARK    9  A    between atoms: C_27  and  C_28 
REMARK   10  A    between atoms: C_28  and  O_29 
ROOT
HETATM    1  C   UNL     1      40.019 -10.111   5.519  1.00  0.00     0.110 C 
HETATM    2  S   UNL     1      40.075 -10.578   3.872  1.00  0.00    -0.061 SA
HETATM    3  C   UNL     1      41.163 -11.839   4.189  1.00  0.00     0.111 A 
HETATM    4  C   UNL     1      41.521 -11.917   5.531  1.00  0.00     0.028 A 
HETATM    5  C   UNL     1      40.767 -10.967   6.325  1.00  0.00     0.071 C 
HETATM    6  N   UNL     1      41.610 -12.618   3.174  1.00  0.00    -0.243 NA
HETATM    7  C   UNL     1      42.533 -13.541   3.541  1.00  0.00     0.061 A 
HETATM    8  C   UNL     1      43.025 -13.687   4.829  1.00  0.00     0.030 A 
HETATM    9  C   UNL     1      42.532 -12.859   5.831  1.00  0.00     0.019 A 
ENDROOT
BRANCH   5  10
HETATM   10  N   UNL     1      40.755 -10.813   7.721  1.00  0.00    -0.321 N 
HETATM   11  C   UNL     1      39.823 -11.351   8.582  1.00  0.00     0.245 C 
HETATM   12  O   UNL     1      38.828 -11.991   8.265  1.00  0.00    -0.268 OA
HETATM   13  H   UNL     1      41.359 -10.076   8.087  1.00  0.00     0.169 HD
BRANCH  11  14
HETATM   14  C   UNL     1      40.105 -11.025  10.009  1.00  0.00     0.075 C 
HETATM   15  C   UNL     1      41.350 -10.658  10.355  1.00  0.00     0.017 C 
BRANCH  15  16
HETATM   16  C   UNL     1      41.822 -10.291  11.702  1.00  0.00    -0.036 A 
HETATM   17  C   UNL     1      43.086  -9.741  11.959  1.00  0.00     0.014 A 
HETATM   18  C   UNL     1      43.476  -9.436  13.268  1.00  0.00     0.043 A 
HETATM   19  C   UNL     1      42.606  -9.685  14.322  1.00  0.00     0.116 A 
HETATM   20  F   UNL     1      42.985  -9.394  15.574  1.00  0.00    -0.206 F 
HETATM   21  C   UNL     1      41.354 -10.234  14.095  1.00  0.00     0.043 A 
HETATM   22  C   UNL     1      40.964 -10.538  12.788  1.00  0.00     0.014 A 
ENDBRANCH  15  16
ENDBRANCH  11  14
ENDBRANCH   5  10
BRANCH   1  23
HETATM   23  C   UNL     1      39.226  -8.976   5.971  1.00  0.00     0.302 C 
HETATM   24  O   UNL     1      39.675  -8.073   6.671  1.00  0.00    -0.259 OA
BRANCH  23  25
HETATM   25  O   UNL     1      37.945  -9.026   5.512  1.00  0.00    -0.322 OA
HETATM   26  C   UNL     1      37.243  -7.783   5.587  1.00  0.00     0.213 C 
ENDBRANCH  23  25
ENDBRANCH   1  23
BRANCH   7  27
HETATM   27  C   UNL     1      42.994 -14.504   2.469  1.00  0.00     0.294 C 
BRANCH  27  28
HETATM   28  N   UNL     1      43.047 -15.966   2.902  1.00  0.00    -0.061 N 
HETATM   29  H   UNL     1      43.511 -15.902   3.822  1.00  0.00     0.280 HD
HETATM   30  C   UNL     1      41.688 -16.612   3.201  1.00  0.00     0.190 C 
HETATM   31  C   UNL     1      41.956 -18.023   3.745  1.00  0.00     0.033 C 
HETATM   32  C   UNL     1      42.809 -18.867   2.805  1.00  0.00     0.004 C 
HETATM   33  C   UNL     1      44.131 -18.171   2.516  1.00  0.00     0.028 C 
HETATM   34  C   UNL     1      43.932 -16.764   1.980  1.00  0.00     0.235 C 
BRANCH  30  35
HETATM   35  C   UNL     1      40.760 -16.559   1.981  1.00  0.00     0.059 C 
BRANCH  35  36
HETATM   36  C   UNL     1      39.656 -15.513   2.103  1.00  0.00     0.166 C 
BRANCH  36  37
HETATM   37  O   UNL     1      39.586 -15.126   3.465  1.00  0.00    -0.401 OA
HETATM   38  H   UNL     1      38.963 -14.378   3.534  1.00  0.00     0.209 HD
ENDBRANCH  36  37
ENDBRANCH  35  36
ENDBRANCH  30  35
ENDBRANCH  27  28
ENDBRANCH   7  27
TORSDOF 10
ENDMDL
MODEL 5
REMARK VINA RESULT:      -7.9      5.451      8.790
REMARK  10 active torsions:
REMARK  status: ('A' for Active; 'I' for Inactive)
REMARK    1  A    between atoms: O_2  and  C_3 
REMARK    2  A    between atoms: C_3  and  C_4 
REMARK    3  A    between atoms: C_8  and  N_9 
REMARK       I    between atoms: N_9  and  C_10 
REMARK    4  A    between atoms: C_10  and  C_11 
REMARK    5  A    between atoms: C_12  and  C_13 
REMARK    6  A    between atoms: C_22  and  C_23 
REMARK    7  A    between atoms: C_23  and  N_24 
REMARK    8  A    between atoms: C_26  and  C_27 
REMARK    9  A    between atoms: C_27  and  C_28 
REMARK   10  A    between atoms: C_28  and  O_29 
ROOT
HETATM    1  C   UNL     1      40.496 -13.740   4.034  1.00  0.00     0.110 C 
HETATM    2  S   UNL     1      39.654 -12.249   4.037  1.00  0.00    -0.061 SA
HETATM    3  C   UNL     1      38.750 -12.671   2.665  1.00  0.00     0.111 A 
HETATM    4  C   UNL     1      39.080 -13.928   2.168  1.00  0.00     0.028 A 
HETATM    5  C   UNL     1      40.032 -14.594   3.036  1.00  0.00     0.071 C 
HETATM    6  N   UNL     1      37.846 -11.799   2.156  1.00  0.00    -0.243 NA
HETATM    7  C   UNL     1      37.244 -12.219   1.016  1.00  0.00     0.061 A 
HETATM    8  C   UNL     1      37.522 -13.418   0.380  1.00  0.00     0.030 A 
HETATM    9  C   UNL     1      38.460 -14.274   0.946  1.00  0.00     0.019 A 
ENDROOT
BRANCH   5  10
HETATM   10  N   UNL     1      40.523 -15.907   2.944  1.00  0.00    -0.321 N 
HETATM   11  C   UNL     1      41.537 -16.330   2.113  1.00  0.00     0.245 C 
HETATM   12  O   UNL     1      42.126 -15.649   1.283  1.00  0.00    -0.268 OA
HETATM   13  H   UNL     1      39.937 -16.626   3.370  1.00  0.00     0.169 HD
BRANCH  11  14
HETATM   14  C   UNL     1      41.842 -17.781   2.272  1.00  0.00     0.075 C 
HETATM   15  C   UNL     1      43.114 -18.154   2.488  1.00  0.00     0.017 C 
BRANCH  15  16
HETATM   16  C   UNL     1      43.613 -19.528   2.678  1.00  0.00    -0.036 A 
HETATM   17  C   UNL     1      43.411 -20.562   1.752  1.00  0.00     0.014 A 
HETATM   18  C   UNL     1      43.895 -21.850   2.007  1.00  0.00     0.043 A 
HETATM   19  C   UNL     1      44.576 -22.109   3.191  1.00  0.00     0.116 A 
HETATM   20  F   UNL     1      45.033 -23.344   3.433  1.00  0.00    -0.206 F 
HETATM   21  C   UNL     1      44.781 -21.105   4.125  1.00  0.00     0.043 A 
HETATM   22  C   UNL     1      44.300 -19.819   3.869  1.00  0.00     0.014 A 
ENDBRANCH  15  16
ENDBRANCH  11  14
ENDBRANCH   5  10
BRANCH   1  23
HETATM   23  C   UNL     1      41.529 -14.042   5.015  1.00  0.00     0.302 C 
HETATM   24  O   UNL     1      41.414 -14.913   5.872  1.00  0.00    -0.259 OA
BRANCH  23  25
HETATM   25  O   UNL     1      42.635 -13.263   4.856  1.00  0.00    -0.322 OA
HETATM   26  C   UNL     1      43.579 -13.765   3.906  1.00  0.00     0.213 C 
ENDBRANCH  23  25
ENDBRANCH   1  23
BRANCH   7  27
HETATM   27  C   UNL     1      36.154 -11.330   0.458  1.00  0.00     0.294 C 
BRANCH  27  28
HETATM   28  N   UNL     1      35.251 -10.689   1.507  1.00  0.00    -0.061 N 
HETATM   29  H   UNL     1      35.307 -11.368   2.284  1.00  0.00     0.280 HD
HETATM   30  C   UNL     1      35.769  -9.376   2.106  1.00  0.00     0.190 C 
HETATM   31  C   UNL     1      34.801  -8.963   3.225  1.00  0.00     0.033 C 
HETATM   32  C   UNL     1      33.357  -8.857   2.748  1.00  0.00     0.004 C 
HETATM   33  C   UNL     1      32.900 -10.173   2.136  1.00  0.00     0.028 C 
HETATM   34  C   UNL     1      33.823 -10.639   1.024  1.00  0.00     0.235 C 
BRANCH  30  35
HETATM   35  C   UNL     1      35.991  -8.312   1.023  1.00  0.00     0.059 C 
BRANCH  35  36
HETATM   36  C   UNL     1      37.371  -7.666   1.080  1.00  0.00     0.166 C 
BRANCH  36  37
HETATM   37  O   UNL     1      38.322  -8.706   1.237  1.00  0.00    -0.401 OA
HETATM   38  H   UNL     1      38.055  -9.447   0.660  1.00  0.00     0.209 HD
ENDBRANCH  36  37
ENDBRANCH  35  36
ENDBRANCH  30  35
ENDBRANCH  27  28
ENDBRANCH   7  27
TORSDOF 10
ENDMDL
MODEL 6
REMARK VINA RESULT:      -7.9      2.220      3.125
REMARK  10 active torsions:
REMARK  status: ('A' for Active; 'I' for Inactive)
REMARK    1  A    between atoms: O_2  and  C_3 
REMARK    2  A    between atoms: C_3  and  C_4 
REMARK    3  A    between atoms: C_8  and  N_9 
REMARK       I    between atoms: N_9  and  C_10 
REMARK    4  A    between atoms: C_10  and  C_11 
REMARK    5  A    between atoms: C_12  and  C_13 
REMARK    6  A    between atoms: C_22  and  C_23 
REMARK    7  A    between atoms: C_23  and  N_24 
REMARK    8  A    between atoms: C_26  and  C_27 
REMARK    9  A    between atoms: C_27  and  C_28 
REMARK   10  A    between atoms: C_28  and  O_29 
ROOT
HETATM    1  C   UNL     1      43.179 -13.535   5.597  1.00  0.00     0.110 C 
HETATM    2  S   UNL     1      43.329 -13.948   3.942  1.00  0.00    -0.061 SA
HETATM    3  C   UNL     1      41.918 -13.103   3.525  1.00  0.00     0.111 A 
HETATM    4  C   UNL     1      41.297 -12.517   4.624  1.00  0.00     0.028 A 
HETATM    5  C   UNL     1      42.097 -12.686   5.822  1.00  0.00     0.071 C 
HETATM    6  N   UNL     1      41.496 -13.084   2.238  1.00  0.00    -0.243 NA
HETATM    7  C   UNL     1      40.317 -12.443   2.045  1.00  0.00     0.061 A 
HETATM    8  C   UNL     1      39.564 -11.869   3.056  1.00  0.00     0.030 A 
HETATM    9  C   UNL     1      40.044 -11.920   4.360  1.00  0.00     0.019 A 
ENDROOT
BRANCH   5  10
HETATM   10  N   UNL     1      41.875 -12.148   7.100  1.00  0.00    -0.321 N 
HETATM   11  C   UNL     1      41.816 -10.807   7.409  1.00  0.00     0.245 C 
HETATM   12  O   UNL     1      42.008  -9.876   6.637  1.00  0.00    -0.268 OA
HETATM   13  H   UNL     1      41.979 -12.803   7.876  1.00  0.00     0.169 HD
BRANCH  11  14
HETATM   14  C   UNL     1      41.539 -10.562   8.854  1.00  0.00     0.075 C 
HETATM   15  C   UNL     1      42.512 -10.806   9.748  1.00  0.00     0.017 C 
BRANCH  15  16
HETATM   16  C   UNL     1      42.438 -10.621  11.208  1.00  0.00    -0.036 A 
HETATM   17  C   UNL     1      41.365 -11.067  11.995  1.00  0.00     0.014 A 
HETATM   18  C   UNL     1      41.351 -10.838  13.375  1.00  0.00     0.043 A 
HETATM   19  C   UNL     1      42.404 -10.157  13.971  1.00  0.00     0.116 A 
HETATM   20  F   UNL     1      42.385  -9.936  15.292  1.00  0.00    -0.206 F 
HETATM   21  C   UNL     1      43.472  -9.698  13.215  1.00  0.00     0.043 A 
HETATM   22  C   UNL     1      43.488  -9.929  11.837  1.00  0.00     0.014 A 
ENDBRANCH  15  16
ENDBRANCH  11  14
ENDBRANCH   5  10
BRANCH   1  23
HETATM   23  C   UNL     1      44.128 -14.005   6.596  1.00  0.00     0.302 C 
HETATM   24  O   UNL     1      44.612 -13.282   7.461  1.00  0.00    -0.259 OA
BRANCH  23  25
HETATM   25  O   UNL     1      44.396 -15.334   6.469  1.00  0.00    -0.322 OA
HETATM   26  C   UNL     1      43.529 -16.186   7.221  1.00  0.00     0.213 C 
ENDBRANCH  23  25
ENDBRANCH   1  23
BRANCH   7  27
HETATM   27  C   UNL     1      39.847 -12.304   0.613  1.00  0.00     0.294 C 
BRANCH  27  28
HETATM   28  N   UNL     1      40.696 -13.046  -0.414  1.00  0.00    -0.061 N 
HETATM   29  H   UNL     1      41.365 -13.555   0.186  1.00  0.00     0.280 HD
HETATM   30  C   UNL     1      39.968 -14.146  -1.197  1.00  0.00     0.190 C 
HETATM   31  C   UNL     1      41.010 -14.860  -2.071  1.00  0.00     0.033 C 
HETATM   32  C   UNL     1      41.772 -13.903  -2.981  1.00  0.00     0.004 C 
HETATM   33  C   UNL     1      42.451 -12.816  -2.162  1.00  0.00     0.028 C 
HETATM   34  C   UNL     1      41.471 -12.076  -1.269  1.00  0.00     0.235 C 
BRANCH  30  35
HETATM   35  C   UNL     1      38.761 -13.587  -1.961  1.00  0.00     0.059 C 
BRANCH  35  36
HETATM   36  C   UNL     1      38.395 -14.401  -3.198  1.00  0.00     0.166 C 
BRANCH  36  37
HETATM   37  O   UNL     1      37.401 -15.336  -2.813  1.00  0.00    -0.401 OA
HETATM   38  H   UNL     1      36.630 -15.213  -3.397  1.00  0.00     0.209 HD
ENDBRANCH  36  37
ENDBRANCH  35  36
ENDBRANCH  30  35
ENDBRANCH  27  28
ENDBRANCH   7  27
TORSDOF 10
ENDMDL
MODEL 7
REMARK VINA RESULT:      -7.8      6.745      9.841
REMARK  10 active torsions:
REMARK  status: ('A' for Active; 'I' for Inactive)
REMARK    1  A    between atoms: O_2  and  C_3 
REMARK    2  A    between atoms: C_3  and  C_4 
REMARK    3  A    between atoms: C_8  and  N_9 
REMARK       I    between atoms: N_9  and  C_10 
REMARK    4  A    between atoms: C_10  and  C_11 
REMARK    5  A    between atoms: C_12  and  C_13 
REMARK    6  A    between atoms: C_22  and  C_23 
REMARK    7  A    between atoms: C_23  and  N_24 
REMARK    8  A    between atoms: C_26  and  C_27 
REMARK    9  A    between atoms: C_27  and  C_28 
REMARK   10  A    between atoms: C_28  and  O_29 
ROOT
HETATM    1  C   UNL     1      39.844 -14.119  -2.317  1.00  0.00     0.110 C 
HETATM    2  S   UNL     1      38.961 -12.702  -2.694  1.00  0.00    -0.061 SA
HETATM    3  C   UNL     1      38.333 -12.584  -1.123  1.00  0.00     0.111 A 
HETATM    4  C   UNL     1      38.757 -13.619  -0.295  1.00  0.00     0.028 A 
HETATM    5  C   UNL     1      39.726 -14.459  -0.970  1.00  0.00     0.071 C 
HETATM    6  N   UNL     1      37.487 -11.573  -0.806  1.00  0.00    -0.243 NA
HETATM    7  C   UNL     1      36.994 -11.631   0.455  1.00  0.00     0.061 A 
HETATM    8  C   UNL     1      37.282 -12.637   1.363  1.00  0.00     0.030 A 
HETATM    9  C   UNL     1      38.156 -13.651   0.984  1.00  0.00     0.019 A 
ENDROOT
BRANCH   5  10
HETATM   10  N   UNL     1      40.468 -15.529  -0.444  1.00  0.00    -0.321 N 
HETATM   11  C   UNL     1      41.562 -15.418   0.386  1.00  0.00     0.245 C 
HETATM   12  O   UNL     1      42.097 -14.377   0.744  1.00  0.00    -0.268 OA
HETATM   13  H   UNL     1      40.306 -16.435  -0.885  1.00  0.00     0.169 HD
BRANCH  11  14
HETATM   14  C   UNL     1      42.111 -16.744   0.792  1.00  0.00     0.075 C 
HETATM   15  C   UNL     1      42.777 -16.838   1.955  1.00  0.00     0.017 C 
BRANCH  15  16
HETATM   16  C   UNL     1      43.383 -18.052   2.530  1.00  0.00    -0.036 A 
HETATM   17  C   UNL     1      43.568 -19.243   1.813  1.00  0.00     0.014 A 
HETATM   18  C   UNL     1      44.132 -20.366   2.430  1.00  0.00     0.043 A 
HETATM   19  C   UNL     1      44.506 -20.302   3.766  1.00  0.00     0.116 A 
HETATM   20  F   UNL     1      45.041 -21.380   4.354  1.00  0.00    -0.206 F 
HETATM   21  C   UNL     1      44.327 -19.139   4.499  1.00  0.00     0.043 A 
HETATM   22  C   UNL     1      43.766 -18.018   3.883  1.00  0.00     0.014 A 
ENDBRANCH  15  16
ENDBRANCH  11  14
ENDBRANCH   5  10
BRANCH   1  23
HETATM   23  C   UNL     1      40.646 -14.814  -3.314  1.00  0.00     0.302 C 
HETATM   24  O   UNL     1      41.605 -14.305  -3.886  1.00  0.00    -0.259 OA
BRANCH  23  25
HETATM   25  O   UNL     1      40.220 -16.092  -3.519  1.00  0.00    -0.322 OA
HETATM   26  C   UNL     1      39.007 -16.196  -4.268  1.00  0.00     0.213 C 
ENDBRANCH  23  25
ENDBRANCH   1  23
BRANCH   7  27
HETATM   27  C   UNL     1      36.123 -10.475   0.897  1.00  0.00     0.294 C 
BRANCH  27  28
HETATM   28  N   UNL     1      34.623 -10.719   0.768  1.00  0.00    -0.061 N 
HETATM   29  H   UNL     1      34.569 -11.750   0.788  1.00  0.00     0.280 HD
HETATM   30  C   UNL     1      33.779 -10.268   1.967  1.00  0.00     0.190 C 
HETATM   31  C   UNL     1      32.332 -10.716   1.711  1.00  0.00     0.033 C 
HETATM   32  C   UNL     1      31.782 -10.205   0.385  1.00  0.00     0.004 C 
HETATM   33  C   UNL     1      32.668 -10.653  -0.769  1.00  0.00     0.028 C 
HETATM   34  C   UNL     1      34.116 -10.243  -0.570  1.00  0.00     0.235 C 
BRANCH  30  35
HETATM   35  C   UNL     1      33.948  -8.768   2.242  1.00  0.00     0.059 C 
BRANCH  35  36
HETATM   36  C   UNL     1      34.034  -8.428   3.726  1.00  0.00     0.166 C 
BRANCH  36  37
HETATM   37  O   UNL     1      34.651  -9.525   4.379  1.00  0.00    -0.401 OA
HETATM   38  H   UNL     1      35.610  -9.351   4.419  1.00  0.00     0.209 HD
ENDBRANCH  36  37
ENDBRANCH  35  36
ENDBRANCH  30  35
ENDBRANCH  27  28
ENDBRANCH   7  27
TORSDOF 10
ENDMDL
MODEL 8
REMARK VINA RESULT:      -7.8      6.918      9.722
REMARK  10 active torsions:
REMARK  status: ('A' for Active; 'I' for Inactive)
REMARK    1  A    between atoms: O_2  and  C_3 
REMARK    2  A    between atoms: C_3  and  C_4 
REMARK    3  A    between atoms: C_8  and  N_9 
REMARK       I    between atoms: N_9  and  C_10 
REMARK    4  A    between atoms: C_10  and  C_11 
REMARK    5  A    between atoms: C_12  and  C_13 
REMARK    6  A    between atoms: C_22  and  C_23 
REMARK    7  A    between atoms: C_23  and  N_24 
REMARK    8  A    between atoms: C_26  and  C_27 
REMARK    9  A    between atoms: C_27  and  C_28 
REMARK   10  A    between atoms: C_28  and  O_29 
ROOT
HETATM    1  C   UNL     1      41.071 -12.862  -1.513  1.00  0.00     0.110 C 
HETATM    2  S   UNL     1      39.945 -11.821  -2.275  1.00  0.00    -0.061 SA
HETATM    3  C   UNL     1      39.034 -13.121  -2.874  1.00  0.00     0.111 A 
HETATM    4  C   UNL     1      39.572 -14.358  -2.533  1.00  0.00     0.028 A 
HETATM    5  C   UNL     1      40.709 -14.201  -1.646  1.00  0.00     0.071 C 
HETATM    6  N   UNL     1      37.932 -12.885  -3.626  1.00  0.00    -0.243 NA
HETATM    7  C   UNL     1      37.335 -14.002  -4.110  1.00  0.00     0.061 A 
HETATM    8  C   UNL     1      37.798 -15.291  -3.900  1.00  0.00     0.030 A 
HETATM    9  C   UNL     1      38.936 -15.474  -3.121  1.00  0.00     0.019 A 
ENDROOT
BRANCH   5  10
HETATM   10  N   UNL     1      41.449 -15.201  -0.995  1.00  0.00    -0.321 N 
HETATM   11  C   UNL     1      41.159 -15.740   0.240  1.00  0.00     0.245 C 
HETATM   12  O   UNL     1      40.254 -15.393   0.989  1.00  0.00    -0.268 OA
HETATM   13  H   UNL     1      42.379 -15.379  -1.375  1.00  0.00     0.169 HD
BRANCH  11  14
HETATM   14  C   UNL     1      42.124 -16.803   0.644  1.00  0.00     0.075 C 
HETATM   15  C   UNL     1      42.123 -17.226   1.918  1.00  0.00     0.017 C 
BRANCH  15  16
HETATM   16  C   UNL     1      42.988 -18.266   2.505  1.00  0.00    -0.036 A 
HETATM   17  C   UNL     1      43.456 -19.380   1.794  1.00  0.00     0.014 A 
HETATM   18  C   UNL     1      44.257 -20.340   2.421  1.00  0.00     0.043 A 
HETATM   19  C   UNL     1      44.588 -20.192   3.762  1.00  0.00     0.116 A 
HETATM   20  F   UNL     1      45.352 -21.115   4.360  1.00  0.00    -0.206 F 
HETATM   21  C   UNL     1      44.132 -19.103   4.490  1.00  0.00     0.043 A 
HETATM   22  C   UNL     1      43.334 -18.143   3.863  1.00  0.00     0.014 A 
ENDBRANCH  15  16
ENDBRANCH  11  14
ENDBRANCH   5  10
BRANCH   1  23
HETATM   23  C   UNL     1      42.222 -12.349  -0.785  1.00  0.00     0.302 C 
HETATM   24  O   UNL     1      42.357 -12.457   0.430  1.00  0.00    -0.259 OA
BRANCH  23  25
HETATM   25  O   UNL     1      43.133 -11.758  -1.608  1.00  0.00    -0.322 OA
HETATM   26  C   UNL     1      43.418 -10.394  -1.288  1.00  0.00     0.213 C 
ENDBRANCH  23  25
ENDBRANCH   1  23
BRANCH   7  27
HETATM   27  C   UNL     1      36.043 -13.804  -4.873  1.00  0.00     0.294 C 
BRANCH  27  28
HETATM   28  N   UNL     1      35.923 -12.464  -5.592  1.00  0.00    -0.061 N 
HETATM   29  H   UNL     1      36.835 -12.025  -5.385  1.00  0.00     0.280 HD
HETATM   30  C   UNL     1      35.873 -12.541  -7.123  1.00  0.00     0.190 C 
HETATM   31  C   UNL     1      35.891 -11.103  -7.661  1.00  0.00     0.033 C 
HETATM   32  C   UNL     1      34.772 -10.243  -7.084  1.00  0.00     0.004 C 
HETATM   33  C   UNL     1      34.847 -10.221  -5.564  1.00  0.00     0.028 C 
HETATM   34  C   UNL     1      34.840 -11.619  -4.971  1.00  0.00     0.235 C 
BRANCH  30  35
HETATM   35  C   UNL     1      34.692 -13.394  -7.605  1.00  0.00     0.059 C 
BRANCH  35  36
HETATM   36  C   UNL     1      35.108 -14.557  -8.499  1.00  0.00     0.166 C 
BRANCH  36  37
HETATM   37  O   UNL     1      34.303 -15.671  -8.150  1.00  0.00    -0.401 OA
HETATM   38  H   UNL     1      34.458 -16.373  -8.810  1.00  0.00     0.209 HD
ENDBRANCH  36  37
ENDBRANCH  35  36
ENDBRANCH  30  35
ENDBRANCH  27  28
ENDBRANCH   7  27
TORSDOF 10
ENDMDL
MODEL 9
REMARK VINA RESULT:      -7.7      5.602      8.627
REMARK  10 active torsions:
REMARK  status: ('A' for Active; 'I' for Inactive)
REMARK    1  A    between atoms: O_2  and  C_3 
REMARK    2  A    between atoms: C_3  and  C_4 
REMARK    3  A    between atoms: C_8  and  N_9 
REMARK       I    between atoms: N_9  and  C_10 
REMARK    4  A    between atoms: C_10  and  C_11 
REMARK    5  A    between atoms: C_12  and  C_13 
REMARK    6  A    between atoms: C_22  and  C_23 
REMARK    7  A    between atoms: C_23  and  N_24 
REMARK    8  A    between atoms: C_26  and  C_27 
REMARK    9  A    between atoms: C_27  and  C_28 
REMARK   10  A    between atoms: C_28  and  O_29 
ROOT
HETATM    1  C   UNL     1      42.183 -13.434   1.639  1.00  0.00     0.110 C 
HETATM    2  S   UNL     1      41.770 -11.853   1.128  1.00  0.00    -0.061 SA
HETATM    3  C   UNL     1      41.305 -12.391  -0.412  1.00  0.00     0.111 A 
HETATM    4  C   UNL     1      41.474 -13.762  -0.578  1.00  0.00     0.028 A 
HETATM    5  C   UNL     1      41.891 -14.386   0.663  1.00  0.00     0.071 C 
HETATM    6  N   UNL     1      40.861 -11.502  -1.334  1.00  0.00    -0.243 NA
HETATM    7  C   UNL     1      40.594 -12.041  -2.548  1.00  0.00     0.061 A 
HETATM    8  C   UNL     1      40.774 -13.377  -2.869  1.00  0.00     0.030 A 
HETATM    9  C   UNL     1      41.235 -14.244  -1.884  1.00  0.00     0.019 A 
ENDROOT
BRANCH   5  10
HETATM   10  N   UNL     1      42.056 -15.753   0.938  1.00  0.00    -0.321 N 
HETATM   11  C   UNL     1      41.080 -16.602   1.415  1.00  0.00     0.245 C 
HETATM   12  O   UNL     1      39.940 -16.288   1.734  1.00  0.00    -0.268 OA
HETATM   13  H   UNL     1      43.022 -16.078   0.985  1.00  0.00     0.169 HD
BRANCH  11  14
HETATM   14  C   UNL     1      41.566 -18.002   1.578  1.00  0.00     0.075 C 
HETATM   15  C   UNL     1      42.720 -18.213   2.233  1.00  0.00     0.017 C 
BRANCH  15  16
HETATM   16  C   UNL     1      43.358 -19.514   2.503  1.00  0.00    -0.036 A 
HETATM   17  C   UNL     1      43.243 -20.626   1.656  1.00  0.00     0.014 A 
HETATM   18  C   UNL     1      43.860 -21.838   1.985  1.00  0.00     0.043 A 
HETATM   19  C   UNL     1      44.587 -21.944   3.165  1.00  0.00     0.116 A 
HETATM   20  F   UNL     1      45.171 -23.107   3.479  1.00  0.00    -0.206 F 
HETATM   21  C   UNL     1      44.709 -20.861   4.022  1.00  0.00     0.043 A 
HETATM   22  C   UNL     1      44.095 -19.650   3.692  1.00  0.00     0.014 A 
ENDBRANCH  15  16
ENDBRANCH  11  14
ENDBRANCH   5  10
BRANCH   1  23
HETATM   23  C   UNL     1      42.723 -13.699   2.964  1.00  0.00     0.302 C 
HETATM   24  O   UNL     1      43.858 -13.382   3.308  1.00  0.00    -0.259 OA
BRANCH  23  25
HETATM   25  O   UNL     1      41.821 -14.316   3.776  1.00  0.00    -0.322 OA
HETATM   26  C   UNL     1      41.025 -13.424   4.560  1.00  0.00     0.213 C 
ENDBRANCH  23  25
ENDBRANCH   1  23
BRANCH   7  27
HETATM   27  C   UNL     1      39.999 -11.114  -3.586  1.00  0.00     0.294 C 
BRANCH  27  28
HETATM   28  N   UNL     1      38.641 -11.548  -4.129  1.00  0.00    -0.061 N 
HETATM   29  H   UNL     1      38.887 -12.387  -4.680  1.00  0.00     0.280 HD
HETATM   30  C   UNL     1      37.646 -12.055  -3.079  1.00  0.00     0.190 C 
HETATM   31  C   UNL     1      36.404 -12.567  -3.825  1.00  0.00     0.033 C 
HETATM   32  C   UNL     1      35.795 -11.516  -4.747  1.00  0.00     0.004 C 
HETATM   33  C   UNL     1      36.828 -11.024  -5.750  1.00  0.00     0.028 C 
HETATM   34  C   UNL     1      38.086 -10.510  -5.071  1.00  0.00     0.235 C 
BRANCH  30  35
HETATM   35  C   UNL     1      37.361 -10.989  -2.012  1.00  0.00     0.059 C 
BRANCH  35  36
HETATM   36  C   UNL     1      37.101 -11.571  -0.627  1.00  0.00     0.166 C 
BRANCH  36  37
HETATM   37  O   UNL     1      37.943 -12.701  -0.475  1.00  0.00    -0.401 OA
HETATM   38  H   UNL     1      38.737 -12.421   0.018  1.00  0.00     0.209 HD
ENDBRANCH  36  37
ENDBRANCH  35  36
ENDBRANCH  30  35
ENDBRANCH  27  28
ENDBRANCH   7  27
TORSDOF 10
ENDMDL
MODEL 10
REMARK VINA RESULT:      -7.7      5.645      8.383
REMARK  10 active torsions:
REMARK  status: ('A' for Active; 'I' for Inactive)
REMARK    1  A    between atoms: O_2  and  C_3 
REMARK    2  A    between atoms: C_3  and  C_4 
REMARK    3  A    between atoms: C_8  and  N_9 
REMARK       I    between atoms: N_9  and  C_10 
REMARK    4  A    between atoms: C_10  and  C_11 
REMARK    5  A    between atoms: C_12  and  C_13 
REMARK    6  A    between atoms: C_22  and  C_23 
REMARK    7  A    between atoms: C_23  and  N_24 
REMARK    8  A    between atoms: C_26  and  C_27 
REMARK    9  A    between atoms: C_27  and  C_28 
REMARK   10  A    between atoms: C_28  and  O_29 
ROOT
HETATM    1  C   UNL     1      40.362 -13.850   2.459  1.00  0.00     0.110 C 
HETATM    2  S   UNL     1      39.428 -12.710   1.588  1.00  0.00    -0.061 SA
HETATM    3  C   UNL     1      39.818 -13.417   0.097  1.00  0.00     0.111 A 
HETATM    4  C   UNL     1      40.675 -14.505   0.224  1.00  0.00     0.028 A 
HETATM    5  C   UNL     1      40.908 -14.820   1.621  1.00  0.00     0.071 C 
HETATM    6  N   UNL     1      39.329 -12.888  -1.052  1.00  0.00    -0.243 NA
HETATM    7  C   UNL     1      39.774 -13.493  -2.180  1.00  0.00     0.061 A 
HETATM    8  C   UNL     1      40.675 -14.546  -2.201  1.00  0.00     0.030 A 
HETATM    9  C   UNL     1      41.146 -15.047  -0.993  1.00  0.00     0.019 A 
ENDROOT
BRANCH   5  10
HETATM   10  N   UNL     1      41.616 -15.905   2.163  1.00  0.00    -0.321 N 
HETATM   11  C   UNL     1      42.881 -15.848   2.708  1.00  0.00     0.245 C 
HETATM   12  O   UNL     1      43.609 -14.864   2.751  1.00  0.00    -0.268 OA
HETATM   13  H   UNL     1      41.246 -16.828   1.937  1.00  0.00     0.169 HD
BRANCH  11  14
HETATM   14  C   UNL     1      43.344 -17.170   3.222  1.00  0.00     0.075 C 
HETATM   15  C   UNL     1      43.378 -18.214   2.378  1.00  0.00     0.017 C 
BRANCH  15  16
HETATM   16  C   UNL     1      43.811 -19.589   2.689  1.00  0.00    -0.036 A 
HETATM   17  C   UNL     1      43.634 -20.674   1.819  1.00  0.00     0.014 A 
HETATM   18  C   UNL     1      44.051 -21.958   2.190  1.00  0.00     0.043 A 
HETATM   19  C   UNL     1      44.638 -22.160   3.432  1.00  0.00     0.116 A 
HETATM   20  F   UNL     1      45.032 -23.391   3.784  1.00  0.00    -0.206 F 
HETATM   21  C   UNL     1      44.817 -21.104   4.313  1.00  0.00     0.043 A 
HETATM   22  C   UNL     1      44.403 -19.823   3.943  1.00  0.00     0.014 A 
ENDBRANCH  15  16
ENDBRANCH  11  14
ENDBRANCH   5  10
BRANCH   1  23
HETATM   23  C   UNL     1      40.493 -13.791   3.908  1.00  0.00     0.302 C 
HETATM   24  O   UNL     1      41.036 -12.865   4.502  1.00  0.00    -0.259 OA
BRANCH  23  25
HETATM   25  O   UNL     1      39.928 -14.869   4.521  1.00  0.00    -0.322 OA
HETATM   26  C   UNL     1      40.644 -15.338   5.667  1.00  0.00     0.213 C 
ENDBRANCH  23  25
ENDBRANCH   1  23
BRANCH   7  27
HETATM   27  C   UNL     1      39.183 -13.010  -3.487  1.00  0.00     0.294 C 
BRANCH  27  28
HETATM   28  N   UNL     1      40.047 -12.009  -4.248  1.00  0.00    -0.061 N 
HETATM   29  H   UNL     1      40.026 -12.391  -5.208  1.00  0.00     0.280 HD
HETATM   30  C   UNL     1      39.456 -10.600  -4.383  1.00  0.00     0.190 C 
HETATM   31  C   UNL     1      40.396  -9.787  -5.285  1.00  0.00     0.033 C 
HETATM   32  C   UNL     1      41.834  -9.771  -4.778  1.00  0.00     0.004 C 
HETATM   33  C   UNL     1      42.364 -11.189  -4.633  1.00  0.00     0.028 C 
HETATM   34  C   UNL     1      41.471 -12.048  -3.754  1.00  0.00     0.235 C 
BRANCH  30  35
HETATM   35  C   UNL     1      39.180  -9.973  -3.011  1.00  0.00     0.059 C 
BRANCH  35  36
HETATM   36  C   UNL     1      37.696  -9.756  -2.730  1.00  0.00     0.166 C 
BRANCH  36  37
HETATM   37  O   UNL     1      37.336 -10.615  -1.661  1.00  0.00    -0.401 OA
HETATM   38  H   UNL     1      38.072 -11.238  -1.515  1.00  0.00     0.209 HD
ENDBRANCH  36  37
ENDBRANCH  35  36
ENDBRANCH  30  35
ENDBRANCH  27  28
ENDBRANCH   7  27
TORSDOF 10
ENDMDL
