MODEL 1
REMARK VINA RESULT:      -8.2      0.000      0.000
REMARK  7 active torsions:
REMARK  status: ('A' for Active; 'I' for Inactive)
REMARK    1  A    between atoms: C_8  and  C_9 
REMARK    2  A    between atoms: C_9  and  N_10 
REMARK    3  A    between atoms: C_9  and  C_14 
REMARK       I    between atoms: C_14  and  N_15 
REMARK    4  A    between atoms: N_15  and  C_16 
REMARK    5  A    between atoms: C_16  and  C_17 
REMARK    6  A    between atoms: C_17  and  C_18 
REMARK    7  A    between atoms: C_20  and  C_21 
ROOT
HETATM    1  C   UNL     1      41.128 -16.464   4.086  1.00  0.00     0.253 C 
HETATM    2  N   UNL     1      41.603 -15.852   2.951  1.00  0.00    -0.359 N 
HETATM    3  O   UNL     1      40.864 -17.664   4.170  1.00  0.00    -0.271 OA
HETATM    4  H   UNL     1      42.004 -14.920   3.011  1.00  0.00     0.162 HD
ENDROOT
BRANCH   1   5
HETATM    5  C   UNL     1      40.848 -15.555   5.303  1.00  0.00     0.311 C 
BRANCH   5   6
HETATM    6  C   UNL     1      42.106 -15.113   5.968  1.00  0.00     0.031 A 
HETATM    7  C   UNL     1      42.924 -15.802   6.856  1.00  0.00     0.035 A 
HETATM    8  C   UNL     1      42.882 -17.177   7.417  1.00  0.00     0.070 C 
HETATM    9  N   UNL     1      43.945 -14.944   7.172  1.00  0.00    -0.282 N 
HETATM   10  H   UNL     1      44.742 -15.101   7.784  1.00  0.00     0.189 HD
HETATM   11  N   UNL     1      43.834 -13.755   6.571  1.00  0.00    -0.179 NA
HETATM   12  C   UNL     1      42.735 -13.843   5.827  1.00  0.00     0.061 A 
HETATM   13  C   UNL     1      42.322 -12.680   4.995  1.00  0.00     0.073 C 
ENDBRANCH   5   6
BRANCH   5  14
HETATM   14  N   UNL     1      39.986 -16.305   6.276  1.00  0.00    -0.062 N 
HETATM   15  H   UNL     1      39.924 -15.805   7.169  1.00  0.00     0.275 HD
HETATM   16  H   UNL     1      39.029 -16.316   5.895  1.00  0.00     0.275 HD
HETATM   17  H   UNL     1      40.306 -17.266   6.421  1.00  0.00     0.275 HD
ENDBRANCH   5  14
ENDBRANCH   1   5
BRANCH   2  18
HETATM   18  C   UNL     1      41.981 -16.614   1.766  1.00  0.00     0.127 C 
BRANCH  18  19
HETATM   19  C   UNL     1      43.479 -16.934   1.726  1.00  0.00     0.058 C 
BRANCH  19  20
HETATM   20  C   UNL     1      43.879 -18.117   2.580  1.00  0.00    -0.056 A 
HETATM   21  C   UNL     1      43.852 -19.415   2.048  1.00  0.00     0.023 A 
HETATM   22  C   UNL     1      44.200 -20.527   2.832  1.00  0.00     0.048 A 
HETATM   23  C   UNL     1      44.585 -20.323   4.164  1.00  0.00     0.016 A 
HETATM   24  C   UNL     1      44.607 -19.038   4.704  1.00  0.00     0.001 A 
HETATM   25  C   UNL     1      44.252 -17.941   3.919  1.00  0.00     0.007 A 
BRANCH  22  26
HETATM   26  C   UNL     1      44.170 -21.927   2.263  1.00  0.00     0.417 C 
HETATM   27  F   UNL     1      45.195 -22.177   1.401  1.00  0.00    -0.166 F 
HETATM   28  F   UNL     1      44.270 -22.874   3.236  1.00  0.00    -0.166 F 
HETATM   29  F   UNL     1      43.026 -22.199   1.581  1.00  0.00    -0.166 F 
ENDBRANCH  22  26
ENDBRANCH  19  20
ENDBRANCH  18  19
ENDBRANCH   2  18
TORSDOF 7
ENDMDL
MODEL 2
REMARK VINA RESULT:      -8.0      3.511      5.746
REMARK  7 active torsions:
REMARK  status: ('A' for Active; 'I' for Inactive)
REMARK    1  A    between atoms: C_8  and  C_9 
REMARK    2  A    between atoms: C_9  and  N_10 
REMARK    3  A    between atoms: C_9  and  C_14 
REMARK       I    between atoms: C_14  and  N_15 
REMARK    4  A    between atoms: N_15  and  C_16 
REMARK    5  A    between atoms: C_16  and  C_17 
REMARK    6  A    between atoms: C_17  and  C_18 
REMARK    7  A    between atoms: C_20  and  C_21 
ROOT
HETATM    1  C   UNL     1      40.327 -14.813   0.587  1.00  0.00     0.253 C 
HETATM    2  N   UNL     1      40.668 -16.144   0.547  1.00  0.00    -0.359 N 
HETATM    3  O   UNL     1      40.393 -14.109   1.596  1.00  0.00    -0.271 OA
HETATM    4  H   UNL     1      40.800 -16.604  -0.349  1.00  0.00     0.162 HD
ENDROOT
BRANCH   1   5
HETATM    5  C   UNL     1      39.762 -14.199  -0.711  1.00  0.00     0.311 C 
BRANCH   5   6
HETATM    6  C   UNL     1      40.767 -14.199  -1.811  1.00  0.00     0.031 A 
HETATM    7  C   UNL     1      41.892 -13.398  -1.977  1.00  0.00     0.035 A 
HETATM    8  C   UNL     1      42.507 -12.327  -1.152  1.00  0.00     0.070 C 
HETATM    9  N   UNL     1      42.470 -13.800  -3.154  1.00  0.00    -0.282 N 
HETATM   10  H   UNL     1      43.316 -13.453  -3.599  1.00  0.00     0.189 HD
HETATM   11  N   UNL     1      41.793 -14.780  -3.761  1.00  0.00    -0.179 NA
HETATM   12  C   UNL     1      40.768 -15.045  -2.956  1.00  0.00     0.061 A 
HETATM   13  C   UNL     1      39.807 -16.120  -3.327  1.00  0.00     0.073 C 
ENDBRANCH   5   6
BRANCH   5  14
HETATM   14  N   UNL     1      39.310 -12.798  -0.425  1.00  0.00    -0.062 N 
HETATM   15  H   UNL     1      38.296 -12.765  -0.272  1.00  0.00     0.275 HD
HETATM   16  H   UNL     1      39.736 -12.512   0.467  1.00  0.00     0.275 HD
HETATM   17  H   UNL     1      39.586 -12.141  -1.160  1.00  0.00     0.275 HD
ENDBRANCH   5  14
ENDBRANCH   1   5
BRANCH   2  18
HETATM   18  C   UNL     1      41.287 -16.814   1.686  1.00  0.00     0.127 C 
BRANCH  18  19
HETATM   19  C   UNL     1      42.795 -17.014   1.501  1.00  0.00     0.058 C 
BRANCH  19  20
HETATM   20  C   UNL     1      43.386 -18.090   2.387  1.00  0.00    -0.056 A 
HETATM   21  C   UNL     1      43.502 -19.407   1.918  1.00  0.00     0.023 A 
HETATM   22  C   UNL     1      44.029 -20.422   2.733  1.00  0.00     0.048 A 
HETATM   23  C   UNL     1      44.448 -20.100   4.031  1.00  0.00     0.016 A 
HETATM   24  C   UNL     1      44.328 -18.796   4.509  1.00  0.00     0.001 A 
HETATM   25  C   UNL     1      43.796 -17.796   3.693  1.00  0.00     0.007 A 
BRANCH  22  26
HETATM   26  C   UNL     1      44.154 -21.842   2.233  1.00  0.00     0.417 C 
HETATM   27  F   UNL     1      44.219 -22.761   3.237  1.00  0.00    -0.166 F 
HETATM   28  F   UNL     1      43.088 -22.208   1.469  1.00  0.00    -0.166 F 
HETATM   29  F   UNL     1      45.259 -22.040   1.466  1.00  0.00    -0.166 F 
ENDBRANCH  22  26
ENDBRANCH  19  20
ENDBRANCH  18  19
ENDBRANCH   2  18
TORSDOF 7
ENDMDL
MODEL 3
REMARK VINA RESULT:      -8.0      3.011      3.681
REMARK  7 active torsions:
REMARK  status: ('A' for Active; 'I' for Inactive)
REMARK    1  A    between atoms: C_8  and  C_9 
REMARK    2  A    between atoms: C_9  and  N_10 
REMARK    3  A    between atoms: C_9  and  C_14 
REMARK       I    between atoms: C_14  and  N_15 
REMARK    4  A    between atoms: N_15  and  C_16 
REMARK    5  A    between atoms: C_16  and  C_17 
REMARK    6  A    between atoms: C_17  and  C_18 
REMARK    7  A    between atoms: C_20  and  C_21 
ROOT
HETATM    1  C   UNL     1      41.768 -15.093   2.455  1.00  0.00     0.253 C 
HETATM    2  N   UNL     1      41.955 -16.310   1.845  1.00  0.00    -0.359 N 
HETATM    3  O   UNL     1      42.680 -14.331   2.779  1.00  0.00    -0.271 OA
HETATM    4  H   UNL     1      41.168 -16.782   1.410  1.00  0.00     0.162 HD
ENDROOT
BRANCH   1   5
HETATM    5  C   UNL     1      40.316 -14.707   2.809  1.00  0.00     0.311 C 
BRANCH   5   6
HETATM    6  C   UNL     1      40.165 -14.376   4.254  1.00  0.00     0.031 A 
HETATM    7  C   UNL     1      40.457 -15.150   5.372  1.00  0.00     0.035 A 
HETATM    8  C   UNL     1      41.034 -16.508   5.544  1.00  0.00     0.070 C 
HETATM    9  N   UNL     1      40.131 -14.380   6.459  1.00  0.00    -0.282 N 
HETATM   10  H   UNL     1      40.217 -14.606   7.447  1.00  0.00     0.189 HD
HETATM   11  N   UNL     1      39.636 -13.185   6.124  1.00  0.00    -0.179 NA
HETATM   12  C   UNL     1      39.663 -13.157   4.794  1.00  0.00     0.061 A 
HETATM   13  C   UNL     1      39.194 -11.939   4.079  1.00  0.00     0.073 C 
ENDBRANCH   5   6
BRANCH   5  14
HETATM   14  N   UNL     1      39.411 -15.847   2.444  1.00  0.00    -0.062 N 
HETATM   15  H   UNL     1      38.485 -15.504   2.169  1.00  0.00     0.275 HD
HETATM   16  H   UNL     1      39.803 -16.295   1.604  1.00  0.00     0.275 HD
HETATM   17  H   UNL     1      39.333 -16.539   3.194  1.00  0.00     0.275 HD
ENDBRANCH   5  14
ENDBRANCH   1   5
BRANCH   2  18
HETATM   18  C   UNL     1      43.270 -16.748   1.389  1.00  0.00     0.127 C 
BRANCH  18  19
HETATM   19  C   UNL     1      43.383 -18.274   1.301  1.00  0.00     0.058 C 
BRANCH  19  20
HETATM   20  C   UNL     1      43.877 -18.928   2.572  1.00  0.00    -0.056 A 
HETATM   21  C   UNL     1      44.003 -18.178   3.752  1.00  0.00     0.023 A 
HETATM   22  C   UNL     1      44.479 -18.764   4.936  1.00  0.00     0.048 A 
HETATM   23  C   UNL     1      44.825 -20.122   4.928  1.00  0.00     0.016 A 
HETATM   24  C   UNL     1      44.712 -20.873   3.760  1.00  0.00     0.001 A 
HETATM   25  C   UNL     1      44.245 -20.279   2.587  1.00  0.00     0.007 A 
BRANCH  22  26
HETATM   26  C   UNL     1      44.617 -17.959   6.207  1.00  0.00     0.417 C 
HETATM   27  F   UNL     1      43.835 -18.422   7.223  1.00  0.00    -0.166 F 
HETATM   28  F   UNL     1      45.891 -17.981   6.687  1.00  0.00    -0.166 F 
HETATM   29  F   UNL     1      44.292 -16.649   6.045  1.00  0.00    -0.166 F 
ENDBRANCH  22  26
ENDBRANCH  19  20
ENDBRANCH  18  19
ENDBRANCH   2  18
TORSDOF 7
ENDMDL
MODEL 4
REMARK VINA RESULT:      -7.9      1.377      2.088
REMARK  7 active torsions:
REMARK  status: ('A' for Active; 'I' for Inactive)
REMARK    1  A    between atoms: C_8  and  C_9 
REMARK    2  A    between atoms: C_9  and  N_10 
REMARK    3  A    between atoms: C_9  and  C_14 
REMARK       I    between atoms: C_14  and  N_15 
REMARK    4  A    between atoms: N_15  and  C_16 
REMARK    5  A    between atoms: C_16  and  C_17 
REMARK    6  A    between atoms: C_17  and  C_18 
REMARK    7  A    between atoms: C_20  and  C_21 
ROOT
HETATM    1  C   UNL     1      41.364 -14.781   4.049  1.00  0.00     0.253 C 
HETATM    2  N   UNL     1      42.352 -15.288   3.240  1.00  0.00    -0.359 N 
HETATM    3  O   UNL     1      40.181 -14.677   3.721  1.00  0.00    -0.271 OA
HETATM    4  H   UNL     1      43.248 -15.548   3.641  1.00  0.00     0.162 HD
ENDROOT
BRANCH   1   5
HETATM    5  C   UNL     1      41.800 -14.248   5.431  1.00  0.00     0.311 C 
BRANCH   5   6
HETATM    6  C   UNL     1      42.466 -15.301   6.249  1.00  0.00     0.031 A 
HETATM    7  C   UNL     1      43.743 -15.317   6.798  1.00  0.00     0.035 A 
HETATM    8  C   UNL     1      44.854 -14.330   6.812  1.00  0.00     0.070 C 
HETATM    9  N   UNL     1      43.859 -16.516   7.451  1.00  0.00    -0.282 N 
HETATM   10  H   UNL     1      44.647 -16.879   7.981  1.00  0.00     0.189 HD
HETATM   11  N   UNL     1      42.765 -17.276   7.346  1.00  0.00    -0.179 NA
HETATM   12  C   UNL     1      41.904 -16.552   6.635  1.00  0.00     0.061 A 
HETATM   13  C   UNL     1      40.552 -17.101   6.345  1.00  0.00     0.073 C 
ENDBRANCH   5   6
BRANCH   5  14
HETATM   14  N   UNL     1      40.592 -13.725   6.150  1.00  0.00    -0.062 N 
HETATM   15  H   UNL     1      39.891 -13.381   5.484  1.00  0.00     0.275 HD
HETATM   16  H   UNL     1      40.151 -14.520   6.633  1.00  0.00     0.275 HD
HETATM   17  H   UNL     1      40.828 -13.000   6.833  1.00  0.00     0.275 HD
ENDBRANCH   5  14
ENDBRANCH   1   5
BRANCH   2  18
HETATM   18  C   UNL     1      42.052 -15.894   1.947  1.00  0.00     0.127 C 
BRANCH  18  19
HETATM   19  C   UNL     1      43.215 -16.733   1.407  1.00  0.00     0.058 C 
BRANCH  19  20
HETATM   20  C   UNL     1      43.594 -17.900   2.293  1.00  0.00    -0.056 A 
HETATM   21  C   UNL     1      43.573 -19.208   1.787  1.00  0.00     0.023 A 
HETATM   22  C   UNL     1      43.903 -20.305   2.600  1.00  0.00     0.048 A 
HETATM   23  C   UNL     1      44.262 -20.075   3.935  1.00  0.00     0.016 A 
HETATM   24  C   UNL     1      44.277 -18.779   4.449  1.00  0.00     0.001 A 
HETATM   25  C   UNL     1      43.941 -17.698   3.635  1.00  0.00     0.007 A 
BRANCH  22  26
HETATM   26  C   UNL     1      43.880 -21.716   2.059  1.00  0.00     0.417 C 
HETATM   27  F   UNL     1      42.676 -22.067   1.527  1.00  0.00    -0.166 F 
HETATM   28  F   UNL     1      44.788 -21.891   1.059  1.00  0.00    -0.166 F 
HETATM   29  F   UNL     1      44.165 -22.651   3.002  1.00  0.00    -0.166 F 
ENDBRANCH  22  26
ENDBRANCH  19  20
ENDBRANCH  18  19
ENDBRANCH   2  18
TORSDOF 7
ENDMDL
MODEL 5
REMARK VINA RESULT:      -7.8      2.047      2.687
REMARK  7 active torsions:
REMARK  status: ('A' for Active; 'I' for Inactive)
REMARK    1  A    between atoms: C_8  and  C_9 
REMARK    2  A    between atoms: C_9  and  N_10 
REMARK    3  A    between atoms: C_9  and  C_14 
REMARK       I    between atoms: C_14  and  N_15 
REMARK    4  A    between atoms: N_15  and  C_16 
REMARK    5  A    between atoms: C_16  and  C_17 
REMARK    6  A    between atoms: C_17  and  C_18 
REMARK    7  A    between atoms: C_20  and  C_21 
ROOT
HETATM    1  C   UNL     1      41.957 -15.401   2.518  1.00  0.00     0.253 C 
HETATM    2  N   UNL     1      42.121 -16.551   1.784  1.00  0.00    -0.359 N 
HETATM    3  O   UNL     1      42.883 -14.747   3.001  1.00  0.00    -0.271 OA
HETATM    4  H   UNL     1      41.346 -16.914   1.235  1.00  0.00     0.162 HD
ENDROOT
BRANCH   1   5
HETATM    5  C   UNL     1      40.506 -14.956   2.801  1.00  0.00     0.311 C 
BRANCH   5   6
HETATM    6  C   UNL     1      40.304 -14.592   4.232  1.00  0.00     0.031 A 
HETATM    7  C   UNL     1      40.533 -15.349   5.375  1.00  0.00     0.035 A 
HETATM    8  C   UNL     1      41.072 -16.716   5.597  1.00  0.00     0.070 C 
HETATM    9  N   UNL     1      40.181 -14.551   6.433  1.00  0.00    -0.282 N 
HETATM   10  H   UNL     1      40.222 -14.758   7.428  1.00  0.00     0.189 HD
HETATM   11  N   UNL     1      39.728 -13.352   6.055  1.00  0.00    -0.179 NA
HETATM   12  C   UNL     1      39.809 -13.352   4.727  1.00  0.00     0.061 A 
HETATM   13  C   UNL     1      39.396 -12.139   3.970  1.00  0.00     0.073 C 
ENDBRANCH   5   6
BRANCH   5  14
HETATM   14  N   UNL     1      39.576 -16.068   2.416  1.00  0.00    -0.062 N 
HETATM   15  H   UNL     1      38.652 -15.935   2.840  1.00  0.00     0.275 HD
HETATM   16  H   UNL     1      39.427 -16.007   1.399  1.00  0.00     0.275 HD
HETATM   17  H   UNL     1      39.953 -16.991   2.650  1.00  0.00     0.275 HD
ENDBRANCH   5  14
ENDBRANCH   1   5
BRANCH   2  18
HETATM   18  C   UNL     1      43.441 -17.027   1.384  1.00  0.00     0.127 C 
BRANCH  18  19
HETATM   19  C   UNL     1      43.563 -18.552   1.460  1.00  0.00     0.058 C 
BRANCH  19  20
HETATM   20  C   UNL     1      43.963 -19.070   2.824  1.00  0.00    -0.056 A 
HETATM   21  C   UNL     1      44.218 -20.436   3.016  1.00  0.00     0.023 A 
HETATM   22  C   UNL     1      44.571 -20.937   4.280  1.00  0.00     0.048 A 
HETATM   23  C   UNL     1      44.672 -20.047   5.358  1.00  0.00     0.016 A 
HETATM   24  C   UNL     1      44.412 -18.689   5.179  1.00  0.00     0.001 A 
HETATM   25  C   UNL     1      44.055 -18.203   3.921  1.00  0.00     0.007 A 
BRANCH  22  26
HETATM   26  C   UNL     1      44.845 -22.408   4.491  1.00  0.00     0.417 C 
HETATM   27  F   UNL     1      43.839 -23.053   5.146  1.00  0.00    -0.166 F 
HETATM   28  F   UNL     1      44.997 -23.071   3.310  1.00  0.00    -0.166 F 
HETATM   29  F   UNL     1      45.975 -22.641   5.208  1.00  0.00    -0.166 F 
ENDBRANCH  22  26
ENDBRANCH  19  20
ENDBRANCH  18  19
ENDBRANCH   2  18
TORSDOF 7
ENDMDL
MODEL 6
REMARK VINA RESULT:      -7.8      2.214      3.056
REMARK  7 active torsions:
REMARK  status: ('A' for Active; 'I' for Inactive)
REMARK    1  A    between atoms: C_8  and  C_9 
REMARK    2  A    between atoms: C_9  and  N_10 
REMARK    3  A    between atoms: C_9  and  C_14 
REMARK       I    between atoms: C_14  and  N_15 
REMARK    4  A    between atoms: N_15  and  C_16 
REMARK    5  A    between atoms: C_16  and  C_17 
REMARK    6  A    between atoms: C_17  and  C_18 
REMARK    7  A    between atoms: C_20  and  C_21 
ROOT
HETATM    1  C   UNL     1      41.748 -14.330   4.048  1.00  0.00     0.253 C 
HETATM    2  N   UNL     1      40.515 -14.843   3.728  1.00  0.00    -0.359 N 
HETATM    3  O   UNL     1      42.679 -14.209   3.249  1.00  0.00    -0.271 OA
HETATM    4  H   UNL     1      39.734 -14.713   4.365  1.00  0.00     0.162 HD
ENDROOT
BRANCH   1   5
HETATM    5  C   UNL     1      41.984 -13.951   5.526  1.00  0.00     0.311 C 
BRANCH   5   6
HETATM    6  C   UNL     1      42.614 -15.063   6.292  1.00  0.00     0.031 A 
HETATM    7  C   UNL     1      42.087 -16.300   6.646  1.00  0.00     0.035 A 
HETATM    8  C   UNL     1      40.785 -16.963   6.377  1.00  0.00     0.070 C 
HETATM    9  N   UNL     1      43.074 -16.943   7.348  1.00  0.00    -0.282 N 
HETATM   10  H   UNL     1      43.060 -17.874   7.758  1.00  0.00     0.189 HD
HETATM   11  N   UNL     1      44.181 -16.208   7.487  1.00  0.00    -0.179 NA
HETATM   12  C   UNL     1      43.928 -15.072   6.841  1.00  0.00     0.061 A 
HETATM   13  C   UNL     1      44.977 -14.018   6.779  1.00  0.00     0.073 C 
ENDBRANCH   5   6
BRANCH   5  14
HETATM   14  N   UNL     1      40.669 -13.579   6.144  1.00  0.00    -0.062 N 
HETATM   15  H   UNL     1      39.948 -14.269   5.911  1.00  0.00     0.275 HD
HETATM   16  H   UNL     1      40.783 -13.630   7.166  1.00  0.00     0.275 HD
HETATM   17  H   UNL     1      40.367 -12.637   5.882  1.00  0.00     0.275 HD
ENDBRANCH   5  14
ENDBRANCH   1   5
BRANCH   2  18
HETATM   18  C   UNL     1      40.146 -15.161   2.353  1.00  0.00     0.127 C 
BRANCH  18  19
HETATM   19  C   UNL     1      40.191 -16.666   2.065  1.00  0.00     0.058 C 
BRANCH  19  20
HETATM   20  C   UNL     1      41.588 -17.247   2.047  1.00  0.00    -0.056 A 
HETATM   21  C   UNL     1      42.109 -17.872   3.189  1.00  0.00     0.023 A 
HETATM   22  C   UNL     1      43.411 -18.399   3.197  1.00  0.00     0.048 A 
HETATM   23  C   UNL     1      44.190 -18.297   2.036  1.00  0.00     0.016 A 
HETATM   24  C   UNL     1      43.684 -17.670   0.898  1.00  0.00     0.001 A 
HETATM   25  C   UNL     1      42.392 -17.143   0.905  1.00  0.00     0.007 A 
BRANCH  22  26
HETATM   26  C   UNL     1      43.976 -19.073   4.426  1.00  0.00     0.417 C 
HETATM   27  F   UNL     1      43.027 -19.377   5.355  1.00  0.00    -0.166 F 
HETATM   28  F   UNL     1      44.586 -20.252   4.124  1.00  0.00    -0.166 F 
HETATM   29  F   UNL     1      44.905 -18.315   5.067  1.00  0.00    -0.166 F 
ENDBRANCH  22  26
ENDBRANCH  19  20
ENDBRANCH  18  19
ENDBRANCH   2  18
TORSDOF 7
ENDMDL
MODEL 7
REMARK VINA RESULT:      -7.8      3.071      4.188
REMARK  7 active torsions:
REMARK  status: ('A' for Active; 'I' for Inactive)
REMARK    1  A    between atoms: C_8  and  C_9 
REMARK    2  A    between atoms: C_9  and  N_10 
REMARK    3  A    between atoms: C_9  and  C_14 
REMARK       I    between atoms: C_14  and  N_15 
REMARK    4  A    between atoms: N_15  and  C_16 
REMARK    5  A    between atoms: C_16  and  C_17 
REMARK    6  A    between atoms: C_17  and  C_18 
REMARK    7  A    between atoms: C_20  and  C_21 
ROOT
HETATM    1  C   UNL     1      41.076 -15.767   0.583  1.00  0.00     0.253 C 
HETATM    2  N   UNL     1      42.375 -16.091   0.271  1.00  0.00    -0.359 N 
HETATM    3  O   UNL     1      40.341 -16.454   1.295  1.00  0.00    -0.271 OA
HETATM    4  H   UNL     1      42.987 -15.386  -0.131  1.00  0.00     0.162 HD
ENDROOT
BRANCH   1   5
HETATM    5  C   UNL     1      40.500 -14.492  -0.068  1.00  0.00     0.311 C 
BRANCH   5   6
HETATM    6  C   UNL     1      41.220 -13.265   0.377  1.00  0.00     0.031 A 
HETATM    7  C   UNL     1      41.225 -12.648   1.623  1.00  0.00     0.035 A 
HETATM    8  C   UNL     1      40.584 -12.978   2.922  1.00  0.00     0.070 C 
HETATM    9  N   UNL     1      42.042 -11.555   1.499  1.00  0.00    -0.282 N 
HETATM   10  H   UNL     1      42.298 -10.868   2.204  1.00  0.00     0.189 HD
HETATM   11  N   UNL     1      42.543 -11.413   0.269  1.00  0.00    -0.179 NA
HETATM   12  C   UNL     1      42.069 -12.448  -0.421  1.00  0.00     0.061 A 
HETATM   13  C   UNL     1      42.455 -12.612  -1.850  1.00  0.00     0.073 C 
ENDBRANCH   5   6
BRANCH   5  14
HETATM   14  N   UNL     1      39.043 -14.389   0.279  1.00  0.00    -0.062 N 
HETATM   15  H   UNL     1      38.483 -14.186  -0.555  1.00  0.00     0.275 HD
HETATM   16  H   UNL     1      38.737 -15.317   0.602  1.00  0.00     0.275 HD
HETATM   17  H   UNL     1      38.865 -13.698   1.012  1.00  0.00     0.275 HD
ENDBRANCH   5  14
ENDBRANCH   1   5
BRANCH   2  18
HETATM   18  C   UNL     1      43.054 -17.226   0.886  1.00  0.00     0.127 C 
BRANCH  18  19
HETATM   19  C   UNL     1      43.440 -16.959   2.345  1.00  0.00     0.058 C 
BRANCH  19  20
HETATM   20  C   UNL     1      43.889 -18.193   3.098  1.00  0.00    -0.056 A 
HETATM   21  C   UNL     1      43.911 -19.442   2.459  1.00  0.00     0.023 A 
HETATM   22  C   UNL     1      44.305 -20.601   3.148  1.00  0.00     0.048 A 
HETATM   23  C   UNL     1      44.686 -20.493   4.493  1.00  0.00     0.016 A 
HETATM   24  C   UNL     1      44.659 -19.258   5.138  1.00  0.00     0.001 A 
HETATM   25  C   UNL     1      44.259 -18.114   4.446  1.00  0.00     0.007 A 
BRANCH  22  26
HETATM   26  C   UNL     1      44.329 -21.948   2.464  1.00  0.00     0.417 C 
HETATM   27  F   UNL     1      43.203 -22.202   1.740  1.00  0.00    -0.166 F 
HETATM   28  F   UNL     1      45.363 -22.053   1.584  1.00  0.00    -0.166 F 
HETATM   29  F   UNL     1      44.462 -22.983   3.334  1.00  0.00    -0.166 F 
ENDBRANCH  22  26
ENDBRANCH  19  20
ENDBRANCH  18  19
ENDBRANCH   2  18
TORSDOF 7
ENDMDL
MODEL 8
REMARK VINA RESULT:      -7.7      3.498      5.691
REMARK  7 active torsions:
REMARK  status: ('A' for Active; 'I' for Inactive)
REMARK    1  A    between atoms: C_8  and  C_9 
REMARK    2  A    between atoms: C_9  and  N_10 
REMARK    3  A    between atoms: C_9  and  C_14 
REMARK       I    between atoms: C_14  and  N_15 
REMARK    4  A    between atoms: N_15  and  C_16 
REMARK    5  A    between atoms: C_16  and  C_17 
REMARK    6  A    between atoms: C_17  and  C_18 
REMARK    7  A    between atoms: C_20  and  C_21 
ROOT
HETATM    1  C   UNL     1      41.035 -15.307   0.519  1.00  0.00     0.253 C 
HETATM    2  N   UNL     1      42.114 -16.094   0.199  1.00  0.00    -0.359 N 
HETATM    3  O   UNL     1      40.206 -15.584   1.388  1.00  0.00    -0.271 OA
HETATM    4  H   UNL     1      42.869 -15.710  -0.362  1.00  0.00     0.162 HD
ENDROOT
BRANCH   1   5
HETATM    5  C   UNL     1      40.828 -14.030  -0.324  1.00  0.00     0.311 C 
BRANCH   5   6
HETATM    6  C   UNL     1      39.714 -14.183  -1.302  1.00  0.00     0.031 A 
HETATM    7  C   UNL     1      39.673 -14.910  -2.486  1.00  0.00     0.035 A 
HETATM    8  C   UNL     1      40.653 -15.794  -3.169  1.00  0.00     0.070 C 
HETATM    9  N   UNL     1      38.421 -14.711  -3.007  1.00  0.00    -0.282 N 
HETATM   10  H   UNL     1      38.019 -15.092  -3.860  1.00  0.00     0.189 HD
HETATM   11  N   UNL     1      37.667 -13.899  -2.261  1.00  0.00    -0.179 NA
HETATM   12  C   UNL     1      38.427 -13.581  -1.216  1.00  0.00     0.061 A 
HETATM   13  C   UNL     1      37.877 -12.691  -0.157  1.00  0.00     0.073 C 
ENDBRANCH   5   6
BRANCH   5  14
HETATM   14  N   UNL     1      42.107 -13.715  -1.043  1.00  0.00    -0.062 N 
HETATM   15  H   UNL     1      42.890 -13.651  -0.385  1.00  0.00     0.275 HD
HETATM   16  H   UNL     1      42.321 -14.515  -1.655  1.00  0.00     0.275 HD
HETATM   17  H   UNL     1      42.038 -12.864  -1.607  1.00  0.00     0.275 HD
ENDBRANCH   5  14
ENDBRANCH   1   5
BRANCH   2  18
HETATM   18  C   UNL     1      42.459 -17.281   0.975  1.00  0.00     0.127 C 
BRANCH  18  19
HETATM   19  C   UNL     1      43.377 -16.962   2.159  1.00  0.00     0.058 C 
BRANCH  19  20
HETATM   20  C   UNL     1      43.825 -18.181   2.935  1.00  0.00    -0.056 A 
HETATM   21  C   UNL     1      43.878 -19.437   2.312  1.00  0.00     0.023 A 
HETATM   22  C   UNL     1      44.272 -20.583   3.022  1.00  0.00     0.048 A 
HETATM   23  C   UNL     1      44.620 -20.456   4.374  1.00  0.00     0.016 A 
HETATM   24  C   UNL     1      44.563 -19.214   5.004  1.00  0.00     0.001 A 
HETATM   25  C   UNL     1      44.163 -18.083   4.291  1.00  0.00     0.007 A 
BRANCH  22  26
HETATM   26  C   UNL     1      44.329 -21.937   2.354  1.00  0.00     0.417 C 
HETATM   27  F   UNL     1      45.401 -22.082   1.527  1.00  0.00    -0.166 F 
HETATM   28  F   UNL     1      44.426 -22.948   3.262  1.00  0.00    -0.166 F 
HETATM   29  F   UNL     1      43.229 -22.205   1.601  1.00  0.00    -0.166 F 
ENDBRANCH  22  26
ENDBRANCH  19  20
ENDBRANCH  18  19
ENDBRANCH   2  18
TORSDOF 7
ENDMDL
MODEL 9
REMARK VINA RESULT:      -7.7      4.020      6.231
REMARK  7 active torsions:
REMARK  status: ('A' for Active; 'I' for Inactive)
REMARK    1  A    between atoms: C_8  and  C_9 
REMARK    2  A    between atoms: C_9  and  N_10 
REMARK    3  A    between atoms: C_9  and  C_14 
REMARK       I    between atoms: C_14  and  N_15 
REMARK    4  A    between atoms: N_15  and  C_16 
REMARK    5  A    between atoms: C_16  and  C_17 
REMARK    6  A    between atoms: C_17  and  C_18 
REMARK    7  A    between atoms: C_20  and  C_21 
ROOT
HETATM    1  C   UNL     1      40.391 -15.026   0.627  1.00  0.00     0.253 C 
HETATM    2  N   UNL     1      40.877 -16.306   0.510  1.00  0.00    -0.359 N 
HETATM    3  O   UNL     1      40.368 -14.386   1.680  1.00  0.00    -0.271 OA
HETATM    4  H   UNL     1      41.069 -16.690  -0.412  1.00  0.00     0.162 HD
ENDROOT
BRANCH   1   5
HETATM    5  C   UNL     1      39.778 -14.394  -0.640  1.00  0.00     0.311 C 
BRANCH   5   6
HETATM    6  C   UNL     1      40.762 -14.316  -1.756  1.00  0.00     0.031 A 
HETATM    7  C   UNL     1      41.859 -13.475  -1.908  1.00  0.00     0.035 A 
HETATM    8  C   UNL     1      42.458 -12.422  -1.048  1.00  0.00     0.070 C 
HETATM    9  N   UNL     1      42.426 -13.809  -3.111  1.00  0.00    -0.282 N 
HETATM   10  H   UNL     1      43.253 -13.417  -3.555  1.00  0.00     0.189 HD
HETATM   11  N   UNL     1      41.768 -14.781  -3.747  1.00  0.00    -0.179 NA
HETATM   12  C   UNL     1      40.766 -15.112  -2.937  1.00  0.00     0.061 A 
HETATM   13  C   UNL     1      39.831 -16.199  -3.337  1.00  0.00     0.073 C 
ENDBRANCH   5   6
BRANCH   5  14
HETATM   14  N   UNL     1      39.275 -13.022  -0.300  1.00  0.00    -0.062 N 
HETATM   15  H   UNL     1      38.330 -12.876  -0.672  1.00  0.00     0.275 HD
HETATM   16  H   UNL     1      39.181 -12.973   0.724  1.00  0.00     0.275 HD
HETATM   17  H   UNL     1      39.907 -12.284  -0.619  1.00  0.00     0.275 HD
ENDBRANCH   5  14
ENDBRANCH   1   5
BRANCH   2  18
HETATM   18  C   UNL     1      41.552 -16.978   1.615  1.00  0.00     0.127 C 
BRANCH  18  19
HETATM   19  C   UNL     1      42.881 -17.613   1.192  1.00  0.00     0.058 C 
BRANCH  19  20
HETATM   20  C   UNL     1      43.483 -18.530   2.235  1.00  0.00    -0.056 A 
HETATM   21  C   UNL     1      43.758 -18.051   3.524  1.00  0.00     0.023 A 
HETATM   22  C   UNL     1      44.336 -18.882   4.499  1.00  0.00     0.048 A 
HETATM   23  C   UNL     1      44.632 -20.211   4.166  1.00  0.00     0.016 A 
HETATM   24  C   UNL     1      44.370 -20.694   2.884  1.00  0.00     0.001 A 
HETATM   25  C   UNL     1      43.803 -19.857   1.922  1.00  0.00     0.007 A 
BRANCH  22  26
HETATM   26  C   UNL     1      44.635 -18.369   5.888  1.00  0.00     0.417 C 
HETATM   27  F   UNL     1      45.962 -18.141   6.101  1.00  0.00    -0.166 F 
HETATM   28  F   UNL     1      44.015 -17.182   6.136  1.00  0.00    -0.166 F 
HETATM   29  F   UNL     1      44.234 -19.221   6.867  1.00  0.00    -0.166 F 
ENDBRANCH  22  26
ENDBRANCH  19  20
ENDBRANCH  18  19
ENDBRANCH   2  18
TORSDOF 7
ENDMDL
MODEL 10
REMARK VINA RESULT:      -7.6      3.403      5.452
REMARK  7 active torsions:
REMARK  status: ('A' for Active; 'I' for Inactive)
REMARK    1  A    between atoms: C_8  and  C_9 
REMARK    2  A    between atoms: C_9  and  N_10 
REMARK    3  A    between atoms: C_9  and  C_14 
REMARK       I    between atoms: C_14  and  N_15 
REMARK    4  A    between atoms: N_15  and  C_16 
REMARK    5  A    between atoms: C_16  and  C_17 
REMARK    6  A    between atoms: C_17  and  C_18 
REMARK    7  A    between atoms: C_20  and  C_21 
ROOT
HETATM    1  C   UNL     1      40.465 -14.744   0.796  1.00  0.00     0.253 C 
HETATM    2  N   UNL     1      41.553 -15.570   0.642  1.00  0.00    -0.359 N 
HETATM    3  O   UNL     1      39.920 -14.506   1.875  1.00  0.00    -0.271 OA
HETATM    4  H   UNL     1      42.082 -15.550  -0.225  1.00  0.00     0.162 HD
ENDROOT
BRANCH   1   5
HETATM    5  C   UNL     1      39.861 -14.140  -0.490  1.00  0.00     0.311 C 
BRANCH   5   6
HETATM    6  C   UNL     1      40.882 -13.984  -1.565  1.00  0.00     0.031 A 
HETATM    7  C   UNL     1      41.045 -14.710  -2.739  1.00  0.00     0.035 A 
HETATM    8  C   UNL     1      40.285 -15.828  -3.355  1.00  0.00     0.070 C 
HETATM    9  N   UNL     1      42.134 -14.166  -3.370  1.00  0.00    -0.282 N 
HETATM   10  H   UNL     1      42.549 -14.427  -4.261  1.00  0.00     0.189 HD
HETATM   11  N   UNL     1      42.690 -13.164  -2.684  1.00  0.00    -0.179 NA
HETATM   12  C   UNL     1      41.937 -13.028  -1.595  1.00  0.00     0.061 A 
HETATM   13  C   UNL     1      42.270 -11.968  -0.604  1.00  0.00     0.073 C 
ENDBRANCH   5   6
BRANCH   5  14
HETATM   14  N   UNL     1      39.254 -12.809  -0.158  1.00  0.00    -0.062 N 
HETATM   15  H   UNL     1      38.483 -12.915   0.509  1.00  0.00     0.275 HD
HETATM   16  H   UNL     1      39.972 -12.255   0.330  1.00  0.00     0.275 HD
HETATM   17  H   UNL     1      38.943 -12.303  -0.992  1.00  0.00     0.275 HD
ENDBRANCH   5  14
ENDBRANCH   1   5
BRANCH   2  18
HETATM   18  C   UNL     1      42.259 -16.134   1.787  1.00  0.00     0.127 C 
BRANCH  18  19
HETATM   19  C   UNL     1      43.463 -16.986   1.374  1.00  0.00     0.058 C 
BRANCH  19  20
HETATM   20  C   UNL     1      43.781 -18.110   2.336  1.00  0.00    -0.056 A 
HETATM   21  C   UNL     1      43.862 -19.434   1.876  1.00  0.00     0.023 A 
HETATM   22  C   UNL     1      44.136 -20.492   2.758  1.00  0.00     0.048 A 
HETATM   23  C   UNL     1      44.335 -20.207   4.116  1.00  0.00     0.016 A 
HETATM   24  C   UNL     1      44.248 -18.897   4.584  1.00  0.00     0.001 A 
HETATM   25  C   UNL     1      43.968 -17.854   3.700  1.00  0.00     0.007 A 
BRANCH  22  26
HETATM   26  C   UNL     1      44.222 -21.918   2.267  1.00  0.00     0.417 C 
HETATM   27  F   UNL     1      44.294 -22.830   3.277  1.00  0.00    -0.166 F 
HETATM   28  F   UNL     1      43.131 -22.270   1.532  1.00  0.00    -0.166 F 
HETATM   29  F   UNL     1      45.304 -22.143   1.476  1.00  0.00    -0.166 F 
ENDBRANCH  22  26
ENDBRANCH  19  20
ENDBRANCH  18  19
ENDBRANCH   2  18
TORSDOF 7
ENDMDL
