MODEL 1
REMARK VINA RESULT:      -8.2      0.000      0.000
REMARK  9 active torsions:
REMARK  status: ('A' for Active; 'I' for Inactive)
REMARK    1  A    between atoms: C_6  and  S_7 
REMARK    2  A    between atoms: S_7  and  C_8 
REMARK    3  A    between atoms: C_8  and  C_9 
REMARK       I    between atoms: C_9  and  N_10 
REMARK    4  A    between atoms: N_10  and  N_11 
REMARK    5  A    between atoms: N_11  and  C_12 
REMARK    6  A    between atoms: C_12  and  N_13 
REMARK    7  A    between atoms: N_13  and  C_14 
REMARK    8  A    between atoms: C_17  and  O_18 
REMARK    9  A    between atoms: O_18  and  C_19 
ROOT
HETATM    1  C   UNL     1      41.270 -16.815   6.163  1.00  0.00     0.245 C 
HETATM    2  N   UNL     1      40.699 -15.588   6.481  1.00  0.00    -0.267 N 
HETATM    3  O   UNL     1      40.893 -17.534   5.237  1.00  0.00    -0.271 OA
HETATM    4  H   UNL     1      41.312 -14.896   6.912  1.00  0.00     0.190 HD
ENDROOT
BRANCH   2   5
HETATM    5  N   UNL     1      39.754 -15.065   5.588  1.00  0.00    -0.274 N 
HETATM    6  H   UNL     1      38.795 -15.059   5.913  1.00  0.00     0.189 HD
BRANCH   5   7
HETATM    7  C   UNL     1      40.095 -14.569   4.357  1.00  0.00     0.191 C 
HETATM    8  S   UNL     1      41.186 -13.325   4.086  1.00  0.00    -0.039 SA
BRANCH   7   9
HETATM    9  N   UNL     1      39.585 -15.212   3.260  1.00  0.00    -0.332 N 
HETATM   10  H   UNL     1      38.725 -15.711   3.464  1.00  0.00     0.168 HD
BRANCH   9  11
HETATM   11  C   UNL     1      40.053 -15.292   1.935  1.00  0.00     0.034 A 
HETATM   12  C   UNL     1      39.643 -14.437   0.913  1.00  0.00     0.032 A 
HETATM   13  C   UNL     1      40.121 -14.615  -0.389  1.00  0.00     0.039 A 
HETATM   14  C   UNL     1      41.038 -15.625  -0.683  1.00  0.00     0.075 A 
HETATM   15  C   UNL     1      41.497 -16.443   0.348  1.00  0.00     0.039 A 
HETATM   16  C   UNL     1      41.016 -16.265   1.652  1.00  0.00     0.032 A 
BRANCH  14  17
HETATM   17  O   UNL     1      41.394 -15.704  -2.000  1.00  0.00    -0.290 OA
BRANCH  17  18
HETATM   18  C   UNL     1      40.462 -15.217  -2.950  1.00  0.00     0.505 C 
HETATM   19  F   UNL     1      41.090 -14.374  -3.807  1.00  0.00    -0.184 F 
HETATM   20  F   UNL     1      40.045 -16.277  -3.687  1.00  0.00    -0.184 F 
ENDBRANCH  17  18
ENDBRANCH  14  17
ENDBRANCH   9  11
ENDBRANCH   7   9
ENDBRANCH   5   7
ENDBRANCH   2   5
BRANCH   1  21
HETATM   21  C   UNL     1      42.433 -17.179   7.069  1.00  0.00     0.187 C 
BRANCH  21  22
HETATM   22  S   UNL     1      44.019 -16.943   6.220  1.00  0.00    -0.083 SA
BRANCH  22  23
HETATM   23  C   UNL     1      44.050 -18.329   5.197  1.00  0.00     0.168 A 
HETATM   24  N   UNL     1      44.531 -19.518   5.472  1.00  0.00    -0.223 NA
HETATM   25  C   UNL     1      44.380 -20.226   4.299  1.00  0.00     0.086 A 
HETATM   26  C   UNL     1      43.790 -19.441   3.310  1.00  0.00     0.063 A 
HETATM   27  C   UNL     1      44.737 -21.547   3.997  1.00  0.00     0.034 A 
HETATM   28  C   UNL     1      43.532 -19.897   2.017  1.00  0.00     0.032 A 
HETATM   29  N   UNL     1      43.578 -18.233   3.923  1.00  0.00    -0.333 N 
HETATM   30  C   UNL     1      43.900 -21.218   1.735  1.00  0.00     0.002 A 
HETATM   31  C   UNL     1      44.491 -22.031   2.704  1.00  0.00     0.002 A 
HETATM   32  H   UNL     1      43.181 -17.404   3.508  1.00  0.00     0.168 HD
ENDBRANCH  22  23
ENDBRANCH  21  22
ENDBRANCH   1  21
TORSDOF 9
ENDMDL
MODEL 2
REMARK VINA RESULT:      -8.2      5.479      8.515
REMARK  9 active torsions:
REMARK  status: ('A' for Active; 'I' for Inactive)
REMARK    1  A    between atoms: C_6  and  S_7 
REMARK    2  A    between atoms: S_7  and  C_8 
REMARK    3  A    between atoms: C_8  and  C_9 
REMARK       I    between atoms: C_9  and  N_10 
REMARK    4  A    between atoms: N_10  and  N_11 
REMARK    5  A    between atoms: N_11  and  C_12 
REMARK    6  A    between atoms: C_12  and  N_13 
REMARK    7  A    between atoms: N_13  and  C_14 
REMARK    8  A    between atoms: C_17  and  O_18 
REMARK    9  A    between atoms: O_18  and  C_19 
ROOT
HETATM    1  C   UNL     1      39.451 -12.560   6.406  1.00  0.00     0.245 C 
HETATM    2  N   UNL     1      40.161 -13.748   6.535  1.00  0.00    -0.267 N 
HETATM    3  O   UNL     1      38.663 -12.321   5.491  1.00  0.00    -0.271 OA
HETATM    4  H   UNL     1      40.404 -14.035   7.483  1.00  0.00     0.190 HD
ENDROOT
BRANCH   2   5
HETATM    5  N   UNL     1      39.828 -14.795   5.667  1.00  0.00    -0.274 N 
HETATM    6  H   UNL     1      38.932 -15.240   5.834  1.00  0.00     0.189 HD
BRANCH   5   7
HETATM    7  C   UNL     1      40.641 -15.192   4.638  1.00  0.00     0.191 C 
HETATM    8  S   UNL     1      41.840 -14.251   3.938  1.00  0.00    -0.039 SA
BRANCH   7   9
HETATM    9  N   UNL     1      40.537 -16.493   4.223  1.00  0.00    -0.332 N 
HETATM   10  H   UNL     1      39.610 -16.878   4.371  1.00  0.00     0.168 HD
BRANCH   9  11
HETATM   11  C   UNL     1      41.486 -17.358   3.646  1.00  0.00     0.034 A 
HETATM   12  C   UNL     1      41.631 -17.547   2.273  1.00  0.00     0.032 A 
HETATM   13  C   UNL     1      42.567 -18.463   1.782  1.00  0.00     0.039 A 
HETATM   14  C   UNL     1      43.394 -19.177   2.651  1.00  0.00     0.075 A 
HETATM   15  C   UNL     1      43.294 -18.945   4.023  1.00  0.00     0.039 A 
HETATM   16  C   UNL     1      42.354 -18.029   4.513  1.00  0.00     0.032 A 
BRANCH  14  17
HETATM   17  O   UNL     1      44.238 -20.059   2.038  1.00  0.00    -0.290 OA
BRANCH  17  18
HETATM   18  C   UNL     1      43.953 -21.438   2.195  1.00  0.00     0.505 C 
HETATM   19  F   UNL     1      42.762 -21.722   1.612  1.00  0.00    -0.184 F 
HETATM   20  F   UNL     1      44.895 -22.126   1.502  1.00  0.00    -0.184 F 
ENDBRANCH  17  18
ENDBRANCH  14  17
ENDBRANCH   9  11
ENDBRANCH   7   9
ENDBRANCH   5   7
ENDBRANCH   2   5
BRANCH   1  21
HETATM   21  C   UNL     1      39.732 -11.577   7.531  1.00  0.00     0.187 C 
BRANCH  21  22
HETATM   22  S   UNL     1      41.379 -10.838   7.353  1.00  0.00    -0.083 SA
BRANCH  22  23
HETATM   23  C   UNL     1      41.806 -10.595   9.005  1.00  0.00     0.168 A 
HETATM   24  N   UNL     1      42.918 -10.086   9.480  1.00  0.00    -0.223 NA
HETATM   25  C   UNL     1      42.784 -10.190  10.847  1.00  0.00     0.086 A 
HETATM   26  C   UNL     1      41.562 -10.766  11.191  1.00  0.00     0.063 A 
HETATM   27  C   UNL     1      43.674  -9.823  11.866  1.00  0.00     0.034 A 
HETATM   28  C   UNL     1      41.167 -11.005  12.508  1.00  0.00     0.032 A 
HETATM   29  N   UNL     1      40.952 -11.001   9.985  1.00  0.00    -0.333 N 
HETATM   30  C   UNL     1      42.071 -10.635  13.509  1.00  0.00     0.002 A 
HETATM   31  C   UNL     1      43.303 -10.054  13.198  1.00  0.00     0.002 A 
HETATM   32  H   UNL     1      40.052 -11.431   9.835  1.00  0.00     0.168 HD
ENDBRANCH  22  23
ENDBRANCH  21  22
ENDBRANCH   1  21
TORSDOF 9
ENDMDL
MODEL 3
REMARK VINA RESULT:      -8.1      3.811      5.843
REMARK  9 active torsions:
REMARK  status: ('A' for Active; 'I' for Inactive)
REMARK    1  A    between atoms: C_6  and  S_7 
REMARK    2  A    between atoms: S_7  and  C_8 
REMARK    3  A    between atoms: C_8  and  C_9 
REMARK       I    between atoms: C_9  and  N_10 
REMARK    4  A    between atoms: N_10  and  N_11 
REMARK    5  A    between atoms: N_11  and  C_12 
REMARK    6  A    between atoms: C_12  and  N_13 
REMARK    7  A    between atoms: N_13  and  C_14 
REMARK    8  A    between atoms: C_17  and  O_18 
REMARK    9  A    between atoms: O_18  and  C_19 
ROOT
HETATM    1  C   UNL     1      40.826 -16.413   1.162  1.00  0.00     0.245 C 
HETATM    2  N   UNL     1      39.769 -16.490   2.060  1.00  0.00    -0.267 N 
HETATM    3  O   UNL     1      41.115 -15.405   0.517  1.00  0.00    -0.271 OA
HETATM    4  H   UNL     1      39.875 -17.141   2.837  1.00  0.00     0.190 HD
ENDROOT
BRANCH   2   5
HETATM    5  N   UNL     1      39.103 -15.298   2.375  1.00  0.00    -0.274 N 
HETATM    6  H   UNL     1      38.196 -15.171   1.943  1.00  0.00     0.189 HD
BRANCH   5   7
HETATM    7  C   UNL     1      39.624 -14.363   3.231  1.00  0.00     0.191 C 
HETATM    8  S   UNL     1      40.006 -12.783   2.818  1.00  0.00    -0.039 SA
BRANCH   7   9
HETATM    9  N   UNL     1      39.739 -14.716   4.550  1.00  0.00    -0.332 N 
HETATM   10  H   UNL     1      38.864 -14.629   5.056  1.00  0.00     0.168 HD
BRANCH   9  11
HETATM   11  C   UNL     1      40.847 -15.163   5.293  1.00  0.00     0.034 A 
HETATM   12  C   UNL     1      42.055 -14.472   5.378  1.00  0.00     0.032 A 
HETATM   13  C   UNL     1      43.126 -15.011   6.099  1.00  0.00     0.039 A 
HETATM   14  C   UNL     1      42.997 -16.227   6.771  1.00  0.00     0.075 A 
HETATM   15  C   UNL     1      41.771 -16.891   6.739  1.00  0.00     0.039 A 
HETATM   16  C   UNL     1      40.700 -16.352   6.014  1.00  0.00     0.032 A 
BRANCH  14  17
HETATM   17  O   UNL     1      44.130 -16.649   7.407  1.00  0.00    -0.290 OA
BRANCH  17  18
HETATM   18  C   UNL     1      44.594 -17.952   7.100  1.00  0.00     0.505 C 
HETATM   19  F   UNL     1      45.826 -17.872   6.539  1.00  0.00    -0.184 F 
HETATM   20  F   UNL     1      44.747 -18.613   8.275  1.00  0.00    -0.184 F 
ENDBRANCH  17  18
ENDBRANCH  14  17
ENDBRANCH   9  11
ENDBRANCH   7   9
ENDBRANCH   5   7
ENDBRANCH   2   5
BRANCH   1  21
HETATM   21  C   UNL     1      41.615 -17.709   1.064  1.00  0.00     0.187 C 
BRANCH  21  22
HETATM   22  S   UNL     1      43.385 -17.415   1.333  1.00  0.00    -0.083 SA
BRANCH  22  23
HETATM   23  C   UNL     1      43.840 -18.875   2.127  1.00  0.00     0.168 A 
HETATM   24  N   UNL     1      43.881 -20.085   1.621  1.00  0.00    -0.223 NA
HETATM   25  C   UNL     1      44.228 -20.888   2.685  1.00  0.00     0.086 A 
HETATM   26  C   UNL     1      44.407 -20.137   3.845  1.00  0.00     0.063 A 
HETATM   27  C   UNL     1      44.400 -22.278   2.741  1.00  0.00     0.034 A 
HETATM   28  C   UNL     1      44.748 -20.694   5.078  1.00  0.00     0.032 A 
HETATM   29  N   UNL     1      44.164 -18.847   3.450  1.00  0.00    -0.333 N 
HETATM   30  C   UNL     1      44.911 -22.083   5.113  1.00  0.00     0.002 A 
HETATM   31  C   UNL     1      44.742 -22.864   3.968  1.00  0.00     0.002 A 
HETATM   32  H   UNL     1      44.181 -18.021   4.029  1.00  0.00     0.168 HD
ENDBRANCH  22  23
ENDBRANCH  21  22
ENDBRANCH   1  21
TORSDOF 9
ENDMDL
MODEL 4
REMARK VINA RESULT:      -8.0      3.947      5.661
REMARK  9 active torsions:
REMARK  status: ('A' for Active; 'I' for Inactive)
REMARK    1  A    between atoms: C_6  and  S_7 
REMARK    2  A    between atoms: S_7  and  C_8 
REMARK    3  A    between atoms: C_8  and  C_9 
REMARK       I    between atoms: C_9  and  N_10 
REMARK    4  A    between atoms: N_10  and  N_11 
REMARK    5  A    between atoms: N_11  and  C_12 
REMARK    6  A    between atoms: C_12  and  N_13 
REMARK    7  A    between atoms: N_13  and  C_14 
REMARK    8  A    between atoms: C_17  and  O_18 
REMARK    9  A    between atoms: O_18  and  C_19 
ROOT
HETATM    1  C   UNL     1      40.734 -11.422   3.590  1.00  0.00     0.245 C 
HETATM    2  N   UNL     1      41.964 -11.979   3.258  1.00  0.00    -0.267 N 
HETATM    3  O   UNL     1      39.898 -11.051   2.766  1.00  0.00    -0.271 OA
HETATM    4  H   UNL     1      42.361 -12.640   3.925  1.00  0.00     0.190 HD
ENDROOT
BRANCH   2   5
HETATM    5  N   UNL     1      42.188 -12.292   1.912  1.00  0.00    -0.274 N 
HETATM    6  H   UNL     1      42.622 -11.565   1.355  1.00  0.00     0.189 HD
BRANCH   5   7
HETATM    7  C   UNL     1      41.866 -13.509   1.371  1.00  0.00     0.191 C 
HETATM    8  S   UNL     1      41.654 -13.812  -0.265  1.00  0.00    -0.039 SA
BRANCH   7   9
HETATM    9  N   UNL     1      41.819 -14.580   2.223  1.00  0.00    -0.332 N 
HETATM   10  H   UNL     1      41.423 -14.344   3.126  1.00  0.00     0.168 HD
BRANCH   9  11
HETATM   11  C   UNL     1      42.227 -15.916   2.050  1.00  0.00     0.034 A 
HETATM   12  C   UNL     1      41.345 -16.985   1.904  1.00  0.00     0.032 A 
HETATM   13  C   UNL     1      41.832 -18.291   1.786  1.00  0.00     0.039 A 
HETATM   14  C   UNL     1      43.205 -18.545   1.779  1.00  0.00     0.075 A 
HETATM   15  C   UNL     1      44.091 -17.472   1.865  1.00  0.00     0.039 A 
HETATM   16  C   UNL     1      43.602 -16.164   1.984  1.00  0.00     0.032 A 
BRANCH  14  17
HETATM   17  O   UNL     1      43.539 -19.867   1.691  1.00  0.00    -0.290 OA
BRANCH  17  18
HETATM   18  C   UNL     1      44.580 -20.327   2.535  1.00  0.00     0.505 C 
HETATM   19  F   UNL     1      44.124 -20.406   3.810  1.00  0.00    -0.184 F 
HETATM   20  F   UNL     1      44.881 -21.593   2.152  1.00  0.00    -0.184 F 
ENDBRANCH  17  18
ENDBRANCH  14  17
ENDBRANCH   9  11
ENDBRANCH   7   9
ENDBRANCH   5   7
ENDBRANCH   2   5
BRANCH   1  21
HETATM   21  C   UNL     1      40.511 -11.332   5.090  1.00  0.00     0.187 C 
BRANCH  21  22
HETATM   22  S   UNL     1      39.393 -12.642   5.662  1.00  0.00    -0.083 SA
BRANCH  22  23
HETATM   23  C   UNL     1      40.462 -13.993   5.689  1.00  0.00     0.168 A 
HETATM   24  N   UNL     1      41.773 -13.978   5.718  1.00  0.00    -0.223 NA
HETATM   25  C   UNL     1      42.131 -15.308   5.649  1.00  0.00     0.086 A 
HETATM   26  C   UNL     1      41.006 -16.128   5.586  1.00  0.00     0.063 A 
HETATM   27  C   UNL     1      43.404 -15.894   5.622  1.00  0.00     0.034 A 
HETATM   28  C   UNL     1      41.073 -17.520   5.495  1.00  0.00     0.032 A 
HETATM   29  N   UNL     1      39.951 -15.254   5.628  1.00  0.00    -0.333 N 
HETATM   30  C   UNL     1      42.352 -18.084   5.466  1.00  0.00     0.002 A 
HETATM   31  C   UNL     1      43.499 -17.289   5.529  1.00  0.00     0.002 A 
HETATM   32  H   UNL     1      38.970 -15.486   5.585  1.00  0.00     0.168 HD
ENDBRANCH  22  23
ENDBRANCH  21  22
ENDBRANCH   1  21
TORSDOF 9
ENDMDL
MODEL 5
REMARK VINA RESULT:      -8.0      4.920      7.692
REMARK  9 active torsions:
REMARK  status: ('A' for Active; 'I' for Inactive)
REMARK    1  A    between atoms: C_6  and  S_7 
REMARK    2  A    between atoms: S_7  and  C_8 
REMARK    3  A    between atoms: C_8  and  C_9 
REMARK       I    between atoms: C_9  and  N_10 
REMARK    4  A    between atoms: N_10  and  N_11 
REMARK    5  A    between atoms: N_11  and  C_12 
REMARK    6  A    between atoms: C_12  and  N_13 
REMARK    7  A    between atoms: N_13  and  C_14 
REMARK    8  A    between atoms: C_17  and  O_18 
REMARK    9  A    between atoms: O_18  and  C_19 
ROOT
HETATM    1  C   UNL     1      39.289 -12.631   6.451  1.00  0.00     0.245 C 
HETATM    2  N   UNL     1      39.836 -13.898   6.617  1.00  0.00    -0.267 N 
HETATM    3  O   UNL     1      38.813 -12.215   5.395  1.00  0.00    -0.271 OA
HETATM    4  H   UNL     1      39.777 -14.303   7.550  1.00  0.00     0.190 HD
ENDROOT
BRANCH   2   5
HETATM    5  N   UNL     1      39.678 -14.810   5.566  1.00  0.00    -0.274 N 
HETATM    6  H   UNL     1      38.737 -15.158   5.420  1.00  0.00     0.189 HD
BRANCH   5   7
HETATM    7  C   UNL     1      40.716 -15.201   4.761  1.00  0.00     0.191 C 
HETATM    8  S   UNL     1      42.151 -14.356   4.560  1.00  0.00    -0.039 SA
BRANCH   7   9
HETATM    9  N   UNL     1      40.616 -16.428   4.161  1.00  0.00    -0.332 N 
HETATM   10  H   UNL     1      39.658 -16.754   4.094  1.00  0.00     0.168 HD
BRANCH   9  11
HETATM   11  C   UNL     1      41.605 -17.287   3.644  1.00  0.00     0.034 A 
HETATM   12  C   UNL     1      41.929 -17.371   2.291  1.00  0.00     0.032 A 
HETATM   13  C   UNL     1      42.891 -18.287   1.852  1.00  0.00     0.039 A 
HETATM   14  C   UNL     1      43.565 -19.107   2.759  1.00  0.00     0.075 A 
HETATM   15  C   UNL     1      43.286 -18.982   4.120  1.00  0.00     0.039 A 
HETATM   16  C   UNL     1      42.321 -18.066   4.558  1.00  0.00     0.032 A 
BRANCH  14  17
HETATM   17  O   UNL     1      44.453 -19.975   2.190  1.00  0.00    -0.290 OA
BRANCH  17  18
HETATM   18  C   UNL     1      44.022 -21.313   2.012  1.00  0.00     0.505 C 
HETATM   19  F   UNL     1      44.130 -21.981   3.187  1.00  0.00    -0.184 F 
HETATM   20  F   UNL     1      42.700 -21.275   1.709  1.00  0.00    -0.184 F 
ENDBRANCH  17  18
ENDBRANCH  14  17
ENDBRANCH   9  11
ENDBRANCH   7   9
ENDBRANCH   5   7
ENDBRANCH   2   5
BRANCH   1  21
HETATM   21  C   UNL     1      39.319 -11.803   7.725  1.00  0.00     0.187 C 
BRANCH  21  22
HETATM   22  S   UNL     1      40.250 -10.265   7.480  1.00  0.00    -0.083 SA
BRANCH  22  23
HETATM   23  C   UNL     1      41.683 -10.607   8.374  1.00  0.00     0.168 A 
HETATM   24  N   UNL     1      42.105 -10.021   9.469  1.00  0.00    -0.223 NA
HETATM   25  C   UNL     1      43.325 -10.609   9.722  1.00  0.00     0.086 A 
HETATM   26  C   UNL     1      43.629 -11.571   8.761  1.00  0.00     0.063 A 
HETATM   27  C   UNL     1      44.242 -10.364  10.754  1.00  0.00     0.034 A 
HETATM   28  C   UNL     1      44.810 -12.315   8.762  1.00  0.00     0.032 A 
HETATM   29  N   UNL     1      42.548 -11.555   7.917  1.00  0.00    -0.333 N 
HETATM   30  C   UNL     1      45.713 -12.052   9.798  1.00  0.00     0.002 A 
HETATM   31  C   UNL     1      45.438 -11.096  10.778  1.00  0.00     0.002 A 
HETATM   32  H   UNL     1      42.420 -12.111   7.085  1.00  0.00     0.168 HD
ENDBRANCH  22  23
ENDBRANCH  21  22
ENDBRANCH   1  21
TORSDOF 9
ENDMDL
MODEL 6
REMARK VINA RESULT:      -7.9      3.413      6.318
REMARK  9 active torsions:
REMARK  status: ('A' for Active; 'I' for Inactive)
REMARK    1  A    between atoms: C_6  and  S_7 
REMARK    2  A    between atoms: S_7  and  C_8 
REMARK    3  A    between atoms: C_8  and  C_9 
REMARK       I    between atoms: C_9  and  N_10 
REMARK    4  A    between atoms: N_10  and  N_11 
REMARK    5  A    between atoms: N_11  and  C_12 
REMARK    6  A    between atoms: C_12  and  N_13 
REMARK    7  A    between atoms: N_13  and  C_14 
REMARK    8  A    between atoms: C_17  and  O_18 
REMARK    9  A    between atoms: O_18  and  C_19 
ROOT
HETATM    1  C   UNL     1      42.214 -12.668   4.923  1.00  0.00     0.245 C 
HETATM    2  N   UNL     1      41.883 -13.326   6.101  1.00  0.00    -0.267 N 
HETATM    3  O   UNL     1      43.142 -12.996   4.183  1.00  0.00    -0.271 OA
HETATM    4  H   UNL     1      40.903 -13.295   6.382  1.00  0.00     0.190 HD
ENDROOT
BRANCH   2   5
HETATM    5  N   UNL     1      42.536 -14.536   6.369  1.00  0.00    -0.274 N 
HETATM    6  H   UNL     1      43.278 -14.495   7.057  1.00  0.00     0.189 HD
BRANCH   5   7
HETATM    7  C   UNL     1      42.190 -15.715   5.761  1.00  0.00     0.191 C 
HETATM    8  S   UNL     1      40.921 -16.705   6.230  1.00  0.00    -0.039 SA
BRANCH   7   9
HETATM    9  N   UNL     1      42.866 -16.053   4.619  1.00  0.00    -0.332 N 
HETATM   10  H   UNL     1      43.002 -15.263   3.997  1.00  0.00     0.168 HD
BRANCH   9  11
HETATM   11  C   UNL     1      43.383 -17.287   4.182  1.00  0.00     0.034 A 
HETATM   12  C   UNL     1      43.648 -18.362   5.030  1.00  0.00     0.032 A 
HETATM   13  C   UNL     1      44.208 -19.539   4.523  1.00  0.00     0.039 A 
HETATM   14  C   UNL     1      44.480 -19.673   3.160  1.00  0.00     0.075 A 
HETATM   15  C   UNL     1      44.160 -18.623   2.300  1.00  0.00     0.039 A 
HETATM   16  C   UNL     1      43.601 -17.443   2.810  1.00  0.00     0.032 A 
BRANCH  14  17
HETATM   17  O   UNL     1      45.055 -20.861   2.809  1.00  0.00    -0.290 OA
BRANCH  17  18
HETATM   18  C   UNL     1      44.183 -21.911   2.426  1.00  0.00     0.505 C 
HETATM   19  F   UNL     1      44.301 -22.131   1.093  1.00  0.00    -0.184 F 
HETATM   20  F   UNL     1      44.614 -23.039   3.043  1.00  0.00    -0.184 F 
ENDBRANCH  17  18
ENDBRANCH  14  17
ENDBRANCH   9  11
ENDBRANCH   7   9
ENDBRANCH   5   7
ENDBRANCH   2   5
BRANCH   1  21
HETATM   21  C   UNL     1      41.295 -11.496   4.622  1.00  0.00     0.187 C 
BRANCH  21  22
HETATM   22  S   UNL     1      39.613 -12.066   4.249  1.00  0.00    -0.083 SA
BRANCH  22  23
HETATM   23  C   UNL     1      39.946 -13.400   3.209  1.00  0.00     0.168 A 
HETATM   24  N   UNL     1      39.633 -14.660   3.396  1.00  0.00    -0.223 NA
HETATM   25  C   UNL     1      40.192 -15.313   2.319  1.00  0.00     0.086 A 
HETATM   26  C   UNL     1      40.843 -14.419   1.471  1.00  0.00     0.063 A 
HETATM   27  C   UNL     1      40.197 -16.679   2.002  1.00  0.00     0.034 A 
HETATM   28  C   UNL     1      41.511 -14.808   0.308  1.00  0.00     0.032 A 
HETATM   29  N   UNL     1      40.654 -13.197   2.063  1.00  0.00    -0.333 N 
HETATM   30  C   UNL     1      41.506 -16.175   0.012  1.00  0.00     0.002 A 
HETATM   31  C   UNL     1      40.862 -17.097   0.841  1.00  0.00     0.002 A 
HETATM   32  H   UNL     1      41.002 -12.307   1.741  1.00  0.00     0.168 HD
ENDBRANCH  22  23
ENDBRANCH  21  22
ENDBRANCH   1  21
TORSDOF 9
ENDMDL
MODEL 7
REMARK VINA RESULT:      -7.7      5.084      7.812
REMARK  9 active torsions:
REMARK  status: ('A' for Active; 'I' for Inactive)
REMARK    1  A    between atoms: C_6  and  S_7 
REMARK    2  A    between atoms: S_7  and  C_8 
REMARK    3  A    between atoms: C_8  and  C_9 
REMARK       I    between atoms: C_9  and  N_10 
REMARK    4  A    between atoms: N_10  and  N_11 
REMARK    5  A    between atoms: N_11  and  C_12 
REMARK    6  A    between atoms: C_12  and  N_13 
REMARK    7  A    between atoms: N_13  and  C_14 
REMARK    8  A    between atoms: C_17  and  O_18 
REMARK    9  A    between atoms: O_18  and  C_19 
ROOT
HETATM    1  C   UNL     1      43.127 -14.330   6.037  1.00  0.00     0.245 C 
HETATM    2  N   UNL     1      43.673 -13.693   4.929  1.00  0.00    -0.267 N 
HETATM    3  O   UNL     1      41.926 -14.553   6.185  1.00  0.00    -0.271 OA
HETATM    4  H   UNL     1      44.628 -13.949   4.679  1.00  0.00     0.190 HD
ENDROOT
BRANCH   2   5
HETATM    5  N   UNL     1      42.824 -13.450   3.842  1.00  0.00    -0.274 N 
HETATM    6  H   UNL     1      42.580 -12.480   3.680  1.00  0.00     0.189 HD
BRANCH   5   7
HETATM    7  C   UNL     1      42.360 -14.448   3.026  1.00  0.00     0.191 C 
HETATM    8  S   UNL     1      40.756 -14.671   2.589  1.00  0.00    -0.039 SA
BRANCH   7   9
HETATM    9  N   UNL     1      43.294 -15.260   2.437  1.00  0.00    -0.332 N 
HETATM   10  H   UNL     1      43.902 -14.757   1.799  1.00  0.00     0.168 HD
BRANCH   9  11
HETATM   11  C   UNL     1      43.532 -16.640   2.569  1.00  0.00     0.034 A 
HETATM   12  C   UNL     1      43.908 -17.468   1.511  1.00  0.00     0.032 A 
HETATM   13  C   UNL     1      44.078 -18.841   1.717  1.00  0.00     0.039 A 
HETATM   14  C   UNL     1      43.908 -19.402   2.984  1.00  0.00     0.075 A 
HETATM   15  C   UNL     1      43.591 -18.567   4.056  1.00  0.00     0.039 A 
HETATM   16  C   UNL     1      43.419 -17.192   3.848  1.00  0.00     0.032 A 
BRANCH  14  17
HETATM   17  O   UNL     1      44.073 -20.757   3.033  1.00  0.00    -0.290 OA
BRANCH  17  18
HETATM   18  C   UNL     1      44.061 -21.453   1.799  1.00  0.00     0.505 C 
HETATM   19  F   UNL     1      44.878 -22.532   1.882  1.00  0.00    -0.184 F 
HETATM   20  F   UNL     1      42.804 -21.932   1.618  1.00  0.00    -0.184 F 
ENDBRANCH  17  18
ENDBRANCH  14  17
ENDBRANCH   9  11
ENDBRANCH   7   9
ENDBRANCH   5   7
ENDBRANCH   2   5
BRANCH   1  21
HETATM   21  C   UNL     1      44.175 -14.745   7.057  1.00  0.00     0.187 C 
BRANCH  21  22
HETATM   22  S   UNL     1      45.351 -13.399   7.368  1.00  0.00    -0.083 SA
BRANCH  22  23
HETATM   23  C   UNL     1      44.616 -12.633   8.726  1.00  0.00     0.168 A 
HETATM   24  N   UNL     1      44.857 -12.851   9.997  1.00  0.00    -0.223 NA
HETATM   25  C   UNL     1      43.955 -12.044  10.657  1.00  0.00     0.086 A 
HETATM   26  C   UNL     1      43.169 -11.327   9.758  1.00  0.00     0.063 A 
HETATM   27  C   UNL     1      43.739 -11.879  12.033  1.00  0.00     0.034 A 
HETATM   28  C   UNL     1      42.162 -10.442  10.150  1.00  0.00     0.032 A 
HETATM   29  N   UNL     1      43.628 -11.717   8.526  1.00  0.00    -0.333 N 
HETATM   30  C   UNL     1      41.961 -10.296  11.526  1.00  0.00     0.002 A 
HETATM   31  C   UNL     1      42.733 -10.999  12.454  1.00  0.00     0.002 A 
HETATM   32  H   UNL     1      43.282 -11.418   7.627  1.00  0.00     0.168 HD
ENDBRANCH  22  23
ENDBRANCH  21  22
ENDBRANCH   1  21
TORSDOF 9
ENDMDL
MODEL 8
REMARK VINA RESULT:      -7.6      4.228      6.274
REMARK  9 active torsions:
REMARK  status: ('A' for Active; 'I' for Inactive)
REMARK    1  A    between atoms: C_6  and  S_7 
REMARK    2  A    between atoms: S_7  and  C_8 
REMARK    3  A    between atoms: C_8  and  C_9 
REMARK       I    between atoms: C_9  and  N_10 
REMARK    4  A    between atoms: N_10  and  N_11 
REMARK    5  A    between atoms: N_11  and  C_12 
REMARK    6  A    between atoms: C_12  and  N_13 
REMARK    7  A    between atoms: N_13  and  C_14 
REMARK    8  A    between atoms: C_17  and  O_18 
REMARK    9  A    between atoms: O_18  and  C_19 
ROOT
HETATM    1  C   UNL     1      42.532 -13.928   2.248  1.00  0.00     0.245 C 
HETATM    2  N   UNL     1      41.641 -12.880   2.451  1.00  0.00    -0.267 N 
HETATM    3  O   UNL     1      43.639 -14.008   2.780  1.00  0.00    -0.271 OA
HETATM    4  H   UNL     1      40.649 -13.100   2.365  1.00  0.00     0.190 HD
ENDROOT
BRANCH   2   5
HETATM    5  N   UNL     1      41.956 -11.952   3.452  1.00  0.00    -0.274 N 
HETATM    6  H   UNL     1      42.403 -11.098   3.139  1.00  0.00     0.189 HD
BRANCH   5   7
HETATM    7  C   UNL     1      41.663 -12.161   4.775  1.00  0.00     0.191 C 
HETATM    8  S   UNL     1      40.201 -11.793   5.509  1.00  0.00    -0.039 SA
BRANCH   7   9
HETATM    9  N   UNL     1      42.600 -12.819   5.527  1.00  0.00    -0.332 N 
HETATM   10  H   UNL     1      43.397 -12.236   5.757  1.00  0.00     0.168 HD
BRANCH   9  11
HETATM   11  C   UNL     1      42.633 -14.140   6.012  1.00  0.00     0.034 A 
HETATM   12  C   UNL     1      41.575 -15.040   5.887  1.00  0.00     0.032 A 
HETATM   13  C   UNL     1      41.670 -16.321   6.441  1.00  0.00     0.039 A 
HETATM   14  C   UNL     1      42.832 -16.733   7.097  1.00  0.00     0.075 A 
HETATM   15  C   UNL     1      43.914 -15.856   7.170  1.00  0.00     0.039 A 
HETATM   16  C   UNL     1      43.817 -14.573   6.617  1.00  0.00     0.032 A 
BRANCH  14  17
HETATM   17  O   UNL     1      42.774 -17.995   7.616  1.00  0.00    -0.290 OA
BRANCH  17  18
HETATM   18  C   UNL     1      44.004 -18.681   7.779  1.00  0.00     0.505 C 
HETATM   19  F   UNL     1      44.404 -18.588   9.072  1.00  0.00    -0.184 F 
HETATM   20  F   UNL     1      43.767 -19.996   7.542  1.00  0.00    -0.184 F 
ENDBRANCH  17  18
ENDBRANCH  14  17
ENDBRANCH   9  11
ENDBRANCH   7   9
ENDBRANCH   5   7
ENDBRANCH   2   5
BRANCH   1  21
HETATM   21  C   UNL     1      41.990 -14.991   1.307  1.00  0.00     0.187 C 
BRANCH  21  22
HETATM   22  S   UNL     1      40.933 -16.168   2.194  1.00  0.00    -0.083 SA
BRANCH  22  23
HETATM   23  C   UNL     1      42.013 -17.497   2.383  1.00  0.00     0.168 A 
HETATM   24  N   UNL     1      42.187 -18.513   1.571  1.00  0.00    -0.223 NA
HETATM   25  C   UNL     1      43.095 -19.319   2.222  1.00  0.00     0.086 A 
HETATM   26  C   UNL     1      43.475 -18.764   3.443  1.00  0.00     0.063 A 
HETATM   27  C   UNL     1      43.637 -20.553   1.837  1.00  0.00     0.034 A 
HETATM   28  C   UNL     1      44.374 -19.375   4.319  1.00  0.00     0.032 A 
HETATM   29  N   UNL     1      42.773 -17.588   3.510  1.00  0.00    -0.333 N 
HETATM   30  C   UNL     1      44.900 -20.607   3.917  1.00  0.00     0.002 A 
HETATM   31  C   UNL     1      44.541 -21.189   2.699  1.00  0.00     0.002 A 
HETATM   32  H   UNL     1      42.780 -16.921   4.266  1.00  0.00     0.168 HD
ENDBRANCH  22  23
ENDBRANCH  21  22
ENDBRANCH   1  21
TORSDOF 9
ENDMDL
MODEL 9
REMARK VINA RESULT:      -7.4      3.530      7.206
REMARK  9 active torsions:
REMARK  status: ('A' for Active; 'I' for Inactive)
REMARK    1  A    between atoms: C_6  and  S_7 
REMARK    2  A    between atoms: S_7  and  C_8 
REMARK    3  A    between atoms: C_8  and  C_9 
REMARK       I    between atoms: C_9  and  N_10 
REMARK    4  A    between atoms: N_10  and  N_11 
REMARK    5  A    between atoms: N_11  and  C_12 
REMARK    6  A    between atoms: C_12  and  N_13 
REMARK    7  A    between atoms: N_13  and  C_14 
REMARK    8  A    between atoms: C_17  and  O_18 
REMARK    9  A    between atoms: O_18  and  C_19 
ROOT
HETATM    1  C   UNL     1      41.775 -13.258   3.885  1.00  0.00     0.245 C 
HETATM    2  N   UNL     1      41.584 -14.556   4.346  1.00  0.00    -0.267 N 
HETATM    3  O   UNL     1      42.022 -12.296   4.611  1.00  0.00    -0.271 OA
HETATM    4  H   UNL     1      41.837 -15.310   3.707  1.00  0.00     0.190 HD
ENDROOT
BRANCH   2   5
HETATM    5  N   UNL     1      41.862 -14.808   5.695  1.00  0.00    -0.274 N 
HETATM    6  H   UNL     1      41.163 -14.492   6.357  1.00  0.00     0.189 HD
BRANCH   5   7
HETATM    7  C   UNL     1      42.994 -15.461   6.109  1.00  0.00     0.191 C 
HETATM    8  S   UNL     1      44.359 -14.719   6.741  1.00  0.00    -0.039 SA
BRANCH   7   9
HETATM    9  N   UNL     1      42.964 -16.830   6.106  1.00  0.00    -0.332 N 
HETATM   10  H   UNL     1      42.495 -17.213   6.919  1.00  0.00     0.168 HD
BRANCH   9  11
HETATM   11  C   UNL     1      43.471 -17.762   5.181  1.00  0.00     0.034 A 
HETATM   12  C   UNL     1      43.419 -17.593   3.798  1.00  0.00     0.032 A 
HETATM   13  C   UNL     1      43.902 -18.592   2.947  1.00  0.00     0.039 A 
HETATM   14  C   UNL     1      44.473 -19.757   3.461  1.00  0.00     0.075 A 
HETATM   15  C   UNL     1      44.582 -19.903   4.844  1.00  0.00     0.039 A 
HETATM   16  C   UNL     1      44.096 -18.902   5.696  1.00  0.00     0.032 A 
BRANCH  14  17
HETATM   17  O   UNL     1      44.873 -20.659   2.517  1.00  0.00    -0.290 OA
BRANCH  17  18
HETATM   18  C   UNL     1      44.033 -21.779   2.300  1.00  0.00     0.505 C 
HETATM   19  F   UNL     1      44.214 -22.240   1.037  1.00  0.00    -0.184 F 
HETATM   20  F   UNL     1      44.450 -22.765   3.134  1.00  0.00    -0.184 F 
ENDBRANCH  17  18
ENDBRANCH  14  17
ENDBRANCH   9  11
ENDBRANCH   7   9
ENDBRANCH   5   7
ENDBRANCH   2   5
BRANCH   1  21
HETATM   21  C   UNL     1      41.664 -13.145   2.374  1.00  0.00     0.187 C 
BRANCH  21  22
HETATM   22  S   UNL     1      42.202 -14.677   1.565  1.00  0.00    -0.083 SA
BRANCH  22  23
HETATM   23  C   UNL     1      41.252 -14.637   0.127  1.00  0.00     0.168 A 
HETATM   24  N   UNL     1      40.161 -13.944  -0.094  1.00  0.00    -0.223 NA
HETATM   25  C   UNL     1      39.762 -14.330  -1.355  1.00  0.00     0.086 A 
HETATM   26  C   UNL     1      40.641 -15.266  -1.896  1.00  0.00     0.063 A 
HETATM   27  C   UNL     1      38.646 -13.931  -2.104  1.00  0.00     0.034 A 
HETATM   28  C   UNL     1      40.473 -15.841  -3.157  1.00  0.00     0.032 A 
HETATM   29  N   UNL     1      41.595 -15.431  -0.925  1.00  0.00    -0.333 N 
HETATM   30  C   UNL     1      39.351 -15.433  -3.886  1.00  0.00     0.002 A 
HETATM   31  C   UNL     1      38.452 -14.495  -3.373  1.00  0.00     0.002 A 
HETATM   32  H   UNL     1      42.389 -16.052  -0.955  1.00  0.00     0.168 HD
ENDBRANCH  22  23
ENDBRANCH  21  22
ENDBRANCH   1  21
TORSDOF 9
ENDMDL
MODEL 10
REMARK VINA RESULT:      -7.4      6.237      8.052
REMARK  9 active torsions:
REMARK  status: ('A' for Active; 'I' for Inactive)
REMARK    1  A    between atoms: C_6  and  S_7 
REMARK    2  A    between atoms: S_7  and  C_8 
REMARK    3  A    between atoms: C_8  and  C_9 
REMARK       I    between atoms: C_9  and  N_10 
REMARK    4  A    between atoms: N_10  and  N_11 
REMARK    5  A    between atoms: N_11  and  C_12 
REMARK    6  A    between atoms: C_12  and  N_13 
REMARK    7  A    between atoms: N_13  and  C_14 
REMARK    8  A    between atoms: C_17  and  O_18 
REMARK    9  A    between atoms: O_18  and  C_19 
ROOT
HETATM    1  C   UNL     1      41.274 -14.721   5.591  1.00  0.00     0.245 C 
HETATM    2  N   UNL     1      39.936 -14.460   5.862  1.00  0.00    -0.267 N 
HETATM    3  O   UNL     1      42.200 -13.968   5.889  1.00  0.00    -0.271 OA
HETATM    4  H   UNL     1      39.332 -15.269   6.004  1.00  0.00     0.190 HD
ENDROOT
BRANCH   2   5
HETATM    5  N   UNL     1      39.647 -13.357   6.676  1.00  0.00    -0.274 N 
HETATM    6  H   UNL     1      39.594 -13.542   7.671  1.00  0.00     0.189 HD
BRANCH   5   7
HETATM    7  C   UNL     1      39.466 -12.094   6.175  1.00  0.00     0.191 C 
HETATM    8  S   UNL     1      39.019 -11.736   4.598  1.00  0.00    -0.039 SA
BRANCH   7   9
HETATM    9  N   UNL     1      39.553 -11.051   7.059  1.00  0.00    -0.332 N 
HETATM   10  H   UNL     1      39.049 -10.229   6.744  1.00  0.00     0.168 HD
BRANCH   9  11
HETATM   11  C   UNL     1      40.217 -10.941   8.295  1.00  0.00     0.034 A 
HETATM   12  C   UNL     1      39.606 -11.170   9.527  1.00  0.00     0.032 A 
HETATM   13  C   UNL     1      40.325 -10.991  10.714  1.00  0.00     0.039 A 
HETATM   14  C   UNL     1      41.669 -10.615  10.687  1.00  0.00     0.075 A 
HETATM   15  C   UNL     1      42.299 -10.445   9.455  1.00  0.00     0.039 A 
HETATM   16  C   UNL     1      41.578 -10.622   8.267  1.00  0.00     0.032 A 
BRANCH  14  17
HETATM   17  O   UNL     1      42.237 -10.446  11.918  1.00  0.00    -0.290 OA
BRANCH  17  18
HETATM   18  C   UNL     1      43.628 -10.179  11.955  1.00  0.00     0.505 C 
HETATM   19  F   UNL     1      43.958  -9.675  13.170  1.00  0.00    -0.184 F 
HETATM   20  F   UNL     1      44.271 -11.368  11.843  1.00  0.00    -0.184 F 
ENDBRANCH  17  18
ENDBRANCH  14  17
ENDBRANCH   9  11
ENDBRANCH   7   9
ENDBRANCH   5   7
ENDBRANCH   2   5
BRANCH   1  21
HETATM   21  C   UNL     1      41.487 -16.055   4.895  1.00  0.00     0.187 C 
BRANCH  21  22
HETATM   22  S   UNL     1      42.884 -15.973   3.741  1.00  0.00    -0.083 SA
BRANCH  22  23
HETATM   23  C   UNL     1      43.314 -17.638   3.631  1.00  0.00     0.168 A 
HETATM   24  N   UNL     1      43.982 -18.354   4.503  1.00  0.00    -0.223 NA
HETATM   25  C   UNL     1      44.119 -19.585   3.900  1.00  0.00     0.086 A 
HETATM   26  C   UNL     1      43.512 -19.602   2.645  1.00  0.00     0.063 A 
HETATM   27  C   UNL     1      44.765 -20.742   4.360  1.00  0.00     0.034 A 
HETATM   28  C   UNL     1      43.511 -20.716   1.806  1.00  0.00     0.032 A 
HETATM   29  N   UNL     1      42.992 -18.340   2.509  1.00  0.00    -0.333 N 
HETATM   30  C   UNL     1      44.163 -21.859   2.282  1.00  0.00     0.002 A 
HETATM   31  C   UNL     1      44.779 -21.876   3.535  1.00  0.00     0.002 A 
HETATM   32  H   UNL     1      42.493 -17.973   1.712  1.00  0.00     0.168 HD
ENDBRANCH  22  23
ENDBRANCH  21  22
ENDBRANCH   1  21
TORSDOF 9
ENDMDL
