MODEL 1
REMARK VINA RESULT:      -8.5      0.000      0.000
REMARK  2 active torsions:
REMARK  status: ('A' for Active; 'I' for Inactive)
REMARK    1  A    between atoms: C_7  and  C_8 
REMARK    2  A    between atoms: C_8  and  O_9 
ROOT
HETATM    1  C   UNL     1      41.530 -16.921   4.845  1.00  0.00     0.199 A 
HETATM    2  C   UNL     1      40.771 -16.559   6.164  1.00  0.00     0.266 A 
HETATM    3  O   UNL     1      40.095 -17.303   6.860  1.00  0.00    -0.269 OA
HETATM    4  N   UNL     1      40.943 -15.193   6.385  1.00  0.00    -0.323 N 
HETATM    5  C   UNL     1      41.707 -14.617   5.379  1.00  0.00     0.045 A 
HETATM    6  C   UNL     1      42.094 -15.581   4.443  1.00  0.00     0.017 A 
HETATM    7  C   UNL     1      42.047 -13.285   5.261  1.00  0.00     0.030 A 
HETATM    8  C   UNL     1      42.806 -12.911   4.150  1.00  0.00     0.002 A 
HETATM    9  C   UNL     1      43.199 -13.865   3.195  1.00  0.00     0.001 A 
HETATM   10  C   UNL     1      42.841 -15.209   3.334  1.00  0.00     0.013 A 
HETATM   11  H   UNL     1      40.520 -14.704   7.157  1.00  0.00     0.169 HD
ENDROOT
BRANCH   1  12
HETATM   12  C   UNL     1      42.693 -17.873   5.026  1.00  0.00     0.025 A 
HETATM   13  C   UNL     1      43.461 -18.024   6.184  1.00  0.00     0.016 A 
HETATM   14  C   UNL     1      43.379 -17.357   7.512  1.00  0.00     0.069 C 
HETATM   15  N   UNL     1      44.422 -18.969   5.941  1.00  0.00    -0.359 N 
HETATM   16  H   UNL     1      45.121 -19.273   6.605  1.00  0.00     0.166 HD
HETATM   17  C   UNL     1      44.314 -19.457   4.665  1.00  0.00     0.043 A 
HETATM   18  C   UNL     1      43.239 -18.803   4.061  1.00  0.00     0.003 A 
HETATM   19  C   UNL     1      45.091 -20.425   4.014  1.00  0.00     0.030 A 
HETATM   20  C   UNL     1      42.931 -19.157   2.727  1.00  0.00     0.014 A 
HETATM   21  C   UNL     1      43.698 -20.120   2.059  1.00  0.00     0.001 A 
HETATM   22  C   UNL     1      44.765 -20.743   2.695  1.00  0.00     0.002 A 
ENDBRANCH   1  12
BRANCH   1  23
HETATM   23  O   UNL     1      40.588 -17.368   3.873  1.00  0.00    -0.371 OA
HETATM   24  H   UNL     1      39.794 -17.585   4.395  1.00  0.00     0.212 HD
ENDBRANCH   1  23
TORSDOF 2
ENDMDL
MODEL 2
REMARK VINA RESULT:      -8.1      2.028      2.838
REMARK  2 active torsions:
REMARK  status: ('A' for Active; 'I' for Inactive)
REMARK    1  A    between atoms: C_7  and  C_8 
REMARK    2  A    between atoms: C_8  and  O_9 
ROOT
HETATM    1  C   UNL     1      41.353 -16.119   4.911  1.00  0.00     0.199 A 
HETATM    2  C   UNL     1      41.091 -16.916   6.232  1.00  0.00     0.266 A 
HETATM    3  O   UNL     1      40.154 -17.663   6.474  1.00  0.00    -0.269 OA
HETATM    4  N   UNL     1      42.096 -16.573   7.135  1.00  0.00    -0.323 N 
HETATM    5  C   UNL     1      42.973 -15.651   6.579  1.00  0.00     0.045 A 
HETATM    6  C   UNL     1      42.600 -15.347   5.266  1.00  0.00     0.017 A 
HETATM    7  C   UNL     1      44.062 -15.071   7.197  1.00  0.00     0.030 A 
HETATM    8  C   UNL     1      44.800 -14.143   6.460  1.00  0.00     0.002 A 
HETATM    9  C   UNL     1      44.436 -13.819   5.141  1.00  0.00     0.001 A 
HETATM   10  C   UNL     1      43.327 -14.418   4.536  1.00  0.00     0.013 A 
HETATM   11  H   UNL     1      42.133 -16.928   8.077  1.00  0.00     0.169 HD
ENDROOT
BRANCH   1  12
HETATM   12  C   UNL     1      41.674 -16.979   3.707  1.00  0.00     0.025 A 
HETATM   13  C   UNL     1      41.067 -16.896   2.450  1.00  0.00     0.016 A 
HETATM   14  C   UNL     1      40.001 -15.995   1.931  1.00  0.00     0.069 C 
HETATM   15  N   UNL     1      41.623 -17.851   1.641  1.00  0.00    -0.359 N 
HETATM   16  H   UNL     1      41.367 -18.019   0.678  1.00  0.00     0.166 HD
HETATM   17  C   UNL     1      42.583 -18.560   2.314  1.00  0.00     0.043 A 
HETATM   18  C   UNL     1      42.653 -18.040   3.608  1.00  0.00     0.003 A 
HETATM   19  C   UNL     1      43.387 -19.617   1.865  1.00  0.00     0.030 A 
HETATM   20  C   UNL     1      43.594 -18.619   4.490  1.00  0.00     0.014 A 
HETATM   21  C   UNL     1      44.403 -19.678   4.060  1.00  0.00     0.001 A 
HETATM   22  C   UNL     1      44.298 -20.170   2.765  1.00  0.00     0.002 A 
ENDBRANCH   1  12
BRANCH   1  23
HETATM   23  O   UNL     1      40.268 -15.223   4.685  1.00  0.00    -0.371 OA
HETATM   24  H   UNL     1      40.695 -14.416   4.344  1.00  0.00     0.212 HD
ENDBRANCH   1  23
TORSDOF 2
ENDMDL
MODEL 3
REMARK VINA RESULT:      -7.9      2.946      3.720
REMARK  2 active torsions:
REMARK  status: ('A' for Active; 'I' for Inactive)
REMARK    1  A    between atoms: C_7  and  C_8 
REMARK    2  A    between atoms: C_8  and  O_9 
ROOT
HETATM    1  C   UNL     1      41.646 -14.490   3.688  1.00  0.00     0.199 A 
HETATM    2  C   UNL     1      42.839 -13.678   3.084  1.00  0.00     0.266 A 
HETATM    3  O   UNL     1      43.914 -13.434   3.614  1.00  0.00    -0.269 OA
HETATM    4  N   UNL     1      42.437 -13.209   1.834  1.00  0.00    -0.323 N 
HETATM    5  C   UNL     1      41.137 -13.603   1.548  1.00  0.00     0.045 A 
HETATM    6  C   UNL     1      40.614 -14.369   2.594  1.00  0.00     0.017 A 
HETATM    7  C   UNL     1      40.411 -13.292   0.416  1.00  0.00     0.030 A 
HETATM    8  C   UNL     1      39.102 -13.772   0.341  1.00  0.00     0.002 A 
HETATM    9  C   UNL     1      38.556 -14.537   1.386  1.00  0.00     0.001 A 
HETATM   10  C   UNL     1      39.310 -14.838   2.525  1.00  0.00     0.013 A 
HETATM   11  H   UNL     1      43.019 -12.626   1.254  1.00  0.00     0.169 HD
ENDROOT
BRANCH   1  12
HETATM   12  C   UNL     1      41.924 -15.963   3.895  1.00  0.00     0.025 A 
HETATM   13  C   UNL     1      41.506 -16.736   4.982  1.00  0.00     0.016 A 
HETATM   14  C   UNL     1      40.703 -16.386   6.186  1.00  0.00     0.069 C 
HETATM   15  N   UNL     1      41.971 -18.013   4.805  1.00  0.00    -0.359 N 
HETATM   16  H   UNL     1      41.819 -18.781   5.444  1.00  0.00     0.166 HD
HETATM   17  C   UNL     1      42.676 -18.116   3.635  1.00  0.00     0.043 A 
HETATM   18  C   UNL     1      42.664 -16.858   3.030  1.00  0.00     0.003 A 
HETATM   19  C   UNL     1      43.317 -19.232   3.079  1.00  0.00     0.030 A 
HETATM   20  C   UNL     1      43.331 -16.727   1.791  1.00  0.00     0.014 A 
HETATM   21  C   UNL     1      43.980 -17.830   1.221  1.00  0.00     0.001 A 
HETATM   22  C   UNL     1      43.973 -19.065   1.859  1.00  0.00     0.002 A 
ENDBRANCH   1  12
BRANCH   1  23
HETATM   23  O   UNL     1      41.188 -13.836   4.869  1.00  0.00    -0.371 OA
HETATM   24  H   UNL     1      41.818 -14.120   5.556  1.00  0.00     0.212 HD
ENDBRANCH   1  23
TORSDOF 2
ENDMDL
MODEL 4
REMARK VINA RESULT:      -7.8      1.981      2.592
REMARK  2 active torsions:
REMARK  status: ('A' for Active; 'I' for Inactive)
REMARK    1  A    between atoms: C_7  and  C_8 
REMARK    2  A    between atoms: C_8  and  O_9 
ROOT
HETATM    1  C   UNL     1      42.582 -15.890   5.241  1.00  0.00     0.199 A 
HETATM    2  C   UNL     1      43.560 -14.701   4.968  1.00  0.00     0.266 A 
HETATM    3  O   UNL     1      44.324 -14.171   5.762  1.00  0.00    -0.269 OA
HETATM    4  N   UNL     1      43.364 -14.291   3.650  1.00  0.00    -0.323 N 
HETATM    5  C   UNL     1      42.381 -15.051   3.031  1.00  0.00     0.045 A 
HETATM    6  C   UNL     1      41.883 -16.019   3.910  1.00  0.00     0.017 A 
HETATM    7  C   UNL     1      41.909 -14.901   1.744  1.00  0.00     0.030 A 
HETATM    8  C   UNL     1      40.891 -15.762   1.328  1.00  0.00     0.002 A 
HETATM    9  C   UNL     1      40.374 -16.737   2.198  1.00  0.00     0.001 A 
HETATM   10  C   UNL     1      40.865 -16.868   3.501  1.00  0.00     0.013 A 
HETATM   11  H   UNL     1      43.853 -13.512   3.238  1.00  0.00     0.169 HD
ENDROOT
BRANCH   1  12
HETATM   12  C   UNL     1      43.259 -17.212   5.533  1.00  0.00     0.025 A 
HETATM   13  C   UNL     1      43.559 -17.721   6.800  1.00  0.00     0.016 A 
HETATM   14  C   UNL     1      43.315 -17.174   8.163  1.00  0.00     0.069 C 
HETATM   15  N   UNL     1      44.182 -18.931   6.640  1.00  0.00    -0.359 N 
HETATM   16  H   UNL     1      44.514 -19.519   7.391  1.00  0.00     0.166 HD
HETATM   17  C   UNL     1      44.299 -19.246   5.311  1.00  0.00     0.043 A 
HETATM   18  C   UNL     1      43.726 -18.200   4.585  1.00  0.00     0.003 A 
HETATM   19  C   UNL     1      44.868 -20.378   4.712  1.00  0.00     0.030 A 
HETATM   20  C   UNL     1      43.724 -18.314   3.176  1.00  0.00     0.014 A 
HETATM   21  C   UNL     1      44.292 -19.436   2.559  1.00  0.00     0.001 A 
HETATM   22  C   UNL     1      44.858 -20.453   3.319  1.00  0.00     0.002 A 
ENDBRANCH   1  12
BRANCH   1  23
HETATM   23  O   UNL     1      41.650 -15.505   6.248  1.00  0.00    -0.371 OA
HETATM   24  H   UNL     1      40.803 -15.433   5.772  1.00  0.00     0.212 HD
ENDBRANCH   1  23
TORSDOF 2
ENDMDL
MODEL 5
REMARK VINA RESULT:      -7.6      2.098      5.383
REMARK  2 active torsions:
REMARK  status: ('A' for Active; 'I' for Inactive)
REMARK    1  A    between atoms: C_7  and  C_8 
REMARK    2  A    between atoms: C_8  and  O_9 
ROOT
HETATM    1  C   UNL     1      41.752 -17.199   3.688  1.00  0.00     0.199 A 
HETATM    2  C   UNL     1      41.006 -17.147   2.313  1.00  0.00     0.266 A 
HETATM    3  O   UNL     1      40.060 -16.435   2.008  1.00  0.00    -0.269 OA
HETATM    4  N   UNL     1      41.573 -18.121   1.492  1.00  0.00    -0.323 N 
HETATM    5  C   UNL     1      42.584 -18.806   2.153  1.00  0.00     0.045 A 
HETATM    6  C   UNL     1      42.748 -18.307   3.449  1.00  0.00     0.017 A 
HETATM    7  C   UNL     1      43.335 -19.851   1.656  1.00  0.00     0.030 A 
HETATM    8  C   UNL     1      44.288 -20.417   2.505  1.00  0.00     0.002 A 
HETATM    9  C   UNL     1      44.464 -19.934   3.813  1.00  0.00     0.001 A 
HETATM   10  C   UNL     1      43.689 -18.875   4.297  1.00  0.00     0.013 A 
HETATM   11  H   UNL     1      41.244 -18.312   0.559  1.00  0.00     0.169 HD
ENDROOT
BRANCH   1  12
HETATM   12  C   UNL     1      42.531 -15.948   4.032  1.00  0.00     0.025 A 
HETATM   13  C   UNL     1      42.821 -14.893   3.162  1.00  0.00     0.016 A 
HETATM   14  C   UNL     1      42.473 -14.674   1.731  1.00  0.00     0.069 C 
HETATM   15  N   UNL     1      43.555 -13.961   3.848  1.00  0.00    -0.359 N 
HETATM   16  H   UNL     1      43.906 -13.097   3.460  1.00  0.00     0.166 HD
HETATM   17  C   UNL     1      43.755 -14.357   5.144  1.00  0.00     0.043 A 
HETATM   18  C   UNL     1      43.123 -15.591   5.304  1.00  0.00     0.003 A 
HETATM   19  C   UNL     1      44.448 -13.708   6.176  1.00  0.00     0.030 A 
HETATM   20  C   UNL     1      43.190 -16.195   6.580  1.00  0.00     0.014 A 
HETATM   21  C   UNL     1      43.881 -15.563   7.622  1.00  0.00     0.001 A 
HETATM   22  C   UNL     1      44.502 -14.336   7.420  1.00  0.00     0.002 A 
ENDBRANCH   1  12
BRANCH   1  23
HETATM   23  O   UNL     1      40.828 -17.580   4.704  1.00  0.00    -0.371 OA
HETATM   24  H   UNL     1      40.640 -18.517   4.513  1.00  0.00     0.212 HD
ENDBRANCH   1  23
TORSDOF 2
ENDMDL
MODEL 6
REMARK VINA RESULT:      -7.4      2.090      5.725
REMARK  2 active torsions:
REMARK  status: ('A' for Active; 'I' for Inactive)
REMARK    1  A    between atoms: C_7  and  C_8 
REMARK    2  A    between atoms: C_8  and  O_9 
ROOT
HETATM    1  C   UNL     1      43.191 -15.385   5.508  1.00  0.00     0.199 A 
HETATM    2  C   UNL     1      43.532 -16.460   6.592  1.00  0.00     0.266 A 
HETATM    3  O   UNL     1      43.602 -16.298   7.802  1.00  0.00    -0.269 OA
HETATM    4  N   UNL     1      43.815 -17.652   5.925  1.00  0.00    -0.323 N 
HETATM    5  C   UNL     1      43.711 -17.492   4.550  1.00  0.00     0.045 A 
HETATM    6  C   UNL     1      43.338 -16.181   4.235  1.00  0.00     0.017 A 
HETATM    7  C   UNL     1      43.952 -18.450   3.587  1.00  0.00     0.030 A 
HETATM    8  C   UNL     1      43.813 -18.067   2.251  1.00  0.00     0.002 A 
HETATM    9  C   UNL     1      43.445 -16.754   1.914  1.00  0.00     0.001 A 
HETATM   10  C   UNL     1      43.209 -15.798   2.908  1.00  0.00     0.013 A 
HETATM   11  H   UNL     1      44.098 -18.493   6.401  1.00  0.00     0.169 HD
ENDROOT
BRANCH   1  12
HETATM   12  C   UNL     1      41.772 -14.861   5.560  1.00  0.00     0.025 A 
HETATM   13  C   UNL     1      40.636 -15.595   5.915  1.00  0.00     0.016 A 
HETATM   14  C   UNL     1      40.474 -17.014   6.335  1.00  0.00     0.069 C 
HETATM   15  N   UNL     1      39.546 -14.770   5.824  1.00  0.00    -0.359 N 
HETATM   16  H   UNL     1      38.593 -15.042   6.020  1.00  0.00     0.166 HD
HETATM   17  C   UNL     1      39.920 -13.512   5.429  1.00  0.00     0.043 A 
HETATM   18  C   UNL     1      41.306 -13.524   5.262  1.00  0.00     0.003 A 
HETATM   19  C   UNL     1      39.128 -12.376   5.213  1.00  0.00     0.030 A 
HETATM   20  C   UNL     1      41.921 -12.316   4.861  1.00  0.00     0.014 A 
HETATM   21  C   UNL     1      41.145 -11.172   4.636  1.00  0.00     0.001 A 
HETATM   22  C   UNL     1      39.767 -11.204   4.809  1.00  0.00     0.002 A 
ENDBRANCH   1  12
BRANCH   1  23
HETATM   23  O   UNL     1      44.170 -14.350   5.554  1.00  0.00    -0.371 OA
HETATM   24  H   UNL     1      43.931 -13.833   6.344  1.00  0.00     0.212 HD
ENDBRANCH   1  23
TORSDOF 2
ENDMDL
MODEL 7
REMARK VINA RESULT:      -7.3      1.800      2.245
REMARK  2 active torsions:
REMARK  status: ('A' for Active; 'I' for Inactive)
REMARK    1  A    between atoms: C_7  and  C_8 
REMARK    2  A    between atoms: C_8  and  O_9 
ROOT
HETATM    1  C   UNL     1      41.963 -16.395   2.928  1.00  0.00     0.199 A 
HETATM    2  C   UNL     1      40.455 -16.529   2.534  1.00  0.00     0.266 A 
HETATM    3  O   UNL     1      39.921 -17.458   1.945  1.00  0.00    -0.269 OA
HETATM    4  N   UNL     1      39.815 -15.351   2.919  1.00  0.00    -0.323 N 
HETATM    5  C   UNL     1      40.709 -14.465   3.503  1.00  0.00     0.045 A 
HETATM    6  C   UNL     1      41.992 -15.020   3.549  1.00  0.00     0.017 A 
HETATM    7  C   UNL     1      40.429 -13.197   3.970  1.00  0.00     0.030 A 
HETATM    8  C   UNL     1      41.489 -12.459   4.501  1.00  0.00     0.002 A 
HETATM    9  C   UNL     1      42.787 -12.997   4.550  1.00  0.00     0.001 A 
HETATM   10  C   UNL     1      43.048 -14.284   4.068  1.00  0.00     0.013 A 
HETATM   11  H   UNL     1      38.839 -15.174   2.743  1.00  0.00     0.169 HD
ENDROOT
BRANCH   1  12
HETATM   12  C   UNL     1      42.433 -17.381   3.976  1.00  0.00     0.025 A 
HETATM   13  C   UNL     1      42.055 -17.396   5.322  1.00  0.00     0.016 A 
HETATM   14  C   UNL     1      41.131 -16.520   6.093  1.00  0.00     0.069 C 
HETATM   15  N   UNL     1      42.707 -18.430   5.939  1.00  0.00    -0.359 N 
HETATM   16  H   UNL     1      42.623 -18.670   6.917  1.00  0.00     0.166 HD
HETATM   17  C   UNL     1      43.498 -19.108   5.049  1.00  0.00     0.043 A 
HETATM   18  C   UNL     1      43.349 -18.489   3.806  1.00  0.00     0.003 A 
HETATM   19  C   UNL     1      44.327 -20.218   5.261  1.00  0.00     0.030 A 
HETATM   20  C   UNL     1      44.073 -19.031   2.720  1.00  0.00     0.014 A 
HETATM   21  C   UNL     1      44.910 -20.138   2.914  1.00  0.00     0.001 A 
HETATM   22  C   UNL     1      45.035 -20.721   4.169  1.00  0.00     0.002 A 
ENDBRANCH   1  12
BRANCH   1  23
HETATM   23  O   UNL     1      42.757 -16.415   1.745  1.00  0.00    -0.371 OA
HETATM   24  H   UNL     1      42.884 -17.364   1.562  1.00  0.00     0.212 HD
ENDBRANCH   1  23
TORSDOF 2
ENDMDL
MODEL 8
REMARK VINA RESULT:      -7.2      4.201      6.513
REMARK  2 active torsions:
REMARK  status: ('A' for Active; 'I' for Inactive)
REMARK    1  A    between atoms: C_7  and  C_8 
REMARK    2  A    between atoms: C_8  and  O_9 
ROOT
HETATM    1  C   UNL     1      41.149 -15.085   1.872  1.00  0.00     0.199 A 
HETATM    2  C   UNL     1      39.797 -15.872   1.834  1.00  0.00     0.266 A 
HETATM    3  O   UNL     1      38.668 -15.413   1.929  1.00  0.00    -0.269 OA
HETATM    4  N   UNL     1      40.105 -17.228   1.736  1.00  0.00    -0.323 N 
HETATM    5  C   UNL     1      41.478 -17.429   1.714  1.00  0.00     0.045 A 
HETATM    6  C   UNL     1      42.154 -16.206   1.782  1.00  0.00     0.017 A 
HETATM    7  C   UNL     1      42.135 -18.641   1.656  1.00  0.00     0.030 A 
HETATM    8  C   UNL     1      43.532 -18.616   1.671  1.00  0.00     0.002 A 
HETATM    9  C   UNL     1      44.228 -17.398   1.745  1.00  0.00     0.001 A 
HETATM   10  C   UNL     1      43.541 -16.181   1.806  1.00  0.00     0.013 A 
HETATM   11  H   UNL     1      39.403 -17.951   1.729  1.00  0.00     0.169 HD
ENDROOT
BRANCH   1  12
HETATM   12  C   UNL     1      41.379 -14.166   0.691  1.00  0.00     0.025 A 
HETATM   13  C   UNL     1      41.711 -12.810   0.756  1.00  0.00     0.016 A 
HETATM   14  C   UNL     1      41.938 -11.907   1.918  1.00  0.00     0.069 C 
HETATM   15  N   UNL     1      41.817 -12.333  -0.524  1.00  0.00    -0.359 N 
HETATM   16  H   UNL     1      42.043 -11.380  -0.773  1.00  0.00     0.166 HD
HETATM   17  C   UNL     1      41.576 -13.327  -1.435  1.00  0.00     0.043 A 
HETATM   18  C   UNL     1      41.306 -14.493  -0.716  1.00  0.00     0.003 A 
HETATM   19  C   UNL     1      41.580 -13.269  -2.836  1.00  0.00     0.030 A 
HETATM   20  C   UNL     1      41.034 -15.664  -1.459  1.00  0.00     0.014 A 
HETATM   21  C   UNL     1      41.030 -15.626  -2.859  1.00  0.00     0.001 A 
HETATM   22  C   UNL     1      41.298 -14.443  -3.537  1.00  0.00     0.002 A 
ENDBRANCH   1  12
BRANCH   1  23
HETATM   23  O   UNL     1      41.265 -14.421   3.128  1.00  0.00    -0.371 OA
HETATM   24  H   UNL     1      40.655 -14.908   3.711  1.00  0.00     0.212 HD
ENDBRANCH   1  23
TORSDOF 2
ENDMDL
MODEL 9
REMARK VINA RESULT:      -7.2      2.487      5.267
REMARK  2 active torsions:
REMARK  status: ('A' for Active; 'I' for Inactive)
REMARK    1  A    between atoms: C_7  and  C_8 
REMARK    2  A    between atoms: C_8  and  O_9 
ROOT
HETATM    1  C   UNL     1      42.475 -15.957   4.855  1.00  0.00     0.199 A 
HETATM    2  C   UNL     1      41.642 -17.081   5.557  1.00  0.00     0.266 A 
HETATM    3  O   UNL     1      41.082 -17.021   6.641  1.00  0.00    -0.269 OA
HETATM    4  N   UNL     1      41.702 -18.215   4.748  1.00  0.00    -0.323 N 
HETATM    5  C   UNL     1      42.471 -17.980   3.615  1.00  0.00     0.045 A 
HETATM    6  C   UNL     1      42.950 -16.666   3.610  1.00  0.00     0.017 A 
HETATM    7  C   UNL     1      42.769 -18.885   2.618  1.00  0.00     0.030 A 
HETATM    8  C   UNL     1      43.587 -18.446   1.575  1.00  0.00     0.002 A 
HETATM    9  C   UNL     1      44.083 -17.131   1.555  1.00  0.00     0.001 A 
HETATM   10  C   UNL     1      43.771 -16.232   2.579  1.00  0.00     0.013 A 
HETATM   11  H   UNL     1      41.272 -19.090   4.997  1.00  0.00     0.169 HD
ENDROOT
BRANCH   1  12
HETATM   12  C   UNL     1      41.669 -14.753   4.417  1.00  0.00     0.025 A 
HETATM   13  C   UNL     1      41.768 -13.461   4.942  1.00  0.00     0.016 A 
HETATM   14  C   UNL     1      42.639 -12.898   6.010  1.00  0.00     0.069 C 
HETATM   15  N   UNL     1      40.863 -12.664   4.292  1.00  0.00    -0.359 N 
HETATM   16  H   UNL     1      40.716 -11.681   4.475  1.00  0.00     0.166 HD
HETATM   17  C   UNL     1      40.173 -13.379   3.348  1.00  0.00     0.043 A 
HETATM   18  C   UNL     1      40.654 -14.689   3.388  1.00  0.00     0.003 A 
HETATM   19  C   UNL     1      39.166 -12.954   2.471  1.00  0.00     0.030 A 
HETATM   20  C   UNL     1      40.087 -15.615   2.483  1.00  0.00     0.014 A 
HETATM   21  C   UNL     1      39.077 -15.210   1.601  1.00  0.00     0.001 A 
HETATM   22  C   UNL     1      38.623 -13.897   1.597  1.00  0.00     0.002 A 
ENDBRANCH   1  12
BRANCH   1  23
HETATM   23  O   UNL     1      43.586 -15.617   5.680  1.00  0.00    -0.371 OA
HETATM   24  H   UNL     1      44.093 -16.446   5.747  1.00  0.00     0.212 HD
ENDBRANCH   1  23
TORSDOF 2
ENDMDL
MODEL 10
REMARK VINA RESULT:      -7.1      3.507      4.469
REMARK  2 active torsions:
REMARK  status: ('A' for Active; 'I' for Inactive)
REMARK    1  A    between atoms: C_7  and  C_8 
REMARK    2  A    between atoms: C_8  and  O_9 
ROOT
HETATM    1  C   UNL     1      40.819 -14.803   3.196  1.00  0.00     0.199 A 
HETATM    2  C   UNL     1      41.472 -13.451   3.637  1.00  0.00     0.266 A 
HETATM    3  O   UNL     1      42.430 -13.298   4.381  1.00  0.00    -0.269 OA
HETATM    4  N   UNL     1      40.719 -12.420   3.078  1.00  0.00    -0.323 N 
HETATM    5  C   UNL     1      39.656 -12.922   2.338  1.00  0.00     0.045 A 
HETATM    6  C   UNL     1      39.661 -14.320   2.358  1.00  0.00     0.017 A 
HETATM    7  C   UNL     1      38.693 -12.189   1.676  1.00  0.00     0.030 A 
HETATM    8  C   UNL     1      37.691 -12.899   1.010  1.00  0.00     0.002 A 
HETATM    9  C   UNL     1      37.675 -14.304   1.024  1.00  0.00     0.001 A 
HETATM   10  C   UNL     1      38.661 -15.026   1.704  1.00  0.00     0.013 A 
HETATM   11  H   UNL     1      40.915 -11.446   3.242  1.00  0.00     0.169 HD
ENDROOT
BRANCH   1  12
HETATM   12  C   UNL     1      41.693 -15.670   2.315  1.00  0.00     0.025 A 
HETATM   13  C   UNL     1      42.037 -15.409   0.985  1.00  0.00     0.016 A 
HETATM   14  C   UNL     1      41.691 -14.276   0.084  1.00  0.00     0.069 C 
HETATM   15  N   UNL     1      42.826 -16.436   0.537  1.00  0.00    -0.359 N 
HETATM   16  H   UNL     1      43.215 -16.508  -0.393  1.00  0.00     0.166 HD
HETATM   17  C   UNL     1      43.024 -17.364   1.526  1.00  0.00     0.043 A 
HETATM   18  C   UNL     1      42.339 -16.919   2.657  1.00  0.00     0.003 A 
HETATM   19  C   UNL     1      43.759 -18.557   1.490  1.00  0.00     0.030 A 
HETATM   20  C   UNL     1      42.410 -17.723   3.817  1.00  0.00     0.014 A 
HETATM   21  C   UNL     1      43.137 -18.921   3.800  1.00  0.00     0.001 A 
HETATM   22  C   UNL     1      43.800 -19.331   2.650  1.00  0.00     0.002 A 
ENDBRANCH   1  12
BRANCH   1  23
HETATM   23  O   UNL     1      40.338 -15.486   4.351  1.00  0.00    -0.371 OA
HETATM   24  H   UNL     1      41.136 -15.634   4.888  1.00  0.00     0.212 HD
ENDBRANCH   1  23
TORSDOF 2
ENDMDL
