MODEL 1
REMARK VINA RESULT:      -8.5      0.000      0.000
REMARK  7 active torsions:
REMARK  status: ('A' for Active; 'I' for Inactive)
REMARK    1  A    between atoms: CG_4  and  CB_5 
REMARK    2  A    between atoms: CB_5  and  CA_6 
REMARK    3  A    between atoms: CA_6  and  N_7 
REMARK    4  A    between atoms: CA_6  and  C_8 
REMARK       I    between atoms: N_7  and  C_14 
REMARK    5  A    between atoms: C_8  and  O_9 
REMARK       I    between atoms: C_14  and  N_15 
REMARK    6  A    between atoms: N_15  and  C_16 
REMARK    7  A    between atoms: C_22  and  C_23 
ROOT
ATOM      1  N   PHE A   1      45.021 -12.318   8.705  1.00  0.00    -0.336 N 
ATOM      2  H   PHE A   1      45.737 -11.607   8.600  1.00  0.00     0.164 HD
HETATM    3  C   UNK A   0      45.116 -13.266   7.731  1.00  0.00     0.321 C 
HETATM    4  N   UNK A   0      44.283 -14.342   7.863  1.00  0.00    -0.309 N 
HETATM    5  O   UNK A   0      45.924 -13.074   6.831  1.00  0.00    -0.247 OA
HETATM    6  H   UNK A   0      43.902 -14.502   8.781  1.00  0.00     0.170 HD
ENDROOT
BRANCH   1   7
ATOM      7  CA  PHE A   1      44.150 -12.244   9.878  1.00  0.00     0.113 C 
BRANCH   7   8
ATOM      8  CB  PHE A   1      43.543 -10.833  10.063  1.00  0.00     0.065 C 
BRANCH   8   9
ATOM      9  CG  PHE A   1      42.960 -10.536  11.427  1.00  0.00    -0.056 A 
ATOM     10  CD1 PHE A   1      41.686 -11.012  11.771  1.00  0.00     0.007 A 
ATOM     11  CE1 PHE A   1      41.137 -10.730  13.023  1.00  0.00     0.001 A 
ATOM     12  CZ  PHE A   1      41.858  -9.979  13.947  1.00  0.00     0.000 A 
ATOM     13  CE2 PHE A   1      43.130  -9.514  13.624  1.00  0.00     0.001 A 
ATOM     14  CD2 PHE A   1      43.680  -9.793  12.372  1.00  0.00     0.007 A 
ENDBRANCH   8   9
ENDBRANCH   7   8
BRANCH   7  15
ATOM     15  C   PHE A   1      44.868 -12.777  11.130  1.00  0.00     0.189 C 
BRANCH  15  16
ATOM     16  O   PHE A   1      44.025 -13.655  11.868  1.00  0.00    -0.399 OA
ATOM     17  H   PHE A   1      43.186 -13.737  11.383  1.00  0.00     0.209 HD
ENDBRANCH  15  16
ENDBRANCH   7  15
ENDBRANCH   1   7
BRANCH   4  18
HETATM   18  C   UNK A   0      44.035 -15.354   6.909  1.00  0.00     0.038 A 
HETATM   19  C   UNK A   0      44.689 -16.593   6.914  1.00  0.00     0.063 A 
HETATM   20  C   UNK A   0      44.410 -17.515   5.894  1.00  0.00     0.087 A 
HETATM   21  C   UNK A   0      43.488 -17.186   4.908  1.00  0.00     0.063 A 
HETATM   22  N   UNK A   0      44.930 -18.769   5.674  1.00  0.00    -0.228 NA
HETATM   23  N   UNK A   0      43.459 -18.284   4.087  1.00  0.00    -0.338 N 
HETATM   24  C   UNK A   0      42.812 -15.968   4.870  1.00  0.00     0.034 A 
HETATM   25  H   UNK A   0      42.894 -18.397   3.257  1.00  0.00     0.167 HD
HETATM   26  C   UNK A   0      44.346 -19.212   4.576  1.00  0.00     0.170 A 
HETATM   27  C   UNK A   0      43.113 -15.056   5.892  1.00  0.00     0.032 A 
BRANCH  26  28
HETATM   28  C   UNK A   0      44.554 -20.509   3.883  1.00  0.00     0.422 C 
HETATM   29  F   UNK A   0      45.169 -20.319   2.682  1.00  0.00    -0.206 F 
HETATM   30  F   UNK A   0      45.394 -21.306   4.600  1.00  0.00    -0.206 F 
ENDBRANCH  26  28
ENDBRANCH   4  18
TORSDOF 7
ENDMDL
MODEL 2
REMARK VINA RESULT:      -8.4      6.432      9.206
REMARK  7 active torsions:
REMARK  status: ('A' for Active; 'I' for Inactive)
REMARK    1  A    between atoms: CG_4  and  CB_5 
REMARK    2  A    between atoms: CB_5  and  CA_6 
REMARK    3  A    between atoms: CA_6  and  N_7 
REMARK    4  A    between atoms: CA_6  and  C_8 
REMARK       I    between atoms: N_7  and  C_14 
REMARK    5  A    between atoms: C_8  and  O_9 
REMARK       I    between atoms: C_14  and  N_15 
REMARK    6  A    between atoms: N_15  and  C_16 
REMARK    7  A    between atoms: C_22  and  C_23 
ROOT
ATOM      1  N   PHE A   1      43.905 -19.238   2.141  1.00  0.00    -0.336 N 
ATOM      2  H   PHE A   1      44.386 -19.117   1.256  1.00  0.00     0.164 HD
HETATM    3  C   UNK A   0      43.201 -18.121   2.479  1.00  0.00     0.321 C 
HETATM    4  N   UNK A   0      42.407 -18.229   3.586  1.00  0.00    -0.309 N 
HETATM    5  O   UNK A   0      43.342 -17.128   1.774  1.00  0.00    -0.247 OA
HETATM    6  H   UNK A   0      42.169 -19.163   3.876  1.00  0.00     0.170 HD
ENDROOT
BRANCH   1   7
ATOM      7  CA  PHE A   1      43.972 -20.550   2.784  1.00  0.00     0.113 C 
BRANCH   7   8
ATOM      8  CB  PHE A   1      45.080 -20.613   3.862  1.00  0.00     0.065 C 
BRANCH   8   9
ATOM      9  CG  PHE A   1      44.722 -20.041   5.216  1.00  0.00    -0.056 A 
ATOM     10  CD1 PHE A   1      43.984 -20.805   6.133  1.00  0.00     0.007 A 
ATOM     11  CE1 PHE A   1      43.638 -20.279   7.378  1.00  0.00     0.001 A 
ATOM     12  CZ  PHE A   1      44.033 -18.989   7.724  1.00  0.00     0.000 A 
ATOM     13  CE2 PHE A   1      44.779 -18.227   6.829  1.00  0.00     0.001 A 
ATOM     14  CD2 PHE A   1      45.125 -18.750   5.582  1.00  0.00     0.007 A 
ENDBRANCH   8   9
ENDBRANCH   7   8
BRANCH   7  15
ATOM     15  C   PHE A   1      44.066 -21.671   1.735  1.00  0.00     0.189 C 
BRANCH  15  16
ATOM     16  O   PHE A   1      44.731 -22.813   2.265  1.00  0.00    -0.399 OA
ATOM     17  H   PHE A   1      44.055 -23.398   2.648  1.00  0.00     0.209 HD
ENDBRANCH  15  16
ENDBRANCH   7  15
ENDBRANCH   1   7
BRANCH   4  18
HETATM   18  C   UNK A   0      41.737 -17.185   4.263  1.00  0.00     0.038 A 
HETATM   19  C   UNK A   0      41.489 -15.931   3.690  1.00  0.00     0.063 A 
HETATM   20  C   UNK A   0      40.858 -14.943   4.461  1.00  0.00     0.087 A 
HETATM   21  C   UNK A   0      40.488 -15.228   5.770  1.00  0.00     0.063 A 
HETATM   22  N   UNK A   0      40.530 -13.648   4.134  1.00  0.00    -0.228 NA
HETATM   23  N   UNK A   0      39.916 -14.068   6.223  1.00  0.00    -0.338 N 
HETATM   24  C   UNK A   0      40.712 -16.463   6.374  1.00  0.00     0.034 A 
HETATM   25  H   UNK A   0      39.530 -13.910   7.144  1.00  0.00     0.167 HD
HETATM   26  C   UNK A   0      39.967 -13.137   5.214  1.00  0.00     0.170 A 
HETATM   27  C   UNK A   0      41.352 -17.434   5.590  1.00  0.00     0.032 A 
BRANCH  26  28
HETATM   28  C   UNK A   0      39.438 -11.764   5.414  1.00  0.00     0.422 C 
HETATM   29  F   UNK A   0      38.282 -11.588   4.716  1.00  0.00    -0.206 F 
HETATM   30  F   UNK A   0      39.108 -11.563   6.720  1.00  0.00    -0.206 F 
ENDBRANCH  26  28
ENDBRANCH   4  18
TORSDOF 7
ENDMDL
MODEL 3
REMARK VINA RESULT:      -8.3      4.516      9.692
REMARK  7 active torsions:
REMARK  status: ('A' for Active; 'I' for Inactive)
REMARK    1  A    between atoms: CG_4  and  CB_5 
REMARK    2  A    between atoms: CB_5  and  CA_6 
REMARK    3  A    between atoms: CA_6  and  N_7 
REMARK    4  A    between atoms: CA_6  and  C_8 
REMARK       I    between atoms: N_7  and  C_14 
REMARK    5  A    between atoms: C_8  and  O_9 
REMARK       I    between atoms: C_14  and  N_15 
REMARK    6  A    between atoms: N_15  and  C_16 
REMARK    7  A    between atoms: C_22  and  C_23 
ROOT
ATOM      1  N   PHE A   1      43.144 -15.834   2.464  1.00  0.00    -0.336 N 
ATOM      2  H   PHE A   1      43.298 -15.594   1.490  1.00  0.00     0.164 HD
HETATM    3  C   UNK A   0      43.226 -14.734   3.265  1.00  0.00     0.321 C 
HETATM    4  N   UNK A   0      42.898 -14.927   4.578  1.00  0.00    -0.309 N 
HETATM    5  O   UNK A   0      43.585 -13.683   2.748  1.00  0.00    -0.247 OA
HETATM    6  H   UNK A   0      42.350 -15.745   4.786  1.00  0.00     0.170 HD
ENDROOT
BRANCH   1   7
ATOM      7  CA  PHE A   1      42.779 -17.215   2.780  1.00  0.00     0.113 C 
BRANCH   7   8
ATOM      8  CB  PHE A   1      43.469 -18.229   1.838  1.00  0.00     0.065 C 
BRANCH   8   9
ATOM      9  CG  PHE A   1      43.887 -19.540   2.467  1.00  0.00    -0.056 A 
ATOM     10  CD1 PHE A   1      43.776 -20.738   1.745  1.00  0.00     0.007 A 
ATOM     11  CE1 PHE A   1      44.147 -21.952   2.324  1.00  0.00     0.001 A 
ATOM     12  CZ  PHE A   1      44.642 -21.982   3.625  1.00  0.00     0.000 A 
ATOM     13  CE2 PHE A   1      44.772 -20.797   4.346  1.00  0.00     0.001 A 
ATOM     14  CD2 PHE A   1      44.400 -19.582   3.770  1.00  0.00     0.007 A 
ENDBRANCH   8   9
ENDBRANCH   7   8
BRANCH   7  15
ATOM     15  C   PHE A   1      41.250 -17.376   2.849  1.00  0.00     0.189 C 
BRANCH  15  16
ATOM     16  O   PHE A   1      40.761 -17.070   4.151  1.00  0.00    -0.399 OA
ATOM     17  H   PHE A   1      40.827 -16.107   4.271  1.00  0.00     0.209 HD
ENDBRANCH  15  16
ENDBRANCH   7  15
ENDBRANCH   1   7
BRANCH   4  18
HETATM   18  C   UNK A   0      43.085 -14.023   5.647  1.00  0.00     0.038 A 
HETATM   19  C   UNK A   0      44.136 -14.126   6.567  1.00  0.00     0.063 A 
HETATM   20  C   UNK A   0      44.208 -13.205   7.624  1.00  0.00     0.087 A 
HETATM   21  C   UNK A   0      43.245 -12.210   7.733  1.00  0.00     0.063 A 
HETATM   22  N   UNK A   0      45.120 -13.114   8.650  1.00  0.00    -0.228 NA
HETATM   23  N   UNK A   0      43.605 -11.506   8.852  1.00  0.00    -0.338 N 
HETATM   24  C   UNK A   0      42.188 -12.070   6.836  1.00  0.00     0.034 A 
HETATM   25  H   UNK A   0      43.125 -10.705   9.237  1.00  0.00     0.167 HD
HETATM   26  C   UNK A   0      44.733 -12.085   9.382  1.00  0.00     0.170 A 
HETATM   27  C   UNK A   0      42.127 -13.006   5.793  1.00  0.00     0.032 A 
BRANCH  26  28
HETATM   28  C   UNK A   0      45.355 -11.553  10.622  1.00  0.00     0.422 C 
HETATM   29  F   UNK A   0      44.417 -10.962  11.414  1.00  0.00    -0.206 F 
HETATM   30  F   UNK A   0      45.876 -12.565  11.369  1.00  0.00    -0.206 F 
ENDBRANCH  26  28
ENDBRANCH   4  18
TORSDOF 7
ENDMDL
MODEL 4
REMARK VINA RESULT:      -8.3      1.821      2.666
REMARK  7 active torsions:
REMARK  status: ('A' for Active; 'I' for Inactive)
REMARK    1  A    between atoms: CG_4  and  CB_5 
REMARK    2  A    between atoms: CB_5  and  CA_6 
REMARK    3  A    between atoms: CA_6  and  N_7 
REMARK    4  A    between atoms: CA_6  and  C_8 
REMARK       I    between atoms: N_7  and  C_14 
REMARK    5  A    between atoms: C_8  and  O_9 
REMARK       I    between atoms: C_14  and  N_15 
REMARK    6  A    between atoms: N_15  and  C_16 
REMARK    7  A    between atoms: C_22  and  C_23 
ROOT
ATOM      1  N   PHE A   1      45.250 -12.306   8.753  1.00  0.00    -0.336 N 
ATOM      2  H   PHE A   1      46.064 -11.703   8.718  1.00  0.00     0.164 HD
HETATM    3  C   UNK A   0      45.239 -13.185   7.711  1.00  0.00     0.321 C 
HETATM    4  N   UNK A   0      44.255 -14.134   7.741  1.00  0.00    -0.309 N 
HETATM    5  O   UNK A   0      46.096 -13.049   6.846  1.00  0.00    -0.247 OA
HETATM    6  H   UNK A   0      43.826 -14.303   8.636  1.00  0.00     0.170 HD
ENDROOT
BRANCH   1   7
ATOM      7  CA  PHE A   1      44.360 -12.191   9.908  1.00  0.00     0.113 C 
BRANCH   7   8
ATOM      8  CB  PHE A   1      43.856 -10.743  10.112  1.00  0.00     0.065 C 
BRANCH   8   9
ATOM      9  CG  PHE A   1      43.129 -10.470  11.410  1.00  0.00    -0.056 A 
ATOM     10  CD1 PHE A   1      43.766  -9.765  12.442  1.00  0.00     0.007 A 
ATOM     11  CE1 PHE A   1      43.107  -9.522  13.648  1.00  0.00     0.001 A 
ATOM     12  CZ  PHE A   1      41.802  -9.971  13.831  1.00  0.00     0.000 A 
ATOM     13  CE2 PHE A   1      41.153 -10.657  12.808  1.00  0.00     0.001 A 
ATOM     14  CD2 PHE A   1      41.811 -10.903  11.602  1.00  0.00     0.007 A 
ENDBRANCH   8   9
ENDBRANCH   7   8
BRANCH   7  15
ATOM     15  C   PHE A   1      45.009 -12.802  11.163  1.00  0.00     0.189 C 
BRANCH  15  16
ATOM     16  O   PHE A   1      44.082 -13.619  11.871  1.00  0.00    -0.399 OA
ATOM     17  H   PHE A   1      43.643 -13.060  12.535  1.00  0.00     0.209 HD
ENDBRANCH  15  16
ENDBRANCH   7  15
ENDBRANCH   1   7
BRANCH   4  18
HETATM   18  C   UNK A   0      43.896 -15.026   6.707  1.00  0.00     0.038 A 
HETATM   19  C   UNK A   0      43.098 -14.658   5.616  1.00  0.00     0.063 A 
HETATM   20  C   UNK A   0      42.756 -15.631   4.664  1.00  0.00     0.087 A 
HETATM   21  C   UNK A   0      43.219 -16.932   4.817  1.00  0.00     0.063 A 
HETATM   22  N   UNK A   0      41.979 -15.521   3.534  1.00  0.00    -0.228 NA
HETATM   23  N   UNK A   0      42.707 -17.607   3.739  1.00  0.00    -0.338 N 
HETATM   24  C   UNK A   0      44.020 -17.337   5.883  1.00  0.00     0.034 A 
HETATM   25  H   UNK A   0      42.841 -18.585   3.525  1.00  0.00     0.167 HD
HETATM   26  C   UNK A   0      41.959 -16.727   2.994  1.00  0.00     0.170 A 
HETATM   27  C   UNK A   0      44.342 -16.353   6.830  1.00  0.00     0.032 A 
BRANCH  26  28
HETATM   28  C   UNK A   0      41.255 -17.173   1.765  1.00  0.00     0.422 C 
HETATM   29  F   UNK A   0      41.649 -18.429   1.415  1.00  0.00    -0.206 F 
HETATM   30  F   UNK A   0      39.914 -17.261   1.987  1.00  0.00    -0.206 F 
ENDBRANCH  26  28
ENDBRANCH   4  18
TORSDOF 7
ENDMDL
MODEL 5
REMARK VINA RESULT:      -8.2      4.737      7.595
REMARK  7 active torsions:
REMARK  status: ('A' for Active; 'I' for Inactive)
REMARK    1  A    between atoms: CG_4  and  CB_5 
REMARK    2  A    between atoms: CB_5  and  CA_6 
REMARK    3  A    between atoms: CA_6  and  N_7 
REMARK    4  A    between atoms: CA_6  and  C_8 
REMARK       I    between atoms: N_7  and  C_14 
REMARK    5  A    between atoms: C_8  and  O_9 
REMARK       I    between atoms: C_14  and  N_15 
REMARK    6  A    between atoms: N_15  and  C_16 
REMARK    7  A    between atoms: C_22  and  C_23 
ROOT
ATOM      1  N   PHE A   1      42.727 -14.086   6.299  1.00  0.00    -0.336 N 
ATOM      2  H   PHE A   1      42.196 -13.493   6.929  1.00  0.00     0.164 HD
HETATM    3  C   UNK A   0      42.132 -14.168   5.076  1.00  0.00     0.321 C 
HETATM    4  N   UNK A   0      42.839 -14.831   4.112  1.00  0.00    -0.309 N 
HETATM    5  O   UNK A   0      41.028 -13.652   4.947  1.00  0.00    -0.247 OA
HETATM    6  H   UNK A   0      43.828 -14.934   4.275  1.00  0.00     0.170 HD
ENDROOT
BRANCH   1   7
ATOM      7  CA  PHE A   1      44.008 -14.613   6.771  1.00  0.00     0.113 C 
BRANCH   7   8
ATOM      8  CB  PHE A   1      43.844 -15.959   7.515  1.00  0.00     0.065 C 
BRANCH   8   9
ATOM      9  CG  PHE A   1      43.905 -17.203   6.656  1.00  0.00    -0.056 A 
ATOM     10  CD1 PHE A   1      45.131 -17.846   6.430  1.00  0.00     0.007 A 
ATOM     11  CE1 PHE A   1      45.197 -18.986   5.627  1.00  0.00     0.001 A 
ATOM     12  CZ  PHE A   1      44.038 -19.500   5.050  1.00  0.00     0.000 A 
ATOM     13  CE2 PHE A   1      42.813 -18.880   5.281  1.00  0.00     0.001 A 
ATOM     14  CD2 PHE A   1      42.745 -17.739   6.081  1.00  0.00     0.007 A 
ENDBRANCH   8   9
ENDBRANCH   7   8
BRANCH   7  15
ATOM     15  C   PHE A   1      44.775 -13.550   7.577  1.00  0.00     0.189 C 
BRANCH  15  16
ATOM     16  O   PHE A   1      44.411 -13.590   8.953  1.00  0.00    -0.399 OA
ATOM     17  H   PHE A   1      44.063 -12.714   9.192  1.00  0.00     0.209 HD
ENDBRANCH  15  16
ENDBRANCH   7  15
ENDBRANCH   1   7
BRANCH   4  18
HETATM   18  C   UNK A   0      42.381 -15.229   2.837  1.00  0.00     0.038 A 
HETATM   19  C   UNK A   0      42.270 -14.353   1.750  1.00  0.00     0.063 A 
HETATM   20  C   UNK A   0      41.757 -14.834   0.536  1.00  0.00     0.087 A 
HETATM   21  C   UNK A   0      41.378 -16.167   0.434  1.00  0.00     0.063 A 
HETATM   22  N   UNK A   0      41.537 -14.173  -0.650  1.00  0.00    -0.228 NA
HETATM   23  N   UNK A   0      40.928 -16.297  -0.855  1.00  0.00    -0.338 N 
HETATM   24  C   UNK A   0      41.477 -17.072   1.488  1.00  0.00     0.034 A 
HETATM   25  H   UNK A   0      40.570 -17.139  -1.283  1.00  0.00     0.167 HD
HETATM   26  C   UNK A   0      41.031 -15.074  -1.474  1.00  0.00     0.170 A 
HETATM   27  C   UNK A   0      41.982 -16.569   2.696  1.00  0.00     0.032 A 
BRANCH  26  28
HETATM   28  C   UNK A   0      40.598 -14.892  -2.882  1.00  0.00     0.422 C 
HETATM   29  F   UNK A   0      41.614 -14.387  -3.636  1.00  0.00    -0.206 F 
HETATM   30  F   UNK A   0      40.287 -16.092  -3.447  1.00  0.00    -0.206 F 
ENDBRANCH  26  28
ENDBRANCH   4  18
TORSDOF 7
ENDMDL
MODEL 6
REMARK VINA RESULT:      -8.2      4.215      6.597
REMARK  7 active torsions:
REMARK  status: ('A' for Active; 'I' for Inactive)
REMARK    1  A    between atoms: CG_4  and  CB_5 
REMARK    2  A    between atoms: CB_5  and  CA_6 
REMARK    3  A    between atoms: CA_6  and  N_7 
REMARK    4  A    between atoms: CA_6  and  C_8 
REMARK       I    between atoms: N_7  and  C_14 
REMARK    5  A    between atoms: C_8  and  O_9 
REMARK       I    between atoms: C_14  and  N_15 
REMARK    6  A    between atoms: N_15  and  C_16 
REMARK    7  A    between atoms: C_22  and  C_23 
ROOT
ATOM      1  N   PHE A   1      42.428 -13.351   5.941  1.00  0.00    -0.336 N 
ATOM      2  H   PHE A   1      42.908 -12.564   6.362  1.00  0.00     0.164 HD
HETATM    3  C   UNK A   0      43.226 -14.456   5.902  1.00  0.00     0.321 C 
HETATM    4  N   UNK A   0      42.627 -15.610   5.479  1.00  0.00    -0.309 N 
HETATM    5  O   UNK A   0      44.396 -14.321   6.240  1.00  0.00    -0.247 OA
HETATM    6  H   UNK A   0      41.622 -15.632   5.522  1.00  0.00     0.170 HD
ENDROOT
BRANCH   1   7
ATOM      7  CA  PHE A   1      41.020 -13.183   5.582  1.00  0.00     0.113 C 
BRANCH   7   8
ATOM      8  CB  PHE A   1      40.844 -12.743   4.109  1.00  0.00     0.065 C 
BRANCH   8   9
ATOM      9  CG  PHE A   1      40.852 -13.852   3.080  1.00  0.00    -0.056 A 
ATOM     10  CD1 PHE A   1      39.750 -14.712   2.959  1.00  0.00     0.007 A 
ATOM     11  CE1 PHE A   1      39.756 -15.745   2.021  1.00  0.00     0.001 A 
ATOM     12  CZ  PHE A   1      40.858 -15.925   1.189  1.00  0.00     0.000 A 
ATOM     13  CE2 PHE A   1      41.951 -15.067   1.288  1.00  0.00     0.001 A 
ATOM     14  CD2 PHE A   1      41.948 -14.034   2.227  1.00  0.00     0.007 A 
ENDBRANCH   8   9
ENDBRANCH   7   8
BRANCH   7  15
ATOM     15  C   PHE A   1      40.301 -12.270   6.590  1.00  0.00     0.189 C 
BRANCH  15  16
ATOM     16  O   PHE A   1      39.355 -13.003   7.360  1.00  0.00    -0.399 OA
ATOM     17  H   PHE A   1      38.545 -12.468   7.422  1.00  0.00     0.209 HD
ENDBRANCH  15  16
ENDBRANCH   7  15
ENDBRANCH   1   7
BRANCH   4  18
HETATM   18  C   UNK A   0      43.258 -16.832   5.158  1.00  0.00     0.038 A 
HETATM   19  C   UNK A   0      43.037 -17.520   3.957  1.00  0.00     0.063 A 
HETATM   20  C   UNK A   0      43.674 -18.753   3.751  1.00  0.00     0.087 A 
HETATM   21  C   UNK A   0      44.515 -19.261   4.734  1.00  0.00     0.063 A 
HETATM   22  N   UNK A   0      43.601 -19.614   2.681  1.00  0.00    -0.228 NA
HETATM   23  N   UNK A   0      44.957 -20.453   4.222  1.00  0.00    -0.338 N 
HETATM   24  C   UNK A   0      44.766 -18.605   5.938  1.00  0.00     0.034 A 
HETATM   25  H   UNK A   0      45.590 -21.101   4.671  1.00  0.00     0.167 HD
HETATM   26  C   UNK A   0      44.379 -20.636   2.989  1.00  0.00     0.170 A 
HETATM   27  C   UNK A   0      44.111 -17.380   6.129  1.00  0.00     0.032 A 
BRANCH  26  28
HETATM   28  C   UNK A   0      44.652 -21.857   2.191  1.00  0.00     0.422 C 
HETATM   29  F   UNK A   0      44.739 -22.950   2.999  1.00  0.00    -0.206 F 
HETATM   30  F   UNK A   0      43.618 -22.115   1.341  1.00  0.00    -0.206 F 
ENDBRANCH  26  28
ENDBRANCH   4  18
TORSDOF 7
ENDMDL
MODEL 7
REMARK VINA RESULT:      -8.1      6.393      9.607
REMARK  7 active torsions:
REMARK  status: ('A' for Active; 'I' for Inactive)
REMARK    1  A    between atoms: CG_4  and  CB_5 
REMARK    2  A    between atoms: CB_5  and  CA_6 
REMARK    3  A    between atoms: CA_6  and  N_7 
REMARK    4  A    between atoms: CA_6  and  C_8 
REMARK       I    between atoms: N_7  and  C_14 
REMARK    5  A    between atoms: C_8  and  O_9 
REMARK       I    between atoms: C_14  and  N_15 
REMARK    6  A    between atoms: N_15  and  C_16 
REMARK    7  A    between atoms: C_22  and  C_23 
ROOT
ATOM      1  N   PHE A   1      42.770 -18.236   5.580  1.00  0.00    -0.336 N 
ATOM      2  H   PHE A   1      42.351 -18.777   6.329  1.00  0.00     0.164 HD
HETATM    3  C   UNK A   0      41.819 -17.624   4.819  1.00  0.00     0.321 C 
HETATM    4  N   UNK A   0      42.282 -16.760   3.867  1.00  0.00    -0.309 N 
HETATM    5  O   UNK A   0      40.647 -17.901   5.047  1.00  0.00    -0.247 OA
HETATM    6  H   UNK A   0      43.220 -16.416   3.994  1.00  0.00     0.170 HD
ENDROOT
BRANCH   1   7
ATOM      7  CA  PHE A   1      44.229 -18.137   5.538  1.00  0.00     0.113 C 
BRANCH   7   8
ATOM      8  CB  PHE A   1      44.901 -19.525   5.406  1.00  0.00     0.065 C 
BRANCH   8   9
ATOM      9  CG  PHE A   1      44.596 -20.291   4.138  1.00  0.00    -0.056 A 
ATOM     10  CD1 PHE A   1      44.180 -19.611   2.984  1.00  0.00     0.007 A 
ATOM     11  CE1 PHE A   1      43.883 -20.313   1.815  1.00  0.00     0.001 A 
ATOM     12  CZ  PHE A   1      44.009 -21.699   1.783  1.00  0.00     0.000 A 
ATOM     13  CE2 PHE A   1      44.438 -22.384   2.918  1.00  0.00     0.001 A 
ATOM     14  CD2 PHE A   1      44.732 -21.684   4.089  1.00  0.00     0.007 A 
ENDBRANCH   8   9
ENDBRANCH   7   8
BRANCH   7  15
ATOM     15  C   PHE A   1      44.757 -17.304   6.719  1.00  0.00     0.189 C 
BRANCH  15  16
ATOM     16  O   PHE A   1      44.407 -15.931   6.573  1.00  0.00    -0.399 OA
ATOM     17  H   PHE A   1      43.485 -15.829   6.865  1.00  0.00     0.209 HD
ENDBRANCH  15  16
ENDBRANCH   7  15
ENDBRANCH   1   7
BRANCH   4  18
HETATM   18  C   UNK A   0      41.541 -16.156   2.828  1.00  0.00     0.038 A 
HETATM   19  C   UNK A   0      41.828 -16.342   1.469  1.00  0.00     0.063 A 
HETATM   20  C   UNK A   0      41.062 -15.660   0.511  1.00  0.00     0.087 A 
HETATM   21  C   UNK A   0      40.034 -14.822   0.926  1.00  0.00     0.063 A 
HETATM   22  N   UNK A   0      41.163 -15.663  -0.861  1.00  0.00    -0.228 NA
HETATM   23  N   UNK A   0      39.508 -14.324  -0.238  1.00  0.00    -0.338 N 
HETATM   24  C   UNK A   0      39.712 -14.615   2.266  1.00  0.00     0.034 A 
HETATM   25  H   UNK A   0      38.737 -13.676  -0.318  1.00  0.00     0.167 HD
HETATM   26  C   UNK A   0      40.219 -14.846  -1.292  1.00  0.00     0.170 A 
HETATM   27  C   UNK A   0      40.496 -15.298   3.208  1.00  0.00     0.032 A 
BRANCH  26  28
HETATM   28  C   UNK A   0      39.894 -14.472  -2.691  1.00  0.00     0.422 C 
HETATM   29  F   UNK A   0      40.793 -15.019  -3.556  1.00  0.00    -0.206 F 
HETATM   30  F   UNK A   0      38.684 -14.981  -3.054  1.00  0.00    -0.206 F 
ENDBRANCH  26  28
ENDBRANCH   4  18
TORSDOF 7
ENDMDL
MODEL 8
REMARK VINA RESULT:      -8.0      6.842     10.202
REMARK  7 active torsions:
REMARK  status: ('A' for Active; 'I' for Inactive)
REMARK    1  A    between atoms: CG_4  and  CB_5 
REMARK    2  A    between atoms: CB_5  and  CA_6 
REMARK    3  A    between atoms: CA_6  and  N_7 
REMARK    4  A    between atoms: CA_6  and  C_8 
REMARK       I    between atoms: N_7  and  C_14 
REMARK    5  A    between atoms: C_8  and  O_9 
REMARK       I    between atoms: C_14  and  N_15 
REMARK    6  A    between atoms: N_15  and  C_16 
REMARK    7  A    between atoms: C_22  and  C_23 
ROOT
ATOM      1  N   PHE A   1      40.168 -15.622   3.672  1.00  0.00    -0.336 N 
ATOM      2  H   PHE A   1      39.268 -15.698   4.133  1.00  0.00     0.164 HD
HETATM    3  C   UNK A   0      40.038 -15.135   2.406  1.00  0.00     0.321 C 
HETATM    4  N   UNK A   0      41.205 -14.865   1.748  1.00  0.00    -0.309 N 
HETATM    5  O   UNK A   0      38.902 -14.988   1.970  1.00  0.00    -0.247 OA
HETATM    6  H   UNK A   0      42.025 -14.754   2.321  1.00  0.00     0.170 HD
ENDROOT
BRANCH   1   7
ATOM      7  CA  PHE A   1      41.366 -15.929   4.454  1.00  0.00     0.113 C 
BRANCH   7   8
ATOM      8  CB  PHE A   1      41.462 -17.433   4.805  1.00  0.00     0.065 C 
BRANCH   8   9
ATOM      9  CG  PHE A   1      42.474 -18.235   4.017  1.00  0.00    -0.056 A 
ATOM     10  CD1 PHE A   1      43.443 -19.000   4.683  1.00  0.00     0.007 A 
ATOM     11  CE1 PHE A   1      44.388 -19.731   3.963  1.00  0.00     0.001 A 
ATOM     12  CZ  PHE A   1      44.371 -19.713   2.571  1.00  0.00     0.000 A 
ATOM     13  CE2 PHE A   1      43.404 -18.970   1.898  1.00  0.00     0.001 A 
ATOM     14  CD2 PHE A   1      42.459 -18.236   2.616  1.00  0.00     0.007 A 
ENDBRANCH   8   9
ENDBRANCH   7   8
BRANCH   7  15
ATOM     15  C   PHE A   1      41.477 -15.001   5.676  1.00  0.00     0.189 C 
BRANCH  15  16
ATOM     16  O   PHE A   1      40.243 -14.936   6.383  1.00  0.00    -0.399 OA
ATOM     17  H   PHE A   1      39.555 -14.666   5.750  1.00  0.00     0.209 HD
ENDBRANCH  15  16
ENDBRANCH   7  15
ENDBRANCH   1   7
BRANCH   4  18
HETATM   18  C   UNK A   0      41.362 -14.548   0.381  1.00  0.00     0.038 A 
HETATM   19  C   UNK A   0      41.719 -13.272  -0.078  1.00  0.00     0.063 A 
HETATM   20  C   UNK A   0      41.802 -13.044  -1.460  1.00  0.00     0.087 A 
HETATM   21  C   UNK A   0      41.538 -14.084  -2.343  1.00  0.00     0.063 A 
HETATM   22  N   UNK A   0      42.108 -11.891  -2.144  1.00  0.00    -0.228 NA
HETATM   23  N   UNK A   0      41.703 -13.528  -3.585  1.00  0.00    -0.338 N 
HETATM   24  C   UNK A   0      41.187 -15.367  -1.928  1.00  0.00     0.034 A 
HETATM   25  H   UNK A   0      41.590 -13.998  -4.472  1.00  0.00     0.167 HD
HETATM   26  C   UNK A   0      42.037 -12.205  -3.425  1.00  0.00     0.170 A 
HETATM   27  C   UNK A   0      41.099 -15.572  -0.543  1.00  0.00     0.032 A 
BRANCH  26  28
HETATM   28  C   UNK A   0      42.261 -11.326  -4.601  1.00  0.00     0.422 C 
HETATM   29  F   UNK A   0      41.073 -10.899  -5.115  1.00  0.00    -0.206 F 
HETATM   30  F   UNK A   0      42.927 -10.196  -4.235  1.00  0.00    -0.206 F 
ENDBRANCH  26  28
ENDBRANCH   4  18
TORSDOF 7
ENDMDL
MODEL 9
REMARK VINA RESULT:      -8.0      2.849      4.253
REMARK  7 active torsions:
REMARK  status: ('A' for Active; 'I' for Inactive)
REMARK    1  A    between atoms: CG_4  and  CB_5 
REMARK    2  A    between atoms: CB_5  and  CA_6 
REMARK    3  A    between atoms: CA_6  and  N_7 
REMARK    4  A    between atoms: CA_6  and  C_8 
REMARK       I    between atoms: N_7  and  C_14 
REMARK    5  A    between atoms: C_8  and  O_9 
REMARK       I    between atoms: C_14  and  N_15 
REMARK    6  A    between atoms: N_15  and  C_16 
REMARK    7  A    between atoms: C_22  and  C_23 
ROOT
ATOM      1  N   PHE A   1      41.423 -13.970   6.231  1.00  0.00    -0.336 N 
ATOM      2  H   PHE A   1      40.491 -13.838   6.608  1.00  0.00     0.164 HD
HETATM    3  C   UNK A   0      41.649 -15.276   5.911  1.00  0.00     0.321 C 
HETATM    4  N   UNK A   0      42.826 -15.537   5.267  1.00  0.00    -0.309 N 
HETATM    5  O   UNK A   0      40.792 -16.092   6.228  1.00  0.00    -0.247 OA
HETATM    6  H   UNK A   0      43.274 -14.754   4.820  1.00  0.00     0.170 HD
ENDROOT
BRANCH   1   7
ATOM      7  CA  PHE A   1      42.250 -12.782   6.016  1.00  0.00     0.113 C 
BRANCH   7   8
ATOM      8  CB  PHE A   1      42.103 -11.756   7.164  1.00  0.00     0.065 C 
BRANCH   8   9
ATOM      9  CG  PHE A   1      43.235 -11.716   8.166  1.00  0.00    -0.056 A 
ATOM     10  CD1 PHE A   1      43.182 -10.837   9.258  1.00  0.00     0.007 A 
ATOM     11  CE1 PHE A   1      44.229 -10.786  10.180  1.00  0.00     0.001 A 
ATOM     12  CZ  PHE A   1      45.335 -11.618  10.026  1.00  0.00     0.000 A 
ATOM     13  CE2 PHE A   1      45.391 -12.507   8.955  1.00  0.00     0.001 A 
ATOM     14  CD2 PHE A   1      44.346 -12.559   8.031  1.00  0.00     0.007 A 
ENDBRANCH   8   9
ENDBRANCH   7   8
BRANCH   7  15
ATOM     15  C   PHE A   1      42.003 -12.187   4.619  1.00  0.00     0.189 C 
BRANCH  15  16
ATOM     16  O   PHE A   1      42.846 -12.796   3.646  1.00  0.00    -0.399 OA
ATOM     17  H   PHE A   1      43.439 -13.409   4.113  1.00  0.00     0.209 HD
ENDBRANCH  15  16
ENDBRANCH   7  15
ENDBRANCH   1   7
BRANCH   4  18
HETATM   18  C   UNK A   0      43.393 -16.804   5.003  1.00  0.00     0.038 A 
HETATM   19  C   UNK A   0      43.208 -17.494   3.798  1.00  0.00     0.063 A 
HETATM   20  C   UNK A   0      43.774 -18.770   3.650  1.00  0.00     0.087 A 
HETATM   21  C   UNK A   0      44.509 -19.318   4.694  1.00  0.00     0.063 A 
HETATM   22  N   UNK A   0      43.716 -19.640   2.586  1.00  0.00    -0.228 NA
HETATM   23  N   UNK A   0      44.903 -20.545   4.227  1.00  0.00    -0.338 N 
HETATM   24  C   UNK A   0      44.721 -18.662   5.905  1.00  0.00     0.034 A 
HETATM   25  H   UNK A   0      45.459 -21.226   4.725  1.00  0.00     0.167 HD
HETATM   26  C   UNK A   0      44.400 -20.707   2.958  1.00  0.00     0.170 A 
HETATM   27  C   UNK A   0      44.138 -17.393   6.037  1.00  0.00     0.032 A 
BRANCH  26  28
HETATM   28  C   UNK A   0      44.643 -21.956   2.194  1.00  0.00     0.422 C 
HETATM   29  F   UNK A   0      44.721 -23.026   3.034  1.00  0.00    -0.206 F 
HETATM   30  F   UNK A   0      43.596 -22.221   1.364  1.00  0.00    -0.206 F 
ENDBRANCH  26  28
ENDBRANCH   4  18
TORSDOF 7
ENDMDL
MODEL 10
REMARK VINA RESULT:      -7.9      5.553      8.484
REMARK  7 active torsions:
REMARK  status: ('A' for Active; 'I' for Inactive)
REMARK    1  A    between atoms: CG_4  and  CB_5 
REMARK    2  A    between atoms: CB_5  and  CA_6 
REMARK    3  A    between atoms: CA_6  and  N_7 
REMARK    4  A    between atoms: CA_6  and  C_8 
REMARK       I    between atoms: N_7  and  C_14 
REMARK    5  A    between atoms: C_8  and  O_9 
REMARK       I    between atoms: C_14  and  N_15 
REMARK    6  A    between atoms: N_15  and  C_16 
REMARK    7  A    between atoms: C_22  and  C_23 
ROOT
ATOM      1  N   PHE A   1      41.837 -15.905   6.520  1.00  0.00    -0.336 N 
ATOM      2  H   PHE A   1      41.229 -15.709   7.308  1.00  0.00     0.164 HD
HETATM    3  C   UNK A   0      41.472 -15.187   5.421  1.00  0.00     0.321 C 
HETATM    4  N   UNK A   0      42.311 -15.275   4.345  1.00  0.00    -0.309 N 
HETATM    5  O   UNK A   0      40.435 -14.537   5.488  1.00  0.00    -0.247 OA
HETATM    6  H   UNK A   0      43.247 -15.594   4.534  1.00  0.00     0.170 HD
ENDROOT
BRANCH   1   7
ATOM      7  CA  PHE A   1      42.984 -16.785   6.742  1.00  0.00     0.113 C 
BRANCH   7   8
ATOM      8  CB  PHE A   1      42.641 -18.268   6.465  1.00  0.00     0.065 C 
BRANCH   8   9
ATOM      9  CG  PHE A   1      43.333 -18.897   5.276  1.00  0.00    -0.056 A 
ATOM     10  CD1 PHE A   1      42.904 -18.605   3.973  1.00  0.00     0.007 A 
ATOM     11  CE1 PHE A   1      43.529 -19.192   2.872  1.00  0.00     0.001 A 
ATOM     12  CZ  PHE A   1      44.593 -20.070   3.060  1.00  0.00     0.000 A 
ATOM     13  CE2 PHE A   1      45.038 -20.355   4.349  1.00  0.00     0.001 A 
ATOM     14  CD2 PHE A   1      44.414 -19.771   5.452  1.00  0.00     0.007 A 
ENDBRANCH   8   9
ENDBRANCH   7   8
BRANCH   7  15
ATOM     15  C   PHE A   1      43.602 -16.542   8.131  1.00  0.00     0.189 C 
BRANCH  15  16
ATOM     16  O   PHE A   1      43.592 -17.734   8.910  1.00  0.00    -0.399 OA
ATOM     17  H   PHE A   1      43.369 -17.487   9.824  1.00  0.00     0.209 HD
ENDBRANCH  15  16
ENDBRANCH   7  15
ENDBRANCH   1   7
BRANCH   4  18
HETATM   18  C   UNK A   0      42.074 -14.803   3.035  1.00  0.00     0.038 A 
HETATM   19  C   UNK A   0      41.687 -15.635   1.976  1.00  0.00     0.063 A 
HETATM   20  C   UNK A   0      41.522 -15.078   0.698  1.00  0.00     0.087 A 
HETATM   21  C   UNK A   0      41.737 -13.718   0.511  1.00  0.00     0.063 A 
HETATM   22  N   UNK A   0      41.173 -15.684  -0.487  1.00  0.00    -0.228 NA
HETATM   23  N   UNK A   0      41.498 -13.516  -0.824  1.00  0.00    -0.338 N 
HETATM   24  C   UNK A   0      42.115 -12.857   1.538  1.00  0.00     0.034 A 
HETATM   25  H   UNK A   0      41.561 -12.636  -1.317  1.00  0.00     0.167 HD
HETATM   26  C   UNK A   0      41.170 -14.723  -1.393  1.00  0.00     0.170 A 
HETATM   27  C   UNK A   0      42.286 -13.434   2.805  1.00  0.00     0.032 A 
BRANCH  26  28
HETATM   28  C   UNK A   0      40.875 -14.828  -2.844  1.00  0.00     0.422 C 
HETATM   29  F   UNK A   0      41.887 -14.288  -3.580  1.00  0.00    -0.206 F 
HETATM   30  F   UNK A   0      40.805 -16.134  -3.225  1.00  0.00    -0.206 F 
ENDBRANCH  26  28
ENDBRANCH   4  18
TORSDOF 7
ENDMDL
