MODEL 1
REMARK VINA RESULT:      -8.6      0.000      0.000
REMARK  10 active torsions:
REMARK  status: ('A' for Active; 'I' for Inactive)
REMARK    1  A    between atoms: C_2  and  C_3 
REMARK    2  A    between atoms: C_3  and  O_4 
REMARK    3  A    between atoms: O_4  and  C_5 
REMARK    4  A    between atoms: C_7  and  C_8 
REMARK       I    between atoms: C_8  and  N_9 
REMARK    5  A    between atoms: N_9  and  C_10 
REMARK    6  A    between atoms: C_10  and  N_11 
REMARK    7  A    between atoms: N_11  and  C_12 
REMARK    8  A    between atoms: C_15  and  N_16 
REMARK    9  A    between atoms: N_19  and  C_21 
REMARK   10  A    between atoms: C_21  and  C_22 
ROOT
HETATM    1  C   UNL     1      40.199 -12.079   5.878  1.00  0.00     0.034 A 
HETATM    2  C   UNL     1      39.592 -13.333   5.855  1.00  0.00     0.032 A 
HETATM    3  C   UNL     1      39.971 -14.303   4.914  1.00  0.00     0.031 A 
HETATM    4  C   UNL     1      40.989 -14.082   3.975  1.00  0.00     0.030 A 
HETATM    5  C   UNL     1      41.592 -12.812   4.028  1.00  0.00     0.031 A 
HETATM    6  C   UNL     1      41.203 -11.823   4.957  1.00  0.00     0.032 A 
ENDROOT
BRANCH   1   7
HETATM    7  N   UNL     1      39.643 -11.129   6.762  1.00  0.00    -0.333 N 
HETATM    8  H   UNL     1      39.267 -10.313   6.291  1.00  0.00     0.168 HD
BRANCH   7   9
HETATM    9  C   UNL     1      39.902 -10.878   8.059  1.00  0.00     0.179 C 
HETATM   10  S   UNL     1      38.740 -10.055   8.945  1.00  0.00    -0.040 SA
BRANCH   9  11
HETATM   11  N   UNL     1      41.003 -11.298   8.727  1.00  0.00    -0.299 N 
HETATM   12  C   UNL     1      42.122 -10.532   9.054  1.00  0.00     0.257 C 
HETATM   13  O   UNL     1      42.106  -9.366   9.432  1.00  0.00    -0.267 OA
HETATM   14  H   UNL     1      41.218 -12.230   8.401  1.00  0.00     0.171 HD
BRANCH  12  15
HETATM   15  C   UNL     1      43.440 -11.243   8.957  1.00  0.00     0.035 A 
HETATM   16  C   UNL     1      43.687 -12.284   8.050  1.00  0.00     0.053 A 
HETATM   17  C   UNL     1      44.957 -12.863   7.948  1.00  0.00     0.069 A 
HETATM   18  C   UNL     1      45.986 -12.417   8.775  1.00  0.00     0.037 A 
HETATM   19  C   UNL     1      45.744 -11.402   9.704  1.00  0.00     0.004 A 
HETATM   20  C   UNL     1      44.479 -10.817   9.796  1.00  0.00     0.017 A 
BRANCH  17  21
HETATM   21  O   UNL     1      45.055 -13.837   6.993  1.00  0.00    -0.351 OA
BRANCH  21  22
HETATM   22  C   UNL     1      43.843 -14.464   6.558  1.00  0.00     0.179 C 
BRANCH  22  23
HETATM   23  C   UNL     1      43.723 -15.826   7.258  1.00  0.00     0.002 C 
HETATM   24  C   UNL     1      44.842 -16.765   6.810  1.00  0.00     0.011 C 
HETATM   25  C   UNL     1      42.359 -16.468   6.994  1.00  0.00     0.011 C 
ENDBRANCH  22  23
ENDBRANCH  21  22
ENDBRANCH  17  21
ENDBRANCH  12  15
ENDBRANCH   9  11
ENDBRANCH   7   9
ENDBRANCH   1   7
BRANCH   4  26
HETATM   26  N   UNL     1      41.307 -15.045   3.016  1.00  0.00    -0.378 N 
HETATM   27  C   UNL     1      40.733 -16.403   3.137  1.00  0.00     0.150 C 
HETATM   28  C   UNL     1      41.697 -17.324   3.914  1.00  0.00     0.255 C 
HETATM   29  N   UNL     1      43.076 -17.341   3.244  1.00  0.00    -0.064 N 
HETATM   30  H   UNL     1      42.940 -17.725   2.302  1.00  0.00     0.280 HD
HETATM   31  C   UNL     1      43.625 -15.920   3.083  1.00  0.00     0.255 C 
HETATM   32  C   UNL     1      42.611 -15.035   2.328  1.00  0.00     0.150 C 
BRANCH  29  33
HETATM   33  C   UNL     1      44.054 -18.246   3.950  1.00  0.00     0.273 C 
BRANCH  33  34
HETATM   34  C   UNL     1      44.075 -19.636   3.372  1.00  0.00    -0.033 A 
HETATM   35  C   UNL     1      44.657 -20.694   4.089  1.00  0.00     0.009 A 
HETATM   36  C   UNL     1      44.707 -21.976   3.540  1.00  0.00     0.001 A 
HETATM   37  C   UNL     1      44.181 -22.214   2.272  1.00  0.00     0.000 A 
HETATM   38  C   UNL     1      43.600 -21.173   1.552  1.00  0.00     0.001 A 
HETATM   39  C   UNL     1      43.544 -19.890   2.099  1.00  0.00     0.009 A 
ENDBRANCH  33  34
ENDBRANCH  29  33
ENDBRANCH   4  26
TORSDOF 10
ENDMDL
MODEL 2
REMARK VINA RESULT:      -8.5      1.702      3.164
REMARK  10 active torsions:
REMARK  status: ('A' for Active; 'I' for Inactive)
REMARK    1  A    between atoms: C_2  and  C_3 
REMARK    2  A    between atoms: C_3  and  O_4 
REMARK    3  A    between atoms: O_4  and  C_5 
REMARK    4  A    between atoms: C_7  and  C_8 
REMARK       I    between atoms: C_8  and  N_9 
REMARK    5  A    between atoms: N_9  and  C_10 
REMARK    6  A    between atoms: C_10  and  N_11 
REMARK    7  A    between atoms: N_11  and  C_12 
REMARK    8  A    between atoms: C_15  and  N_16 
REMARK    9  A    between atoms: N_19  and  C_21 
REMARK   10  A    between atoms: C_21  and  C_22 
ROOT
HETATM    1  C   UNL     1      39.996 -11.387   5.180  1.00  0.00     0.034 A 
HETATM    2  C   UNL     1      41.353 -11.601   4.945  1.00  0.00     0.032 A 
HETATM    3  C   UNL     1      41.938 -12.855   5.175  1.00  0.00     0.031 A 
HETATM    4  C   UNL     1      41.197 -13.959   5.620  1.00  0.00     0.030 A 
HETATM    5  C   UNL     1      39.829 -13.719   5.838  1.00  0.00     0.031 A 
HETATM    6  C   UNL     1      39.236 -12.456   5.630  1.00  0.00     0.032 A 
ENDROOT
BRANCH   1   7
HETATM    7  N   UNL     1      39.541 -10.056   5.060  1.00  0.00    -0.333 N 
HETATM    8  H   UNL     1      39.861  -9.597   4.214  1.00  0.00     0.168 HD
BRANCH   7   9
HETATM    9  C   UNL     1      39.171  -9.165   5.998  1.00  0.00     0.179 C 
HETATM   10  S   UNL     1      37.921  -8.110   5.629  1.00  0.00    -0.040 SA
BRANCH   9  11
HETATM   11  N   UNL     1      39.685  -9.097   7.250  1.00  0.00    -0.299 N 
HETATM   12  C   UNL     1      41.034  -9.137   7.601  1.00  0.00     0.257 C 
HETATM   13  O   UNL     1      41.948  -8.593   6.992  1.00  0.00    -0.267 OA
HETATM   14  H   UNL     1      39.082  -9.637   7.855  1.00  0.00     0.171 HD
BRANCH  12  15
HETATM   15  C   UNL     1      41.350  -9.892   8.859  1.00  0.00     0.035 A 
HETATM   16  C   UNL     1      42.602 -10.470   9.114  1.00  0.00     0.053 A 
HETATM   17  C   UNL     1      42.869 -11.098  10.337  1.00  0.00     0.069 A 
HETATM   18  C   UNL     1      41.869 -11.172  11.305  1.00  0.00     0.037 A 
HETATM   19  C   UNL     1      40.609 -10.627  11.050  1.00  0.00     0.004 A 
HETATM   20  C   UNL     1      40.349  -9.990   9.834  1.00  0.00     0.017 A 
BRANCH  17  21
HETATM   21  O   UNL     1      44.144 -11.578  10.454  1.00  0.00    -0.351 OA
BRANCH  21  22
HETATM   22  C   UNL     1      45.117 -11.116   9.512  1.00  0.00     0.179 C 
BRANCH  22  23
HETATM   23  C   UNL     1      45.803 -12.338   8.883  1.00  0.00     0.002 C 
HETATM   24  C   UNL     1      46.985 -11.908   8.016  1.00  0.00     0.011 C 
HETATM   25  C   UNL     1      44.816 -13.165   8.056  1.00  0.00     0.011 C 
ENDBRANCH  22  23
ENDBRANCH  21  22
ENDBRANCH  17  21
ENDBRANCH  12  15
ENDBRANCH   9  11
ENDBRANCH   7   9
ENDBRANCH   1   7
BRANCH   4  26
HETATM   26  N   UNL     1      41.817 -15.181   5.893  1.00  0.00    -0.378 N 
HETATM   27  C   UNL     1      43.246 -15.358   5.554  1.00  0.00     0.150 C 
HETATM   28  C   UNL     1      43.389 -15.969   4.143  1.00  0.00     0.255 C 
HETATM   29  N   UNL     1      42.609 -17.285   4.048  1.00  0.00    -0.064 N 
HETATM   30  H   UNL     1      43.030 -17.926   4.730  1.00  0.00     0.280 HD
HETATM   31  C   UNL     1      41.145 -17.085   4.454  1.00  0.00     0.255 C 
HETATM   32  C   UNL     1      41.059 -16.445   5.857  1.00  0.00     0.150 C 
BRANCH  29  33
HETATM   33  C   UNL     1      42.733 -17.938   2.695  1.00  0.00     0.273 C 
BRANCH  33  34
HETATM   34  C   UNL     1      43.395 -19.288   2.765  1.00  0.00    -0.033 A 
HETATM   35  C   UNL     1      43.125 -20.263   1.791  1.00  0.00     0.009 A 
HETATM   36  C   UNL     1      43.712 -21.526   1.873  1.00  0.00     0.001 A 
HETATM   37  C   UNL     1      44.571 -21.830   2.927  1.00  0.00     0.000 A 
HETATM   38  C   UNL     1      44.848 -20.871   3.899  1.00  0.00     0.001 A 
HETATM   39  C   UNL     1      44.266 -19.605   3.818  1.00  0.00     0.009 A 
ENDBRANCH  33  34
ENDBRANCH  29  33
ENDBRANCH   4  26
TORSDOF 10
ENDMDL
MODEL 3
REMARK VINA RESULT:      -8.4      1.490      2.371
REMARK  10 active torsions:
REMARK  status: ('A' for Active; 'I' for Inactive)
REMARK    1  A    between atoms: C_2  and  C_3 
REMARK    2  A    between atoms: C_3  and  O_4 
REMARK    3  A    between atoms: O_4  and  C_5 
REMARK    4  A    between atoms: C_7  and  C_8 
REMARK       I    between atoms: C_8  and  N_9 
REMARK    5  A    between atoms: N_9  and  C_10 
REMARK    6  A    between atoms: C_10  and  N_11 
REMARK    7  A    between atoms: N_11  and  C_12 
REMARK    8  A    between atoms: C_15  and  N_16 
REMARK    9  A    between atoms: N_19  and  C_21 
REMARK   10  A    between atoms: C_21  and  C_22 
ROOT
HETATM    1  C   UNL     1      39.580 -12.240   6.678  1.00  0.00     0.034 A 
HETATM    2  C   UNL     1      39.861 -11.111   5.910  1.00  0.00     0.032 A 
HETATM    3  C   UNL     1      40.327 -11.231   4.592  1.00  0.00     0.031 A 
HETATM    4  C   UNL     1      40.507 -12.473   3.968  1.00  0.00     0.030 A 
HETATM    5  C   UNL     1      40.207 -13.595   4.762  1.00  0.00     0.031 A 
HETATM    6  C   UNL     1      39.758 -13.486   6.095  1.00  0.00     0.032 A 
ENDROOT
BRANCH   1   7
HETATM    7  N   UNL     1      39.262 -12.013   8.034  1.00  0.00    -0.333 N 
HETATM    8  H   UNL     1      38.329 -12.324   8.285  1.00  0.00     0.168 HD
BRANCH   7   9
HETATM    9  C   UNL     1      39.733 -11.104   8.907  1.00  0.00     0.179 C 
HETATM   10  S   UNL     1      38.651  -9.987   9.537  1.00  0.00    -0.040 SA
BRANCH   9  11
HETATM   11  N   UNL     1      41.004 -11.060   9.374  1.00  0.00    -0.299 N 
HETATM   12  C   UNL     1      42.096 -10.448   8.760  1.00  0.00     0.257 C 
HETATM   13  O   UNL     1      42.076  -9.375   8.168  1.00  0.00    -0.267 OA
HETATM   14  H   UNL     1      41.208 -11.962   9.782  1.00  0.00     0.171 HD
BRANCH  12  15
HETATM   15  C   UNL     1      43.400 -11.180   8.887  1.00  0.00     0.035 A 
HETATM   16  C   UNL     1      43.747 -12.278   8.087  1.00  0.00     0.053 A 
HETATM   17  C   UNL     1      45.007 -12.878   8.195  1.00  0.00     0.069 A 
HETATM   18  C   UNL     1      45.923 -12.393   9.126  1.00  0.00     0.037 A 
HETATM   19  C   UNL     1      45.579 -11.319   9.950  1.00  0.00     0.004 A 
HETATM   20  C   UNL     1      44.325 -10.714   9.833  1.00  0.00     0.017 A 
BRANCH  17  21
HETATM   21  O   UNL     1      45.213 -13.912   7.323  1.00  0.00    -0.351 OA
BRANCH  21  22
HETATM   22  C   UNL     1      44.085 -14.390   6.584  1.00  0.00     0.179 C 
BRANCH  22  23
HETATM   23  C   UNL     1      43.736 -15.799   7.089  1.00  0.00     0.002 C 
HETATM   24  C   UNL     1      44.767 -16.817   6.607  1.00  0.00     0.011 C 
HETATM   25  C   UNL     1      42.333 -16.217   6.642  1.00  0.00     0.011 C 
ENDBRANCH  22  23
ENDBRANCH  21  22
ENDBRANCH  17  21
ENDBRANCH  12  15
ENDBRANCH   9  11
ENDBRANCH   7   9
ENDBRANCH   1   7
BRANCH   4  26
HETATM   26  N   UNL     1      41.025 -12.563   2.675  1.00  0.00    -0.378 N 
HETATM   27  C   UNL     1      40.103 -12.793   1.541  1.00  0.00     0.150 C 
HETATM   28  C   UNL     1      39.978 -14.303   1.249  1.00  0.00     0.255 C 
HETATM   29  N   UNL     1      41.362 -14.914   0.997  1.00  0.00    -0.064 N 
HETATM   30  H   UNL     1      41.741 -14.448   0.165  1.00  0.00     0.280 HD
HETATM   31  C   UNL     1      42.313 -14.619   2.161  1.00  0.00     0.255 C 
HETATM   32  C   UNL     1      42.376 -13.100   2.429  1.00  0.00     0.150 C 
BRANCH  29  33
HETATM   33  C   UNL     1      41.298 -16.388   0.682  1.00  0.00     0.273 C 
BRANCH  33  34
HETATM   34  C   UNL     1      42.211 -17.205   1.554  1.00  0.00    -0.033 A 
HETATM   35  C   UNL     1      43.463 -17.625   1.076  1.00  0.00     0.009 A 
HETATM   36  C   UNL     1      44.297 -18.411   1.872  1.00  0.00     0.001 A 
HETATM   37  C   UNL     1      43.890 -18.788   3.150  1.00  0.00     0.000 A 
HETATM   38  C   UNL     1      42.652 -18.376   3.637  1.00  0.00     0.001 A 
HETATM   39  C   UNL     1      41.816 -17.586   2.846  1.00  0.00     0.009 A 
ENDBRANCH  33  34
ENDBRANCH  29  33
ENDBRANCH   4  26
TORSDOF 10
ENDMDL
MODEL 4
REMARK VINA RESULT:      -8.4      3.155      9.446
REMARK  10 active torsions:
REMARK  status: ('A' for Active; 'I' for Inactive)
REMARK    1  A    between atoms: C_2  and  C_3 
REMARK    2  A    between atoms: C_3  and  O_4 
REMARK    3  A    between atoms: O_4  and  C_5 
REMARK    4  A    between atoms: C_7  and  C_8 
REMARK       I    between atoms: C_8  and  N_9 
REMARK    5  A    between atoms: N_9  and  C_10 
REMARK    6  A    between atoms: C_10  and  N_11 
REMARK    7  A    between atoms: N_11  and  C_12 
REMARK    8  A    between atoms: C_15  and  N_16 
REMARK    9  A    between atoms: N_19  and  C_21 
REMARK   10  A    between atoms: C_21  and  C_22 
ROOT
HETATM    1  C   UNL     1      40.481 -14.257   5.044  1.00  0.00     0.034 A 
HETATM    2  C   UNL     1      41.660 -13.515   4.992  1.00  0.00     0.032 A 
HETATM    3  C   UNL     1      41.772 -12.287   5.663  1.00  0.00     0.031 A 
HETATM    4  C   UNL     1      40.731 -11.757   6.438  1.00  0.00     0.030 A 
HETATM    5  C   UNL     1      39.558 -12.531   6.482  1.00  0.00     0.031 A 
HETATM    6  C   UNL     1      39.428 -13.756   5.794  1.00  0.00     0.032 A 
ENDROOT
BRANCH   1   7
HETATM    7  N   UNL     1      40.421 -15.398   4.216  1.00  0.00    -0.333 N 
HETATM    8  H   UNL     1      40.329 -16.266   4.734  1.00  0.00     0.168 HD
BRANCH   7   9
HETATM    9  C   UNL     1      40.896 -15.610   2.975  1.00  0.00     0.179 C 
HETATM   10  S   UNL     1      40.181 -14.774   1.708  1.00  0.00    -0.040 SA
BRANCH   9  11
HETATM   11  N   UNL     1      41.955 -16.399   2.672  1.00  0.00    -0.299 N 
HETATM   12  C   UNL     1      41.915 -17.648   2.055  1.00  0.00     0.257 C 
HETATM   13  O   UNL     1      41.173 -17.967   1.132  1.00  0.00    -0.267 OA
HETATM   14  H   UNL     1      42.609 -16.335   3.440  1.00  0.00     0.171 HD
BRANCH  12  15
HETATM   15  C   UNL     1      42.905 -18.653   2.568  1.00  0.00     0.035 A 
HETATM   16  C   UNL     1      43.572 -18.517   3.793  1.00  0.00     0.053 A 
HETATM   17  C   UNL     1      44.430 -19.520   4.261  1.00  0.00     0.069 A 
HETATM   18  C   UNL     1      44.642 -20.660   3.488  1.00  0.00     0.037 A 
HETATM   19  C   UNL     1      44.006 -20.793   2.251  1.00  0.00     0.004 A 
HETATM   20  C   UNL     1      43.142 -19.796   1.792  1.00  0.00     0.017 A 
BRANCH  17  21
HETATM   21  O   UNL     1      44.977 -19.263   5.488  1.00  0.00    -0.351 OA
BRANCH  21  22
HETATM   22  C   UNL     1      44.728 -17.980   6.070  1.00  0.00     0.179 C 
BRANCH  22  23
HETATM   23  C   UNL     1      44.073 -18.189   7.445  1.00  0.00     0.002 C 
HETATM   24  C   UNL     1      43.800 -19.671   7.693  1.00  0.00     0.011 C 
HETATM   25  C   UNL     1      42.777 -17.385   7.570  1.00  0.00     0.011 C 
ENDBRANCH  22  23
ENDBRANCH  21  22
ENDBRANCH  17  21
ENDBRANCH  12  15
ENDBRANCH   9  11
ENDBRANCH   7   9
ENDBRANCH   1   7
BRANCH   4  26
HETATM   26  N   UNL     1      40.852 -10.507   7.049  1.00  0.00    -0.378 N 
HETATM   27  C   UNL     1      41.997 -10.251   7.951  1.00  0.00     0.150 C 
HETATM   28  C   UNL     1      41.610 -10.569   9.411  1.00  0.00     0.255 C 
HETATM   29  N   UNL     1      40.367  -9.770   9.820  1.00  0.00    -0.064 N 
HETATM   30  H   UNL     1      40.621  -8.778   9.754  1.00  0.00     0.280 HD
HETATM   31  C   UNL     1      39.213 -10.013   8.842  1.00  0.00     0.255 C 
HETATM   32  C   UNL     1      39.662  -9.710   7.397  1.00  0.00     0.150 C 
BRANCH  29  33
HETATM   33  C   UNL     1      39.957 -10.025  11.249  1.00  0.00     0.273 C 
BRANCH  33  34
HETATM   34  C   UNL     1      41.073  -9.765  12.225  1.00  0.00    -0.033 A 
HETATM   35  C   UNL     1      41.499 -10.775  13.102  1.00  0.00     0.009 A 
HETATM   36  C   UNL     1      42.511 -10.525  14.030  1.00  0.00     0.001 A 
HETATM   37  C   UNL     1      43.105  -9.267  14.094  1.00  0.00     0.000 A 
HETATM   38  C   UNL     1      42.692  -8.257  13.228  1.00  0.00     0.001 A 
HETATM   39  C   UNL     1      41.683  -8.503  12.295  1.00  0.00     0.009 A 
ENDBRANCH  33  34
ENDBRANCH  29  33
ENDBRANCH   4  26
TORSDOF 10
ENDMDL
MODEL 5
REMARK VINA RESULT:      -8.3      2.660      4.769
REMARK  10 active torsions:
REMARK  status: ('A' for Active; 'I' for Inactive)
REMARK    1  A    between atoms: C_2  and  C_3 
REMARK    2  A    between atoms: C_3  and  O_4 
REMARK    3  A    between atoms: O_4  and  C_5 
REMARK    4  A    between atoms: C_7  and  C_8 
REMARK       I    between atoms: C_8  and  N_9 
REMARK    5  A    between atoms: N_9  and  C_10 
REMARK    6  A    between atoms: C_10  and  N_11 
REMARK    7  A    between atoms: N_11  and  C_12 
REMARK    8  A    between atoms: C_15  and  N_16 
REMARK    9  A    between atoms: N_19  and  C_21 
REMARK   10  A    between atoms: C_21  and  C_22 
ROOT
HETATM    1  C   UNL     1      41.284 -11.754   6.032  1.00  0.00     0.034 A 
HETATM    2  C   UNL     1      40.033 -12.354   5.899  1.00  0.00     0.032 A 
HETATM    3  C   UNL     1      39.911 -13.735   5.687  1.00  0.00     0.031 A 
HETATM    4  C   UNL     1      41.023 -14.587   5.627  1.00  0.00     0.030 A 
HETATM    5  C   UNL     1      42.273 -13.958   5.775  1.00  0.00     0.031 A 
HETATM    6  C   UNL     1      42.406 -12.567   5.968  1.00  0.00     0.032 A 
ENDROOT
BRANCH   1   7
HETATM    7  N   UNL     1      41.302 -10.345   6.092  1.00  0.00    -0.333 N 
HETATM    8  H   UNL     1      41.858  -9.918   5.358  1.00  0.00     0.168 HD
BRANCH   7   9
HETATM    9  C   UNL     1      41.123  -9.506   7.129  1.00  0.00     0.179 C 
HETATM   10  S   UNL     1      41.397  -7.871   6.873  1.00  0.00    -0.040 SA
BRANCH   9  11
HETATM   11  N   UNL     1      40.671  -9.871   8.354  1.00  0.00    -0.299 N 
HETATM   12  C   UNL     1      39.362  -9.772   8.823  1.00  0.00     0.257 C 
HETATM   13  O   UNL     1      38.349 -10.004   8.173  1.00  0.00    -0.267 OA
HETATM   14  H   UNL     1      41.376  -9.604   9.027  1.00  0.00     0.171 HD
BRANCH  12  15
HETATM   15  C   UNL     1      39.222  -9.379  10.265  1.00  0.00     0.035 A 
HETATM   16  C   UNL     1      40.057  -9.868  11.279  1.00  0.00     0.053 A 
HETATM   17  C   UNL     1      39.933  -9.411  12.597  1.00  0.00     0.069 A 
HETATM   18  C   UNL     1      38.950  -8.475  12.911  1.00  0.00     0.037 A 
HETATM   19  C   UNL     1      38.091  -8.003  11.915  1.00  0.00     0.004 A 
HETATM   20  C   UNL     1      38.226  -8.451  10.598  1.00  0.00     0.017 A 
BRANCH  17  21
HETATM   21  O   UNL     1      40.842  -9.949  13.465  1.00  0.00    -0.351 OA
BRANCH  21  22
HETATM   22  C   UNL     1      41.734 -10.947  12.959  1.00  0.00     0.179 C 
BRANCH  22  23
HETATM   23  C   UNL     1      43.174 -10.433  13.111  1.00  0.00     0.002 C 
HETATM   24  C   UNL     1      43.218  -9.209  14.023  1.00  0.00     0.011 C 
HETATM   25  C   UNL     1      43.791 -10.100  11.750  1.00  0.00     0.011 C 
ENDBRANCH  22  23
ENDBRANCH  21  22
ENDBRANCH  17  21
ENDBRANCH  12  15
ENDBRANCH   9  11
ENDBRANCH   7   9
ENDBRANCH   1   7
BRANCH   4  26
HETATM   26  N   UNL     1      40.875 -15.950   5.359  1.00  0.00    -0.378 N 
HETATM   27  C   UNL     1      41.139 -16.930   6.435  1.00  0.00     0.150 C 
HETATM   28  C   UNL     1      42.606 -17.408   6.377  1.00  0.00     0.255 C 
HETATM   29  N   UNL     1      42.927 -17.976   4.990  1.00  0.00    -0.064 N 
HETATM   30  H   UNL     1      42.311 -18.786   4.854  1.00  0.00     0.280 HD
HETATM   31  C   UNL     1      42.597 -16.961   3.891  1.00  0.00     0.255 C 
HETATM   32  C   UNL     1      41.130 -16.495   4.014  1.00  0.00     0.150 C 
BRANCH  29  33
HETATM   33  C   UNL     1      44.344 -18.481   4.883  1.00  0.00     0.273 C 
BRANCH  33  34
HETATM   34  C   UNL     1      44.427 -19.838   4.237  1.00  0.00    -0.033 A 
HETATM   35  C   UNL     1      44.182 -19.987   2.863  1.00  0.00     0.009 A 
HETATM   36  C   UNL     1      44.225 -21.250   2.270  1.00  0.00     0.001 A 
HETATM   37  C   UNL     1      44.511 -22.374   3.042  1.00  0.00     0.000 A 
HETATM   38  C   UNL     1      44.757 -22.239   4.406  1.00  0.00     0.001 A 
HETATM   39  C   UNL     1      44.718 -20.978   5.002  1.00  0.00     0.009 A 
ENDBRANCH  33  34
ENDBRANCH  29  33
ENDBRANCH   4  26
TORSDOF 10
ENDMDL
MODEL 6
REMARK VINA RESULT:      -8.2      2.552      4.313
REMARK  10 active torsions:
REMARK  status: ('A' for Active; 'I' for Inactive)
REMARK    1  A    between atoms: C_2  and  C_3 
REMARK    2  A    between atoms: C_3  and  O_4 
REMARK    3  A    between atoms: O_4  and  C_5 
REMARK    4  A    between atoms: C_7  and  C_8 
REMARK       I    between atoms: C_8  and  N_9 
REMARK    5  A    between atoms: N_9  and  C_10 
REMARK    6  A    between atoms: C_10  and  N_11 
REMARK    7  A    between atoms: N_11  and  C_12 
REMARK    8  A    between atoms: C_15  and  N_16 
REMARK    9  A    between atoms: N_19  and  C_21 
REMARK   10  A    between atoms: C_21  and  C_22 
ROOT
HETATM    1  C   UNL     1      41.118 -11.717   3.705  1.00  0.00     0.034 A 
HETATM    2  C   UNL     1      42.163 -12.608   3.947  1.00  0.00     0.032 A 
HETATM    3  C   UNL     1      41.989 -13.990   3.780  1.00  0.00     0.031 A 
HETATM    4  C   UNL     1      40.781 -14.547   3.338  1.00  0.00     0.030 A 
HETATM    5  C   UNL     1      39.747 -13.625   3.090  1.00  0.00     0.031 A 
HETATM    6  C   UNL     1      39.906 -12.236   3.275  1.00  0.00     0.032 A 
ENDROOT
BRANCH   1   7
HETATM    7  N   UNL     1      41.353 -10.368   4.046  1.00  0.00    -0.333 N 
HETATM    8  H   UNL     1      42.005  -9.903   3.422  1.00  0.00     0.168 HD
BRANCH   7   9
HETATM    9  C   UNL     1      41.255  -9.729   5.226  1.00  0.00     0.179 C 
HETATM   10  S   UNL     1      41.728  -8.121   5.290  1.00  0.00    -0.040 SA
BRANCH   9  11
HETATM   11  N   UNL     1      40.739 -10.264   6.359  1.00  0.00    -0.299 N 
HETATM   12  C   UNL     1      39.566  -9.877   7.005  1.00  0.00     0.257 C 
HETATM   13  O   UNL     1      38.519  -9.556   6.455  1.00  0.00    -0.267 OA
HETATM   14  H   UNL     1      41.512 -10.458   6.981  1.00  0.00     0.171 HD
BRANCH  12  15
HETATM   15  C   UNL     1      39.618  -9.901   8.505  1.00  0.00     0.035 A 
HETATM   16  C   UNL     1      40.599 -10.593   9.229  1.00  0.00     0.053 A 
HETATM   17  C   UNL     1      40.647 -10.522  10.626  1.00  0.00     0.069 A 
HETATM   18  C   UNL     1      39.693  -9.772  11.310  1.00  0.00     0.037 A 
HETATM   19  C   UNL     1      38.692  -9.102  10.602  1.00  0.00     0.004 A 
HETATM   20  C   UNL     1      38.654  -9.165   9.207  1.00  0.00     0.017 A 
BRANCH  17  21
HETATM   21  O   UNL     1      41.682 -11.217  11.188  1.00  0.00    -0.351 OA
BRANCH  21  22
HETATM   22  C   UNL     1      41.826 -11.159  12.611  1.00  0.00     0.179 C 
BRANCH  22  23
HETATM   23  C   UNL     1      43.227 -10.617  12.936  1.00  0.00     0.002 C 
HETATM   24  C   UNL     1      43.132  -9.306  13.713  1.00  0.00     0.011 C 
HETATM   25  C   UNL     1      44.054 -10.418  11.664  1.00  0.00     0.011 C 
ENDBRANCH  22  23
ENDBRANCH  21  22
ENDBRANCH  17  21
ENDBRANCH  12  15
ENDBRANCH   9  11
ENDBRANCH   7   9
ENDBRANCH   1   7
BRANCH   4  26
HETATM   26  N   UNL     1      40.620 -15.930   3.234  1.00  0.00    -0.378 N 
HETATM   27  C   UNL     1      41.092 -16.797   4.335  1.00  0.00     0.150 C 
HETATM   28  C   UNL     1      42.536 -17.270   4.063  1.00  0.00     0.255 C 
HETATM   29  N   UNL     1      42.621 -17.971   2.703  1.00  0.00    -0.064 N 
HETATM   30  H   UNL     1      42.010 -18.794   2.758  1.00  0.00     0.280 HD
HETATM   31  C   UNL     1      42.079 -17.072   1.587  1.00  0.00     0.255 C 
HETATM   32  C   UNL     1      40.647 -16.605   1.923  1.00  0.00     0.150 C 
BRANCH  29  33
HETATM   33  C   UNL     1      44.009 -18.476   2.395  1.00  0.00     0.273 C 
BRANCH  33  34
HETATM   34  C   UNL     1      44.221 -19.894   2.849  1.00  0.00    -0.033 A 
HETATM   35  C   UNL     1      44.657 -20.165   4.157  1.00  0.00     0.009 A 
HETATM   36  C   UNL     1      44.887 -21.478   4.568  1.00  0.00     0.001 A 
HETATM   37  C   UNL     1      44.687 -22.533   3.680  1.00  0.00     0.000 A 
HETATM   38  C   UNL     1      44.254 -22.278   2.381  1.00  0.00     0.001 A 
HETATM   39  C   UNL     1      44.019 -20.966   1.966  1.00  0.00     0.009 A 
ENDBRANCH  33  34
ENDBRANCH  29  33
ENDBRANCH   4  26
TORSDOF 10
ENDMDL
MODEL 7
REMARK VINA RESULT:      -8.1      2.453      4.478
REMARK  10 active torsions:
REMARK  status: ('A' for Active; 'I' for Inactive)
REMARK    1  A    between atoms: C_2  and  C_3 
REMARK    2  A    between atoms: C_3  and  O_4 
REMARK    3  A    between atoms: O_4  and  C_5 
REMARK    4  A    between atoms: C_7  and  C_8 
REMARK       I    between atoms: C_8  and  N_9 
REMARK    5  A    between atoms: N_9  and  C_10 
REMARK    6  A    between atoms: C_10  and  N_11 
REMARK    7  A    between atoms: N_11  and  C_12 
REMARK    8  A    between atoms: C_15  and  N_16 
REMARK    9  A    between atoms: N_19  and  C_21 
REMARK   10  A    between atoms: C_21  and  C_22 
ROOT
HETATM    1  C   UNL     1      41.208 -11.310   4.744  1.00  0.00     0.034 A 
HETATM    2  C   UNL     1      41.241 -12.208   5.810  1.00  0.00     0.032 A 
HETATM    3  C   UNL     1      41.102 -13.588   5.598  1.00  0.00     0.031 A 
HETATM    4  C   UNL     1      40.953 -14.140   4.318  1.00  0.00     0.030 A 
HETATM    5  C   UNL     1      40.934 -13.213   3.260  1.00  0.00     0.031 A 
HETATM    6  C   UNL     1      41.053 -11.822   3.465  1.00  0.00     0.032 A 
ENDROOT
BRANCH   1   7
HETATM    7  N   UNL     1      41.207  -9.939   5.079  1.00  0.00    -0.333 N 
HETATM    8  H   UNL     1      42.123  -9.588   5.339  1.00  0.00     0.168 HD
BRANCH   7   9
HETATM    9  C   UNL     1      40.223  -9.149   5.545  1.00  0.00     0.179 C 
HETATM   10  S   UNL     1      38.966  -8.763   4.504  1.00  0.00    -0.040 SA
BRANCH   9  11
HETATM   11  N   UNL     1      40.131  -8.691   6.818  1.00  0.00    -0.299 N 
HETATM   12  C   UNL     1      40.863  -9.134   7.918  1.00  0.00     0.257 C 
HETATM   13  O   UNL     1      42.051  -9.436   7.912  1.00  0.00    -0.267 OA
HETATM   14  H   UNL     1      39.153  -8.524   7.009  1.00  0.00     0.171 HD
BRANCH  12  15
HETATM   15  C   UNL     1      40.106  -9.200   9.212  1.00  0.00     0.035 A 
HETATM   16  C   UNL     1      40.611  -9.811  10.368  1.00  0.00     0.053 A 
HETATM   17  C   UNL     1      39.895  -9.779  11.571  1.00  0.00     0.069 A 
HETATM   18  C   UNL     1      38.652  -9.151  11.615  1.00  0.00     0.037 A 
HETATM   19  C   UNL     1      38.124  -8.564  10.462  1.00  0.00     0.004 A 
HETATM   20  C   UNL     1      38.846  -8.588   9.266  1.00  0.00     0.017 A 
BRANCH  17  21
HETATM   21  O   UNL     1      40.533 -10.382  12.619  1.00  0.00    -0.351 OA
BRANCH  21  22
HETATM   22  C   UNL     1      41.580 -11.309  12.315  1.00  0.00     0.179 C 
BRANCH  22  23
HETATM   23  C   UNL     1      42.824 -10.920  13.129  1.00  0.00     0.002 C 
HETATM   24  C   UNL     1      42.426 -10.188  14.409  1.00  0.00     0.011 C 
HETATM   25  C   UNL     1      43.780 -10.056  12.303  1.00  0.00     0.011 C 
ENDBRANCH  22  23
ENDBRANCH  21  22
ENDBRANCH  17  21
ENDBRANCH  12  15
ENDBRANCH   9  11
ENDBRANCH   7   9
ENDBRANCH   1   7
BRANCH   4  26
HETATM   26  N   UNL     1      40.762 -15.512   4.142  1.00  0.00    -0.378 N 
HETATM   27  C   UNL     1      41.364 -16.456   5.109  1.00  0.00     0.150 C 
HETATM   28  C   UNL     1      42.753 -16.914   4.617  1.00  0.00     0.255 C 
HETATM   29  N   UNL     1      42.649 -17.520   3.212  1.00  0.00    -0.064 N 
HETATM   30  H   UNL     1      42.039 -18.342   3.291  1.00  0.00     0.280 HD
HETATM   31  C   UNL     1      41.975 -16.543   2.242  1.00  0.00     0.255 C 
HETATM   32  C   UNL     1      40.607 -16.094   2.797  1.00  0.00     0.150 C 
BRANCH  29  33
HETATM   33  C   UNL     1      43.976 -18.007   2.689  1.00  0.00     0.273 C 
BRANCH  33  34
HETATM   34  C   UNL     1      44.138 -19.497   2.823  1.00  0.00    -0.033 A 
HETATM   35  C   UNL     1      43.686 -20.355   1.808  1.00  0.00     0.009 A 
HETATM   36  C   UNL     1      43.806 -21.739   1.946  1.00  0.00     0.001 A 
HETATM   37  C   UNL     1      44.373 -22.279   3.098  1.00  0.00     0.000 A 
HETATM   38  C   UNL     1      44.826 -21.438   4.112  1.00  0.00     0.001 A 
HETATM   39  C   UNL     1      44.713 -20.054   3.976  1.00  0.00     0.009 A 
ENDBRANCH  33  34
ENDBRANCH  29  33
ENDBRANCH   4  26
TORSDOF 10
ENDMDL
MODEL 8
REMARK VINA RESULT:      -8.1      4.127      6.764
REMARK  10 active torsions:
REMARK  status: ('A' for Active; 'I' for Inactive)
REMARK    1  A    between atoms: C_2  and  C_3 
REMARK    2  A    between atoms: C_3  and  O_4 
REMARK    3  A    between atoms: O_4  and  C_5 
REMARK    4  A    between atoms: C_7  and  C_8 
REMARK       I    between atoms: C_8  and  N_9 
REMARK    5  A    between atoms: N_9  and  C_10 
REMARK    6  A    between atoms: C_10  and  N_11 
REMARK    7  A    between atoms: N_11  and  C_12 
REMARK    8  A    between atoms: C_15  and  N_16 
REMARK    9  A    between atoms: N_19  and  C_21 
REMARK   10  A    between atoms: C_21  and  C_22 
ROOT
HETATM    1  C   UNL     1      40.093 -11.893   4.997  1.00  0.00     0.034 A 
HETATM    2  C   UNL     1      39.301 -12.960   5.418  1.00  0.00     0.032 A 
HETATM    3  C   UNL     1      39.872 -14.196   5.756  1.00  0.00     0.031 A 
HETATM    4  C   UNL     1      41.256 -14.419   5.719  1.00  0.00     0.030 A 
HETATM    5  C   UNL     1      42.032 -13.323   5.301  1.00  0.00     0.031 A 
HETATM    6  C   UNL     1      41.465 -12.083   4.939  1.00  0.00     0.032 A 
ENDROOT
BRANCH   1   7
HETATM    7  N   UNL     1      39.409 -10.746   4.540  1.00  0.00    -0.333 N 
HETATM    8  H   UNL     1      38.844 -10.303   5.258  1.00  0.00     0.168 HD
BRANCH   7   9
HETATM    9  C   UNL     1      39.005 -10.397   3.305  1.00  0.00     0.179 C 
HETATM   10  S   UNL     1      38.098  -8.995   3.143  1.00  0.00    -0.040 SA
BRANCH   9  11
HETATM   11  N   UNL     1      39.330 -11.054   2.166  1.00  0.00    -0.299 N 
HETATM   12  C   UNL     1      38.582 -12.045   1.532  1.00  0.00     0.257 C 
HETATM   13  O   UNL     1      37.362 -12.054   1.412  1.00  0.00    -0.267 OA
HETATM   14  H   UNL     1      40.323 -11.239   2.197  1.00  0.00     0.171 HD
BRANCH  12  15
HETATM   15  C   UNL     1      39.376 -13.165   0.926  1.00  0.00     0.035 A 
HETATM   16  C   UNL     1      39.409 -13.426  -0.451  1.00  0.00     0.053 A 
HETATM   17  C   UNL     1      40.226 -14.436  -0.973  1.00  0.00     0.069 A 
HETATM   18  C   UNL     1      41.001 -15.209  -0.110  1.00  0.00     0.037 A 
HETATM   19  C   UNL     1      40.954 -14.978   1.267  1.00  0.00     0.004 A 
HETATM   20  C   UNL     1      40.147 -13.961   1.784  1.00  0.00     0.017 A 
BRANCH  17  21
HETATM   21  O   UNL     1      40.181 -14.546  -2.335  1.00  0.00    -0.351 OA
BRANCH  21  22
HETATM   22  C   UNL     1      39.046 -13.993  -3.009  1.00  0.00     0.179 C 
BRANCH  22  23
HETATM   23  C   UNL     1      38.125 -15.147  -3.435  1.00  0.00     0.002 C 
HETATM   24  C   UNL     1      38.885 -16.156  -4.294  1.00  0.00     0.011 C 
HETATM   25  C   UNL     1      36.898 -14.629  -4.190  1.00  0.00     0.011 C 
ENDBRANCH  22  23
ENDBRANCH  21  22
ENDBRANCH  17  21
ENDBRANCH  12  15
ENDBRANCH   9  11
ENDBRANCH   7   9
ENDBRANCH   1   7
BRANCH   4  26
HETATM   26  N   UNL     1      41.792 -15.676   6.007  1.00  0.00    -0.378 N 
HETATM   27  C   UNL     1      43.255 -15.874   5.922  1.00  0.00     0.150 C 
HETATM   28  C   UNL     1      43.646 -16.387   4.519  1.00  0.00     0.255 C 
HETATM   29  N   UNL     1      42.872 -17.667   4.183  1.00  0.00    -0.064 N 
HETATM   30  H   UNL     1      43.149 -18.368   4.880  1.00  0.00     0.280 HD
HETATM   31  C   UNL     1      41.362 -17.450   4.329  1.00  0.00     0.255 C 
HETATM   32  C   UNL     1      41.031 -16.910   5.737  1.00  0.00     0.150 C 
BRANCH  29  33
HETATM   33  C   UNL     1      43.232 -18.226   2.830  1.00  0.00     0.273 C 
BRANCH  33  34
HETATM   34  C   UNL     1      43.732 -19.643   2.905  1.00  0.00    -0.033 A 
HETATM   35  C   UNL     1      43.518 -20.530   1.838  1.00  0.00     0.009 A 
HETATM   36  C   UNL     1      43.951 -21.854   1.920  1.00  0.00     0.001 A 
HETATM   37  C   UNL     1      44.600 -22.306   3.068  1.00  0.00     0.000 A 
HETATM   38  C   UNL     1      44.819 -21.436   4.133  1.00  0.00     0.001 A 
HETATM   39  C   UNL     1      44.391 -20.110   4.053  1.00  0.00     0.009 A 
ENDBRANCH  33  34
ENDBRANCH  29  33
ENDBRANCH   4  26
TORSDOF 10
ENDMDL
MODEL 9
REMARK VINA RESULT:      -8.0      3.333      9.405
REMARK  10 active torsions:
REMARK  status: ('A' for Active; 'I' for Inactive)
REMARK    1  A    between atoms: C_2  and  C_3 
REMARK    2  A    between atoms: C_3  and  O_4 
REMARK    3  A    between atoms: O_4  and  C_5 
REMARK    4  A    between atoms: C_7  and  C_8 
REMARK       I    between atoms: C_8  and  N_9 
REMARK    5  A    between atoms: N_9  and  C_10 
REMARK    6  A    between atoms: C_10  and  N_11 
REMARK    7  A    between atoms: N_11  and  C_12 
REMARK    8  A    between atoms: C_15  and  N_16 
REMARK    9  A    between atoms: N_19  and  C_21 
REMARK   10  A    between atoms: C_21  and  C_22 
ROOT
HETATM    1  C   UNL     1      39.569 -13.053   4.075  1.00  0.00     0.034 A 
HETATM    2  C   UNL     1      39.624 -11.673   3.883  1.00  0.00     0.032 A 
HETATM    3  C   UNL     1      39.600 -10.789   4.973  1.00  0.00     0.031 A 
HETATM    4  C   UNL     1      39.551 -11.236   6.301  1.00  0.00     0.030 A 
HETATM    5  C   UNL     1      39.507 -12.632   6.466  1.00  0.00     0.031 A 
HETATM    6  C   UNL     1      39.510 -13.528   5.377  1.00  0.00     0.032 A 
ENDROOT
BRANCH   1   7
HETATM    7  N   UNL     1      39.448 -13.843   2.913  1.00  0.00    -0.333 N 
HETATM    8  H   UNL     1      38.584 -14.374   2.875  1.00  0.00     0.168 HD
BRANCH   7   9
HETATM    9  C   UNL     1      40.388 -14.370   2.106  1.00  0.00     0.179 C 
HETATM   10  S   UNL     1      40.504 -13.772   0.543  1.00  0.00    -0.040 SA
BRANCH   9  11
HETATM   11  N   UNL     1      41.298 -15.303   2.477  1.00  0.00    -0.299 N 
HETATM   12  C   UNL     1      41.096 -16.681   2.551  1.00  0.00     0.257 C 
HETATM   13  O   UNL     1      40.452 -17.353   1.754  1.00  0.00    -0.267 OA
HETATM   14  H   UNL     1      41.828 -14.918   3.247  1.00  0.00     0.171 HD
BRANCH  12  15
HETATM   15  C   UNL     1      41.772 -17.370   3.700  1.00  0.00     0.035 A 
HETATM   16  C   UNL     1      42.711 -18.398   3.534  1.00  0.00     0.053 A 
HETATM   17  C   UNL     1      43.369 -18.957   4.636  1.00  0.00     0.069 A 
HETATM   18  C   UNL     1      43.071 -18.502   5.919  1.00  0.00     0.037 A 
HETATM   19  C   UNL     1      42.115 -17.499   6.100  1.00  0.00     0.004 A 
HETATM   20  C   UNL     1      41.468 -16.935   4.997  1.00  0.00     0.017 A 
BRANCH  17  21
HETATM   21  O   UNL     1      44.284 -19.921   4.314  1.00  0.00    -0.351 OA
BRANCH  21  22
HETATM   22  C   UNL     1      44.673 -20.034   2.942  1.00  0.00     0.179 C 
BRANCH  22  23
HETATM   23  C   UNL     1      44.650 -21.521   2.552  1.00  0.00     0.002 C 
HETATM   24  C   UNL     1      43.494 -21.811   1.597  1.00  0.00     0.011 C 
HETATM   25  C   UNL     1      44.552 -22.417   3.789  1.00  0.00     0.011 C 
ENDBRANCH  22  23
ENDBRANCH  21  22
ENDBRANCH  17  21
ENDBRANCH  12  15
ENDBRANCH   9  11
ENDBRANCH   7   9
ENDBRANCH   1   7
BRANCH   4  26
HETATM   26  N   UNL     1      39.472 -10.332   7.363  1.00  0.00    -0.378 N 
HETATM   27  C   UNL     1      40.280  -9.094   7.319  1.00  0.00     0.150 C 
HETATM   28  C   UNL     1      41.634  -9.311   8.027  1.00  0.00     0.255 C 
HETATM   29  N   UNL     1      41.413  -9.803   9.463  1.00  0.00    -0.064 N 
HETATM   30  H   UNL     1      40.901  -9.060   9.951  1.00  0.00     0.280 HD
HETATM   31  C   UNL     1      40.532 -11.056   9.484  1.00  0.00     0.255 C 
HETATM   32  C   UNL     1      39.207 -10.793   8.738  1.00  0.00     0.150 C 
BRANCH  29  33
HETATM   33  C   UNL     1      42.706 -10.010  10.211  1.00  0.00     0.273 C 
BRANCH  33  34
HETATM   34  C   UNL     1      42.698  -9.361  11.568  1.00  0.00    -0.033 A 
HETATM   35  C   UNL     1      42.158  -8.076  11.739  1.00  0.00     0.009 A 
HETATM   36  C   UNL     1      42.181  -7.460  12.991  1.00  0.00     0.001 A 
HETATM   37  C   UNL     1      42.744  -8.118  14.082  1.00  0.00     0.000 A 
HETATM   38  C   UNL     1      43.282  -9.393  13.926  1.00  0.00     0.001 A 
HETATM   39  C   UNL     1      43.258 -10.015  12.677  1.00  0.00     0.009 A 
ENDBRANCH  33  34
ENDBRANCH  29  33
ENDBRANCH   4  26
TORSDOF 10
ENDMDL
MODEL 10
REMARK VINA RESULT:      -7.9      3.239      5.738
REMARK  10 active torsions:
REMARK  status: ('A' for Active; 'I' for Inactive)
REMARK    1  A    between atoms: C_2  and  C_3 
REMARK    2  A    between atoms: C_3  and  O_4 
REMARK    3  A    between atoms: O_4  and  C_5 
REMARK    4  A    between atoms: C_7  and  C_8 
REMARK       I    between atoms: C_8  and  N_9 
REMARK    5  A    between atoms: N_9  and  C_10 
REMARK    6  A    between atoms: C_10  and  N_11 
REMARK    7  A    between atoms: N_11  and  C_12 
REMARK    8  A    between atoms: C_15  and  N_16 
REMARK    9  A    between atoms: N_19  and  C_21 
REMARK   10  A    between atoms: C_21  and  C_22 
ROOT
HETATM    1  C   UNL     1      41.285 -11.847   5.282  1.00  0.00     0.034 A 
HETATM    2  C   UNL     1      40.297 -12.561   5.958  1.00  0.00     0.032 A 
HETATM    3  C   UNL     1      40.206 -13.957   5.842  1.00  0.00     0.031 A 
HETATM    4  C   UNL     1      41.108 -14.707   5.076  1.00  0.00     0.030 A 
HETATM    5  C   UNL     1      42.101 -13.963   4.414  1.00  0.00     0.031 A 
HETATM    6  C   UNL     1      42.188 -12.558   4.507  1.00  0.00     0.032 A 
ENDROOT
BRANCH   1   7
HETATM    7  N   UNL     1      41.196 -10.440   5.346  1.00  0.00    -0.333 N 
HETATM    8  H   UNL     1      41.504 -10.058   6.235  1.00  0.00     0.168 HD
BRANCH   7   9
HETATM    9  C   UNL     1      40.404  -9.577   4.684  1.00  0.00     0.179 C 
HETATM   10  S   UNL     1      40.322  -7.999   5.245  1.00  0.00    -0.040 SA
BRANCH   9  11
HETATM   11  N   UNL     1      39.715  -9.866   3.553  1.00  0.00    -0.299 N 
HETATM   12  C   UNL     1      38.450 -10.447   3.473  1.00  0.00     0.257 C 
HETATM   13  O   UNL     1      37.503 -10.206   4.214  1.00  0.00    -0.267 OA
HETATM   14  H   UNL     1      40.378 -10.218   2.877  1.00  0.00     0.171 HD
BRANCH  12  15
HETATM   15  C   UNL     1      38.259 -11.421   2.348  1.00  0.00     0.035 A 
HETATM   16  C   UNL     1      39.146 -12.474   2.084  1.00  0.00     0.053 A 
HETATM   17  C   UNL     1      38.882 -13.401   1.068  1.00  0.00     0.069 A 
HETATM   18  C   UNL     1      37.732 -13.262   0.292  1.00  0.00     0.037 A 
HETATM   19  C   UNL     1      36.857 -12.199   0.525  1.00  0.00     0.004 A 
HETATM   20  C   UNL     1      37.117 -11.283   1.548  1.00  0.00     0.017 A 
BRANCH  17  21
HETATM   21  O   UNL     1      39.816 -14.393   0.955  1.00  0.00    -0.351 OA
BRANCH  21  22
HETATM   22  C   UNL     1      41.194 -14.006   0.924  1.00  0.00     0.179 C 
BRANCH  22  23
HETATM   23  C   UNL     1      41.702 -14.135  -0.520  1.00  0.00     0.002 C 
HETATM   24  C   UNL     1      41.545 -12.813  -1.269  1.00  0.00     0.011 C 
HETATM   25  C   UNL     1      40.973 -15.255  -1.267  1.00  0.00     0.011 C 
ENDBRANCH  22  23
ENDBRANCH  21  22
ENDBRANCH  17  21
ENDBRANCH  12  15
ENDBRANCH   9  11
ENDBRANCH   7   9
ENDBRANCH   1   7
BRANCH   4  26
HETATM   26  N   UNL     1      40.960 -16.089   4.935  1.00  0.00    -0.378 N 
HETATM   27  C   UNL     1      41.448 -16.981   6.009  1.00  0.00     0.150 C 
HETATM   28  C   UNL     1      42.895 -17.431   5.716  1.00  0.00     0.255 C 
HETATM   29  N   UNL     1      42.979 -18.094   4.336  1.00  0.00    -0.064 N 
HETATM   30  H   UNL     1      42.376 -18.924   4.372  1.00  0.00     0.280 HD
HETATM   31  C   UNL     1      42.420 -17.171   3.249  1.00  0.00     0.255 C 
HETATM   32  C   UNL     1      40.986 -16.727   3.606  1.00  0.00     0.150 C 
BRANCH  29  33
HETATM   33  C   UNL     1      44.369 -18.576   4.006  1.00  0.00     0.273 C 
BRANCH  33  34
HETATM   34  C   UNL     1      44.449 -20.074   3.890  1.00  0.00    -0.033 A 
HETATM   35  C   UNL     1      44.711 -20.862   5.022  1.00  0.00     0.009 A 
HETATM   36  C   UNL     1      44.819 -22.249   4.909  1.00  0.00     0.001 A 
HETATM   37  C   UNL     1      44.668 -22.862   3.667  1.00  0.00     0.000 A 
HETATM   38  C   UNL     1      44.406 -22.092   2.537  1.00  0.00     0.001 A 
HETATM   39  C   UNL     1      44.294 -20.705   2.645  1.00  0.00     0.009 A 
ENDBRANCH  33  34
ENDBRANCH  29  33
ENDBRANCH   4  26
TORSDOF 10
ENDMDL
