MODEL 1
REMARK VINA RESULT:      -9.5      0.000      0.000
REMARK  5 active torsions:
REMARK  status: ('A' for Active; 'I' for Inactive)
REMARK    1  A    between atoms: O_2  and  C_3 
REMARK    2  A    between atoms: C_6  and  N_7 
REMARK    3  A    between atoms: C_11  and  C_12 
REMARK    4  A    between atoms: C_12  and  N_13 
REMARK       I    between atoms: N_13  and  C_14 
REMARK    5  A    between atoms: C_14  and  C_15 
ROOT
HETATM    1  N   UNL     1      43.736 -12.318   8.877  1.00  0.00    -0.360 N 
HETATM    2  C   UNL     1      44.081 -11.027   9.235  1.00  0.00     0.230 C 
HETATM    3  O   UNL     1      45.246 -10.632   9.234  1.00  0.00    -0.272 OA
HETATM    4  H   UNL     1      42.749 -12.552   8.826  1.00  0.00     0.162 HD
ENDROOT
BRANCH   1   5
HETATM    5  C   UNL     1      44.703 -13.254   8.349  1.00  0.00     0.129 C 
BRANCH   5   6
HETATM    6  C   UNL     1      44.418 -13.651   6.906  1.00  0.00     0.031 C 
HETATM    7  C   UNL     1      42.990 -13.326   6.493  1.00  0.00     0.111 C 
HETATM    8  C   UNL     1      42.669 -14.366   5.448  1.00  0.00     0.224 C 
HETATM    9  N   UNL     1      43.595 -15.412   5.580  1.00  0.00    -0.318 N 
HETATM   10  O   UNL     1      41.714 -14.263   4.694  1.00  0.00    -0.273 OA
HETATM   11  C   UNL     1      44.521 -15.147   6.659  1.00  0.00     0.139 C 
BRANCH   9  12
HETATM   12  C   UNL     1      43.598 -16.635   4.854  1.00  0.00     0.037 A 
HETATM   13  C   UNL     1      43.686 -17.877   5.494  1.00  0.00     0.032 A 
HETATM   14  C   UNL     1      43.670 -19.081   4.771  1.00  0.00     0.039 A 
HETATM   15  C   UNL     1      43.559 -19.067   3.385  1.00  0.00     0.068 A 
HETATM   16  C   UNL     1      43.489 -17.839   2.731  1.00  0.00     0.039 A 
HETATM   17  C   UNL     1      43.505 -16.639   3.455  1.00  0.00     0.032 A 
BRANCH  15  18
HETATM   18  O   UNL     1      43.520 -20.160   2.568  1.00  0.00    -0.356 OA
HETATM   19  C   UNL     1      44.543 -21.130   2.757  1.00  0.00     0.210 C 
ENDBRANCH  15  18
ENDBRANCH   9  12
ENDBRANCH   5   6
ENDBRANCH   1   5
BRANCH   2  20
HETATM   20  C   UNL     1      42.914 -10.121   9.660  1.00  0.00     0.149 C 
HETATM   21  C   UNL     1      42.628 -10.265  11.136  1.00  0.00    -0.007 A 
HETATM   22  C   UNL     1      41.411 -10.797  11.567  1.00  0.00     0.083 A 
HETATM   23  C   UNL     1      43.580  -9.876  12.093  1.00  0.00     0.011 A 
HETATM   24  C   UNL     1      41.149 -10.948  12.930  1.00  0.00     0.038 A 
HETATM   25  O   UNL     1      40.414 -11.201  10.713  1.00  0.00    -0.310 OA
HETATM   26  C   UNL     1      42.099 -10.560  13.874  1.00  0.00     0.003 A 
HETATM   27  C   UNL     1      43.314 -10.023  13.455  1.00  0.00     0.001 A 
HETATM   28  C   UNL     1      40.532 -10.902   9.378  1.00  0.00     0.083 A 
HETATM   29  C   UNL     1      41.688 -10.366   8.807  1.00  0.00    -0.007 A 
HETATM   30  C   UNL     1      39.417 -11.181   8.585  1.00  0.00     0.038 A 
HETATM   31  C   UNL     1      41.708 -10.096   7.429  1.00  0.00     0.011 A 
HETATM   32  C   UNL     1      40.592 -10.373   6.638  1.00  0.00     0.001 A 
HETATM   33  C   UNL     1      39.447 -10.917   7.217  1.00  0.00     0.003 A 
ENDBRANCH   2  20
TORSDOF 5
ENDMDL
MODEL 2
REMARK VINA RESULT:      -9.5      5.862     10.191
REMARK  5 active torsions:
REMARK  status: ('A' for Active; 'I' for Inactive)
REMARK    1  A    between atoms: O_2  and  C_3 
REMARK    2  A    between atoms: C_6  and  N_7 
REMARK    3  A    between atoms: C_11  and  C_12 
REMARK    4  A    between atoms: C_12  and  N_13 
REMARK       I    between atoms: N_13  and  C_14 
REMARK    5  A    between atoms: C_14  and  C_15 
ROOT
HETATM    1  N   UNL     1      42.112 -16.406   1.598  1.00  0.00    -0.360 N 
HETATM    2  C   UNL     1      43.185 -17.091   2.140  1.00  0.00     0.230 C 
HETATM    3  O   UNL     1      44.334 -16.953   1.721  1.00  0.00    -0.272 OA
HETATM    4  H   UNL     1      41.206 -16.510   2.043  1.00  0.00     0.162 HD
ENDROOT
BRANCH   1   5
HETATM    5  C   UNL     1      42.283 -15.381   0.593  1.00  0.00     0.129 C 
BRANCH   5   6
HETATM    6  C   UNL     1      41.078 -14.456   0.478  1.00  0.00     0.031 C 
HETATM    7  C   UNL     1      39.902 -14.940   1.313  1.00  0.00     0.111 C 
HETATM    8  C   UNL     1      38.694 -14.431   0.565  1.00  0.00     0.224 C 
HETATM    9  N   UNL     1      39.095 -14.114  -0.741  1.00  0.00    -0.318 N 
HETATM   10  O   UNL     1      37.582 -14.390   1.069  1.00  0.00    -0.273 OA
HETATM   11  C   UNL     1      40.504 -14.384  -0.928  1.00  0.00     0.139 C 
BRANCH   9  12
HETATM   12  C   UNL     1      38.252 -13.687  -1.805  1.00  0.00     0.037 A 
HETATM   13  C   UNL     1      37.708 -12.398  -1.849  1.00  0.00     0.032 A 
HETATM   14  C   UNL     1      36.891 -11.979  -2.911  1.00  0.00     0.039 A 
HETATM   15  C   UNL     1      36.605 -12.845  -3.961  1.00  0.00     0.068 A 
HETATM   16  C   UNL     1      37.123 -14.138  -3.924  1.00  0.00     0.039 A 
HETATM   17  C   UNL     1      37.938 -14.553  -2.862  1.00  0.00     0.032 A 
BRANCH  15  18
HETATM   18  O   UNL     1      35.839 -12.560  -5.055  1.00  0.00    -0.356 OA
HETATM   19  C   UNL     1      35.309 -13.672  -5.766  1.00  0.00     0.210 C 
ENDBRANCH  15  18
ENDBRANCH   9  12
ENDBRANCH   5   6
ENDBRANCH   1   5
BRANCH   2  20
HETATM   20  C   UNL     1      42.846 -18.059   3.286  1.00  0.00     0.149 C 
HETATM   21  C   UNL     1      43.282 -17.494   4.617  1.00  0.00    -0.007 A 
HETATM   22  C   UNL     1      44.283 -18.129   5.355  1.00  0.00     0.083 A 
HETATM   23  C   UNL     1      42.697 -16.322   5.126  1.00  0.00     0.011 A 
HETATM   24  C   UNL     1      44.702 -17.601   6.578  1.00  0.00     0.038 A 
HETATM   25  O   UNL     1      44.912 -19.280   4.947  1.00  0.00    -0.310 OA
HETATM   26  C   UNL     1      44.116 -16.438   7.077  1.00  0.00     0.003 A 
HETATM   27  C   UNL     1      43.114 -15.799   6.351  1.00  0.00     0.001 A 
HETATM   28  C   UNL     1      44.414 -19.949   3.856  1.00  0.00     0.083 A 
HETATM   29  C   UNL     1      43.415 -19.438   3.027  1.00  0.00    -0.007 A 
HETATM   30  C   UNL     1      44.981 -21.197   3.591  1.00  0.00     0.038 A 
HETATM   31  C   UNL     1      42.974 -20.201   1.934  1.00  0.00     0.011 A 
HETATM   32  C   UNL     1      43.540 -21.450   1.672  1.00  0.00     0.001 A 
HETATM   33  C   UNL     1      44.545 -21.947   2.499  1.00  0.00     0.003 A 
ENDBRANCH   2  20
TORSDOF 5
ENDMDL
MODEL 3
REMARK VINA RESULT:      -9.4      3.828      9.389
REMARK  5 active torsions:
REMARK  status: ('A' for Active; 'I' for Inactive)
REMARK    1  A    between atoms: O_2  and  C_3 
REMARK    2  A    between atoms: C_6  and  N_7 
REMARK    3  A    between atoms: C_11  and  C_12 
REMARK    4  A    between atoms: C_12  and  N_13 
REMARK       I    between atoms: N_13  and  C_14 
REMARK    5  A    between atoms: C_14  and  C_15 
ROOT
HETATM    1  N   UNL     1      41.427 -17.107   0.968  1.00  0.00    -0.360 N 
HETATM    2  C   UNL     1      42.571 -17.277   1.727  1.00  0.00     0.230 C 
HETATM    3  O   UNL     1      43.653 -16.788   1.406  1.00  0.00    -0.272 OA
HETATM    4  H   UNL     1      40.553 -17.473   1.333  1.00  0.00     0.162 HD
ENDROOT
BRANCH   1   5
HETATM    5  C   UNL     1      41.390 -16.232  -0.183  1.00  0.00     0.129 C 
BRANCH   5   6
HETATM    6  C   UNL     1      40.945 -14.817   0.162  1.00  0.00     0.031 C 
HETATM    7  C   UNL     1      42.061 -13.801  -0.032  1.00  0.00     0.111 C 
HETATM    8  C   UNL     1      41.748 -12.723   0.977  1.00  0.00     0.224 C 
HETATM    9  N   UNL     1      40.863 -13.260   1.923  1.00  0.00    -0.318 N 
HETATM   10  O   UNL     1      42.265 -11.618   0.935  1.00  0.00    -0.273 OA
HETATM   11  C   UNL     1      40.562 -14.643   1.622  1.00  0.00     0.139 C 
BRANCH   9  12
HETATM   12  C   UNL     1      40.385 -12.613   3.097  1.00  0.00     0.037 A 
HETATM   13  C   UNL     1      39.099 -12.065   3.171  1.00  0.00     0.032 A 
HETATM   14  C   UNL     1      38.629 -11.444   4.338  1.00  0.00     0.039 A 
HETATM   15  C   UNL     1      39.438 -11.363   5.466  1.00  0.00     0.068 A 
HETATM   16  C   UNL     1      40.728 -11.887   5.404  1.00  0.00     0.039 A 
HETATM   17  C   UNL     1      41.195 -12.506   4.237  1.00  0.00     0.032 A 
BRANCH  15  18
HETATM   18  O   UNL     1      39.100 -10.799   6.663  1.00  0.00    -0.356 OA
HETATM   19  C   UNL     1      39.539 -11.481   7.832  1.00  0.00     0.210 C 
ENDBRANCH  15  18
ENDBRANCH   9  12
ENDBRANCH   5   6
ENDBRANCH   1   5
BRANCH   2  20
HETATM   20  C   UNL     1      42.410 -18.141   2.988  1.00  0.00     0.149 C 
HETATM   21  C   UNL     1      42.723 -17.345   4.233  1.00  0.00    -0.007 A 
HETATM   22  C   UNL     1      43.819 -17.686   5.027  1.00  0.00     0.083 A 
HETATM   23  C   UNL     1      41.926 -16.249   4.603  1.00  0.00     0.011 A 
HETATM   24  C   UNL     1      44.123 -16.942   6.170  1.00  0.00     0.038 A 
HETATM   25  O   UNL     1      44.655 -18.741   4.755  1.00  0.00    -0.310 OA
HETATM   26  C   UNL     1      43.327 -15.855   6.530  1.00  0.00     0.003 A 
HETATM   27  C   UNL     1      42.228 -15.510   5.747  1.00  0.00     0.001 A 
HETATM   28  C   UNL     1      44.299 -19.621   3.763  1.00  0.00     0.083 A 
HETATM   29  C   UNL     1      43.228 -19.411   2.893  1.00  0.00    -0.007 A 
HETATM   30  C   UNL     1      45.091 -20.765   3.644  1.00  0.00     0.038 A 
HETATM   31  C   UNL     1      42.946 -20.373   1.909  1.00  0.00     0.011 A 
HETATM   32  C   UNL     1      43.737 -21.517   1.793  1.00  0.00     0.001 A 
HETATM   33  C   UNL     1      44.811 -21.712   2.660  1.00  0.00     0.003 A 
ENDBRANCH   2  20
TORSDOF 5
ENDMDL
MODEL 4
REMARK VINA RESULT:      -9.3      5.080      9.800
REMARK  5 active torsions:
REMARK  status: ('A' for Active; 'I' for Inactive)
REMARK    1  A    between atoms: O_2  and  C_3 
REMARK    2  A    between atoms: C_6  and  N_7 
REMARK    3  A    between atoms: C_11  and  C_12 
REMARK    4  A    between atoms: C_12  and  N_13 
REMARK       I    between atoms: N_13  and  C_14 
REMARK    5  A    between atoms: C_14  and  C_15 
ROOT
HETATM    1  N   UNL     1      42.409 -17.760   2.132  1.00  0.00    -0.360 N 
HETATM    2  C   UNL     1      42.397 -18.056   3.483  1.00  0.00     0.230 C 
HETATM    3  O   UNL     1      41.365 -18.038   4.153  1.00  0.00    -0.272 OA
HETATM    4  H   UNL     1      43.282 -17.871   1.626  1.00  0.00     0.162 HD
ENDROOT
BRANCH   1   5
HETATM    5  C   UNL     1      41.192 -17.540   1.383  1.00  0.00     0.129 C 
BRANCH   5   6
HETATM    6  C   UNL     1      40.936 -16.068   1.086  1.00  0.00     0.031 C 
HETATM    7  C   UNL     1      42.223 -15.257   1.057  1.00  0.00     0.111 C 
HETATM    8  C   UNL     1      41.791 -13.877   1.490  1.00  0.00     0.224 C 
HETATM    9  N   UNL     1      40.544 -13.993   2.122  1.00  0.00    -0.318 N 
HETATM   10  O   UNL     1      42.493 -12.891   1.330  1.00  0.00    -0.273 OA
HETATM   11  C   UNL     1      40.107 -15.371   2.152  1.00  0.00     0.139 C 
BRANCH   9  12
HETATM   12  C   UNL     1      39.820 -12.948   2.762  1.00  0.00     0.037 A 
HETATM   13  C   UNL     1      38.978 -12.086   2.050  1.00  0.00     0.032 A 
HETATM   14  C   UNL     1      38.253 -11.069   2.691  1.00  0.00     0.039 A 
HETATM   15  C   UNL     1      38.351 -10.896   4.067  1.00  0.00     0.068 A 
HETATM   16  C   UNL     1      39.199 -11.734   4.789  1.00  0.00     0.039 A 
HETATM   17  C   UNL     1      39.922 -12.748   4.146  1.00  0.00     0.032 A 
BRANCH  15  18
HETATM   18  O   UNL     1      37.694  -9.959   4.811  1.00  0.00    -0.356 OA
HETATM   19  C   UNL     1      37.621  -8.649   4.260  1.00  0.00     0.210 C 
ENDBRANCH  15  18
ENDBRANCH   9  12
ENDBRANCH   5   6
ENDBRANCH   1   5
BRANCH   2  20
HETATM   20  C   UNL     1      43.765 -18.386   4.103  1.00  0.00     0.149 C 
HETATM   21  C   UNL     1      44.132 -19.831   3.865  1.00  0.00    -0.007 A 
HETATM   22  C   UNL     1      44.251 -20.712   4.942  1.00  0.00     0.083 A 
HETATM   23  C   UNL     1      44.349 -20.312   2.563  1.00  0.00     0.011 A 
HETATM   24  C   UNL     1      44.574 -22.053   4.726  1.00  0.00     0.038 A 
HETATM   25  O   UNL     1      44.065 -20.339   6.251  1.00  0.00    -0.310 OA
HETATM   26  C   UNL     1      44.788 -22.523   3.431  1.00  0.00     0.003 A 
HETATM   27  C   UNL     1      44.676 -21.652   2.350  1.00  0.00     0.001 A 
HETATM   28  C   UNL     1      43.938 -19.004   6.542  1.00  0.00     0.083 A 
HETATM   29  C   UNL     1      43.809 -18.011   5.569  1.00  0.00    -0.007 A 
HETATM   30  C   UNL     1      43.924 -18.669   7.897  1.00  0.00     0.038 A 
HETATM   31  C   UNL     1      43.684 -16.671   5.970  1.00  0.00     0.011 A 
HETATM   32  C   UNL     1      43.673 -16.338   7.325  1.00  0.00     0.001 A 
HETATM   33  C   UNL     1      43.791 -17.338   8.289  1.00  0.00     0.003 A 
ENDBRANCH   2  20
TORSDOF 5
ENDMDL
MODEL 5
REMARK VINA RESULT:      -9.3      5.007      8.038
REMARK  5 active torsions:
REMARK  status: ('A' for Active; 'I' for Inactive)
REMARK    1  A    between atoms: O_2  and  C_3 
REMARK    2  A    between atoms: C_6  and  N_7 
REMARK    3  A    between atoms: C_11  and  C_12 
REMARK    4  A    between atoms: C_12  and  N_13 
REMARK       I    between atoms: N_13  and  C_14 
REMARK    5  A    between atoms: C_14  and  C_15 
ROOT
HETATM    1  N   UNL     1      42.153 -14.509   4.708  1.00  0.00    -0.360 N 
HETATM    2  C   UNL     1      41.234 -15.395   5.241  1.00  0.00     0.230 C 
HETATM    3  O   UNL     1      40.243 -15.020   5.867  1.00  0.00    -0.272 OA
HETATM    4  H   UNL     1      42.903 -14.885   4.138  1.00  0.00     0.162 HD
ENDROOT
BRANCH   1   5
HETATM    5  C   UNL     1      41.945 -13.078   4.734  1.00  0.00     0.129 C 
BRANCH   5   6
HETATM    6  C   UNL     1      41.311 -12.548   3.454  1.00  0.00     0.031 C 
HETATM    7  C   UNL     1      39.806 -12.367   3.593  1.00  0.00     0.111 C 
HETATM    8  C   UNL     1      39.287 -12.575   2.191  1.00  0.00     0.224 C 
HETATM    9  N   UNL     1      40.281 -13.236   1.455  1.00  0.00    -0.318 N 
HETATM   10  O   UNL     1      38.161 -12.245   1.855  1.00  0.00    -0.273 OA
HETATM   11  C   UNL     1      41.443 -13.498   2.276  1.00  0.00     0.139 C 
BRANCH   9  12
HETATM   12  C   UNL     1      40.171 -13.707   0.116  1.00  0.00     0.037 A 
HETATM   13  C   UNL     1      38.939 -13.778  -0.545  1.00  0.00     0.032 A 
HETATM   14  C   UNL     1      38.840 -14.226  -1.872  1.00  0.00     0.039 A 
HETATM   15  C   UNL     1      39.980 -14.609  -2.571  1.00  0.00     0.068 A 
HETATM   16  C   UNL     1      41.212 -14.562  -1.922  1.00  0.00     0.039 A 
HETATM   17  C   UNL     1      41.307 -14.114  -0.597  1.00  0.00     0.032 A 
BRANCH  15  18
HETATM   18  O   UNL     1      40.023 -15.050  -3.862  1.00  0.00    -0.356 OA
HETATM   19  C   UNL     1      39.011 -15.969  -4.254  1.00  0.00     0.210 C 
ENDBRANCH  15  18
ENDBRANCH   9  12
ENDBRANCH   5   6
ENDBRANCH   1   5
BRANCH   2  20
HETATM   20  C   UNL     1      41.543 -16.885   5.022  1.00  0.00     0.149 C 
HETATM   21  C   UNL     1      42.668 -17.341   5.920  1.00  0.00    -0.007 A 
HETATM   22  C   UNL     1      43.881 -17.761   5.369  1.00  0.00     0.083 A 
HETATM   23  C   UNL     1      42.517 -17.342   7.317  1.00  0.00     0.011 A 
HETATM   24  C   UNL     1      44.930 -18.167   6.196  1.00  0.00     0.038 A 
HETATM   25  O   UNL     1      44.126 -17.802   4.018  1.00  0.00    -0.310 OA
HETATM   26  C   UNL     1      44.772 -18.165   7.581  1.00  0.00     0.003 A 
HETATM   27  C   UNL     1      43.565 -17.753   8.141  1.00  0.00     0.001 A 
HETATM   28  C   UNL     1      43.079 -17.601   3.154  1.00  0.00     0.083 A 
HETATM   29  C   UNL     1      41.812 -17.182   3.562  1.00  0.00    -0.007 A 
HETATM   30  C   UNL     1      43.347 -17.824   1.802  1.00  0.00     0.038 A 
HETATM   31  C   UNL     1      40.806 -17.004   2.598  1.00  0.00     0.011 A 
HETATM   32  C   UNL     1      41.075 -17.230   1.247  1.00  0.00     0.001 A 
HETATM   33  C   UNL     1      42.347 -17.638   0.849  1.00  0.00     0.003 A 
ENDBRANCH   2  20
TORSDOF 5
ENDMDL
MODEL 6
REMARK VINA RESULT:      -9.2      6.906     10.091
REMARK  5 active torsions:
REMARK  status: ('A' for Active; 'I' for Inactive)
REMARK    1  A    between atoms: O_2  and  C_3 
REMARK    2  A    between atoms: C_6  and  N_7 
REMARK    3  A    between atoms: C_11  and  C_12 
REMARK    4  A    between atoms: C_12  and  N_13 
REMARK       I    between atoms: N_13  and  C_14 
REMARK    5  A    between atoms: C_14  and  C_15 
ROOT
HETATM    1  N   UNL     1      39.034 -14.403   0.436  1.00  0.00    -0.360 N 
HETATM    2  C   UNL     1      38.505 -13.235  -0.082  1.00  0.00     0.230 C 
HETATM    3  O   UNL     1      37.637 -12.587   0.502  1.00  0.00    -0.272 OA
HETATM    4  H   UNL     1      39.801 -14.842  -0.062  1.00  0.00     0.162 HD
ENDROOT
BRANCH   1   5
HETATM    5  C   UNL     1      38.703 -14.874   1.763  1.00  0.00     0.129 C 
BRANCH   5   6
HETATM    6  C   UNL     1      39.933 -15.146   2.620  1.00  0.00     0.031 C 
HETATM    7  C   UNL     1      41.126 -14.304   2.194  1.00  0.00     0.111 C 
HETATM    8  C   UNL     1      42.318 -15.153   2.563  1.00  0.00     0.224 C 
HETATM    9  N   UNL     1      41.872 -16.472   2.738  1.00  0.00    -0.318 N 
HETATM   10  O   UNL     1      43.451 -14.701   2.620  1.00  0.00    -0.273 OA
HETATM   11  C   UNL     1      40.448 -16.571   2.501  1.00  0.00     0.139 C 
BRANCH   9  12
HETATM   12  C   UNL     1      42.683 -17.611   3.001  1.00  0.00     0.037 A 
HETATM   13  C   UNL     1      43.159 -18.436   1.975  1.00  0.00     0.032 A 
HETATM   14  C   UNL     1      43.974 -19.547   2.242  1.00  0.00     0.039 A 
HETATM   15  C   UNL     1      44.336 -19.855   3.548  1.00  0.00     0.068 A 
HETATM   16  C   UNL     1      43.856 -19.056   4.583  1.00  0.00     0.039 A 
HETATM   17  C   UNL     1      43.043 -17.947   4.314  1.00  0.00     0.032 A 
BRANCH  15  18
HETATM   18  O   UNL     1      45.130 -20.895   3.941  1.00  0.00    -0.356 OA
HETATM   19  C   UNL     1      44.777 -21.537   5.161  1.00  0.00     0.210 C 
ENDBRANCH  15  18
ENDBRANCH   9  12
ENDBRANCH   5   6
ENDBRANCH   1   5
BRANCH   2  20
HETATM   20  C   UNL     1      39.053 -12.809  -1.454  1.00  0.00     0.149 C 
HETATM   21  C   UNL     1      38.970 -13.944  -2.446  1.00  0.00    -0.007 A 
HETATM   22  C   UNL     1      40.136 -14.505  -2.971  1.00  0.00     0.083 A 
HETATM   23  C   UNL     1      37.725 -14.458  -2.847  1.00  0.00     0.011 A 
HETATM   24  C   UNL     1      40.065 -15.567  -3.876  1.00  0.00     0.038 A 
HETATM   25  O   UNL     1      41.399 -14.072  -2.648  1.00  0.00    -0.310 OA
HETATM   26  C   UNL     1      38.826 -16.071  -4.269  1.00  0.00     0.003 A 
HETATM   27  C   UNL     1      37.657 -15.516  -3.754  1.00  0.00     0.001 A 
HETATM   28  C   UNL     1      41.530 -12.915  -1.920  1.00  0.00     0.083 A 
HETATM   29  C   UNL     1      40.453 -12.245  -1.336  1.00  0.00    -0.007 A 
HETATM   30  C   UNL     1      42.830 -12.429  -1.767  1.00  0.00     0.038 A 
HETATM   31  C   UNL     1      40.693 -11.068  -0.608  1.00  0.00     0.011 A 
HETATM   32  C   UNL     1      41.992 -10.582  -0.460  1.00  0.00     0.001 A 
HETATM   33  C   UNL     1      43.061 -11.264  -1.038  1.00  0.00     0.003 A 
ENDBRANCH   2  20
TORSDOF 5
ENDMDL
MODEL 7
REMARK VINA RESULT:      -8.9      5.422      9.904
REMARK  5 active torsions:
REMARK  status: ('A' for Active; 'I' for Inactive)
REMARK    1  A    between atoms: O_2  and  C_3 
REMARK    2  A    between atoms: C_6  and  N_7 
REMARK    3  A    between atoms: C_11  and  C_12 
REMARK    4  A    between atoms: C_12  and  N_13 
REMARK       I    between atoms: N_13  and  C_14 
REMARK    5  A    between atoms: C_14  and  C_15 
ROOT
HETATM    1  N   UNL     1      41.923 -16.566   1.765  1.00  0.00    -0.360 N 
HETATM    2  C   UNL     1      43.055 -17.168   2.286  1.00  0.00     0.230 C 
HETATM    3  O   UNL     1      44.187 -16.907   1.880  1.00  0.00    -0.272 OA
HETATM    4  H   UNL     1      41.030 -16.771   2.201  1.00  0.00     0.162 HD
ENDROOT
BRANCH   1   5
HETATM    5  C   UNL     1      42.000 -15.491   0.801  1.00  0.00     0.129 C 
BRANCH   5   6
HETATM    6  C   UNL     1      41.471 -14.169   1.343  1.00  0.00     0.031 C 
HETATM    7  C   UNL     1      41.237 -14.218   2.845  1.00  0.00     0.111 C 
HETATM    8  C   UNL     1      40.112 -13.237   3.068  1.00  0.00     0.224 C 
HETATM    9  N   UNL     1      39.482 -13.014   1.835  1.00  0.00    -0.318 N 
HETATM   10  O   UNL     1      39.830 -12.806   4.175  1.00  0.00    -0.273 OA
HETATM   11  C   UNL     1      40.107 -13.792   0.788  1.00  0.00     0.139 C 
BRANCH   9  12
HETATM   12  C   UNL     1      38.317 -12.228   1.611  1.00  0.00     0.037 A 
HETATM   13  C   UNL     1      38.100 -11.016   2.277  1.00  0.00     0.032 A 
HETATM   14  C   UNL     1      36.957 -10.238   2.037  1.00  0.00     0.039 A 
HETATM   15  C   UNL     1      36.003 -10.656   1.115  1.00  0.00     0.068 A 
HETATM   16  C   UNL     1      36.194 -11.869   0.457  1.00  0.00     0.039 A 
HETATM   17  C   UNL     1      37.336 -12.644   0.699  1.00  0.00     0.032 A 
BRANCH  15  18
HETATM   18  O   UNL     1      34.859  -9.991   0.781  1.00  0.00    -0.356 OA
HETATM   19  C   UNL     1      33.704 -10.283   1.560  1.00  0.00     0.210 C 
ENDBRANCH  15  18
ENDBRANCH   9  12
ENDBRANCH   5   6
ENDBRANCH   1   5
BRANCH   2  20
HETATM   20  C   UNL     1      42.805 -18.207   3.392  1.00  0.00     0.149 C 
HETATM   21  C   UNL     1      43.255 -17.685   4.735  1.00  0.00    -0.007 A 
HETATM   22  C   UNL     1      44.313 -18.300   5.410  1.00  0.00     0.083 A 
HETATM   23  C   UNL     1      42.627 -16.572   5.321  1.00  0.00     0.011 A 
HETATM   24  C   UNL     1      44.744 -17.810   6.644  1.00  0.00     0.038 A 
HETATM   25  O   UNL     1      44.987 -19.394   4.925  1.00  0.00    -0.310 OA
HETATM   26  C   UNL     1      44.115 -16.705   7.219  1.00  0.00     0.003 A 
HETATM   27  C   UNL     1      43.057 -16.088   6.556  1.00  0.00     0.001 A 
HETATM   28  C   UNL     1      44.489 -20.035   3.818  1.00  0.00     0.083 A 
HETATM   29  C   UNL     1      43.437 -19.539   3.047  1.00  0.00    -0.007 A 
HETATM   30  C   UNL     1      45.111 -21.237   3.473  1.00  0.00     0.038 A 
HETATM   31  C   UNL     1      43.001 -20.271   1.931  1.00  0.00     0.011 A 
HETATM   32  C   UNL     1      43.622 -21.473   1.589  1.00  0.00     0.001 A 
HETATM   33  C   UNL     1      44.679 -21.955   2.360  1.00  0.00     0.003 A 
ENDBRANCH   2  20
TORSDOF 5
ENDMDL
MODEL 8
REMARK VINA RESULT:      -8.8      5.187      9.866
REMARK  5 active torsions:
REMARK  status: ('A' for Active; 'I' for Inactive)
REMARK    1  A    between atoms: O_2  and  C_3 
REMARK    2  A    between atoms: C_6  and  N_7 
REMARK    3  A    between atoms: C_11  and  C_12 
REMARK    4  A    between atoms: C_12  and  N_13 
REMARK       I    between atoms: N_13  and  C_14 
REMARK    5  A    between atoms: C_14  and  C_15 
ROOT
HETATM    1  N   UNL     1      42.427 -16.476   0.599  1.00  0.00    -0.360 N 
HETATM    2  C   UNL     1      42.304 -16.913   1.906  1.00  0.00     0.230 C 
HETATM    3  O   UNL     1      41.226 -17.264   2.385  1.00  0.00    -0.272 OA
HETATM    4  H   UNL     1      43.359 -16.276   0.249  1.00  0.00     0.162 HD
ENDROOT
BRANCH   1   5
HETATM    5  C   UNL     1      41.326 -16.529  -0.336  1.00  0.00     0.129 C 
BRANCH   5   6
HETATM    6  C   UNL     1      40.904 -15.152  -0.834  1.00  0.00     0.031 C 
HETATM    7  C   UNL     1      41.111 -14.997  -2.334  1.00  0.00     0.111 C 
HETATM    8  C   UNL     1      41.368 -13.521  -2.512  1.00  0.00     0.224 C 
HETATM    9  N   UNL     1      41.722 -12.989  -1.263  1.00  0.00    -0.318 N 
HETATM   10  O   UNL     1      41.312 -12.974  -3.603  1.00  0.00    -0.273 OA
HETATM   11  C   UNL     1      41.729 -14.019  -0.247  1.00  0.00     0.139 C 
BRANCH   9  12
HETATM   12  C   UNL     1      42.135 -11.653  -0.999  1.00  0.00     0.037 A 
HETATM   13  C   UNL     1      43.299 -11.112  -1.560  1.00  0.00     0.032 A 
HETATM   14  C   UNL     1      43.689  -9.787  -1.309  1.00  0.00     0.039 A 
HETATM   15  C   UNL     1      42.916  -8.969  -0.491  1.00  0.00     0.068 A 
HETATM   16  C   UNL     1      41.766  -9.498   0.090  1.00  0.00     0.039 A 
HETATM   17  C   UNL     1      41.378 -10.821  -0.163  1.00  0.00     0.032 A 
BRANCH  15  18
HETATM   18  O   UNL     1      43.176  -7.666  -0.178  1.00  0.00    -0.356 OA
HETATM   19  C   UNL     1      42.934  -7.276   1.168  1.00  0.00     0.210 C 
ENDBRANCH  15  18
ENDBRANCH   9  12
ENDBRANCH   5   6
ENDBRANCH   1   5
BRANCH   2  20
HETATM   20  C   UNL     1      43.599 -16.906   2.734  1.00  0.00     0.149 C 
HETATM   21  C   UNL     1      43.946 -18.299   3.205  1.00  0.00    -0.007 A 
HETATM   22  C   UNL     1      43.941 -18.601   4.569  1.00  0.00     0.083 A 
HETATM   23  C   UNL     1      44.269 -19.309   2.283  1.00  0.00     0.011 A 
HETATM   24  C   UNL     1      44.245 -19.891   5.008  1.00  0.00     0.038 A 
HETATM   25  O   UNL     1      43.646 -17.684   5.548  1.00  0.00    -0.310 OA
HETATM   26  C   UNL     1      44.564 -20.889   4.087  1.00  0.00     0.003 A 
HETATM   27  C   UNL     1      44.576 -20.597   2.725  1.00  0.00     0.001 A 
HETATM   28  C   UNL     1      43.529 -16.362   5.196  1.00  0.00     0.083 A 
HETATM   29  C   UNL     1      43.519 -15.914   3.874  1.00  0.00    -0.007 A 
HETATM   30  C   UNL     1      43.400 -15.455   6.250  1.00  0.00     0.038 A 
HETATM   31  C   UNL     1      43.394 -14.538   3.619  1.00  0.00     0.011 A 
HETATM   32  C   UNL     1      43.268 -13.633   4.674  1.00  0.00     0.001 A 
HETATM   33  C   UNL     1      43.269 -14.092   5.989  1.00  0.00     0.003 A 
ENDBRANCH   2  20
TORSDOF 5
ENDMDL
MODEL 9
REMARK VINA RESULT:      -8.7      2.000      8.930
REMARK  5 active torsions:
REMARK  status: ('A' for Active; 'I' for Inactive)
REMARK    1  A    between atoms: O_2  and  C_3 
REMARK    2  A    between atoms: C_6  and  N_7 
REMARK    3  A    between atoms: C_11  and  C_12 
REMARK    4  A    between atoms: C_12  and  N_13 
REMARK       I    between atoms: N_13  and  C_14 
REMARK    5  A    between atoms: C_14  and  C_15 
ROOT
HETATM    1  N   UNL     1      41.816 -13.728   4.441  1.00  0.00    -0.360 N 
HETATM    2  C   UNL     1      42.837 -14.629   4.682  1.00  0.00     0.230 C 
HETATM    3  O   UNL     1      43.996 -14.272   4.891  1.00  0.00    -0.272 OA
HETATM    4  H   UNL     1      40.872 -14.089   4.355  1.00  0.00     0.162 HD
ENDROOT
BRANCH   1   5
HETATM    5  C   UNL     1      42.010 -12.299   4.549  1.00  0.00     0.129 C 
BRANCH   5   6
HETATM    6  C   UNL     1      41.387 -11.709   5.808  1.00  0.00     0.031 C 
HETATM    7  C   UNL     1      41.207 -10.202   5.707  1.00  0.00     0.111 C 
HETATM    8  C   UNL     1      41.313  -9.728   7.136  1.00  0.00     0.224 C 
HETATM    9  N   UNL     1      41.927 -10.743   7.884  1.00  0.00    -0.318 N 
HETATM   10  O   UNL     1      40.953  -8.614   7.484  1.00  0.00    -0.273 OA
HETATM   11  C   UNL     1      42.253 -11.876   7.046  1.00  0.00     0.139 C 
BRANCH   9  12
HETATM   12  C   UNL     1      42.302 -10.674   9.255  1.00  0.00     0.037 A 
HETATM   13  C   UNL     1      43.642 -10.689   9.659  1.00  0.00     0.032 A 
HETATM   14  C   UNL     1      44.003 -10.603  11.013  1.00  0.00     0.039 A 
HETATM   15  C   UNL     1      43.026 -10.493  11.996  1.00  0.00     0.068 A 
HETATM   16  C   UNL     1      41.687 -10.496  11.613  1.00  0.00     0.039 A 
HETATM   17  C   UNL     1      41.329 -10.582  10.260  1.00  0.00     0.032 A 
BRANCH  15  18
HETATM   18  O   UNL     1      43.243 -10.390  13.340  1.00  0.00    -0.356 OA
HETATM   19  C   UNL     1      42.086 -10.349  14.168  1.00  0.00     0.210 C 
ENDBRANCH  15  18
ENDBRANCH   9  12
ENDBRANCH   5   6
ENDBRANCH   1   5
BRANCH   2  20
HETATM   20  C   UNL     1      42.436 -16.113   4.648  1.00  0.00     0.149 C 
HETATM   21  C   UNL     1      43.043 -16.864   5.809  1.00  0.00    -0.007 A 
HETATM   22  C   UNL     1      43.985 -17.869   5.580  1.00  0.00     0.083 A 
HETATM   23  C   UNL     1      42.678 -16.559   7.131  1.00  0.00     0.011 A 
HETATM   24  C   UNL     1      44.562 -18.555   6.651  1.00  0.00     0.038 A 
HETATM   25  O   UNL     1      44.404 -18.245   4.327  1.00  0.00    -0.310 OA
HETATM   26  C   UNL     1      44.194 -18.246   7.961  1.00  0.00     0.003 A 
HETATM   27  C   UNL     1      43.252 -17.249   8.200  1.00  0.00     0.001 A 
HETATM   28  C   UNL     1      43.737 -17.747   3.235  1.00  0.00     0.083 A 
HETATM   29  C   UNL     1      42.772 -16.743   3.313  1.00  0.00    -0.007 A 
HETATM   30  C   UNL     1      44.090 -18.293   1.999  1.00  0.00     0.038 A 
HETATM   31  C   UNL     1      42.147 -16.301   2.135  1.00  0.00     0.011 A 
HETATM   32  C   UNL     1      42.499 -16.849   0.901  1.00  0.00     0.001 A 
HETATM   33  C   UNL     1      43.472 -17.845   0.833  1.00  0.00     0.003 A 
ENDBRANCH   2  20
TORSDOF 5
ENDMDL
MODEL 10
REMARK VINA RESULT:      -8.7      3.086      9.439
REMARK  5 active torsions:
REMARK  status: ('A' for Active; 'I' for Inactive)
REMARK    1  A    between atoms: O_2  and  C_3 
REMARK    2  A    between atoms: C_6  and  N_7 
REMARK    3  A    between atoms: C_11  and  C_12 
REMARK    4  A    between atoms: C_12  and  N_13 
REMARK       I    between atoms: N_13  and  C_14 
REMARK    5  A    between atoms: C_14  and  C_15 
ROOT
HETATM    1  N   UNL     1      42.674 -16.126   3.226  1.00  0.00    -0.360 N 
HETATM    2  C   UNL     1      43.358 -17.310   3.017  1.00  0.00     0.230 C 
HETATM    3  O   UNL     1      44.306 -17.395   2.236  1.00  0.00    -0.272 OA
HETATM    4  H   UNL     1      41.955 -16.111   3.941  1.00  0.00     0.162 HD
ENDROOT
BRANCH   1   5
HETATM    5  C   UNL     1      43.107 -14.876   2.643  1.00  0.00     0.129 C 
BRANCH   5   6
HETATM    6  C   UNL     1      43.292 -13.772   3.677  1.00  0.00     0.031 C 
HETATM    7  C   UNL     1      43.958 -14.282   4.947  1.00  0.00     0.111 C 
HETATM    8  C   UNL     1      43.415 -13.379   6.027  1.00  0.00     0.224 C 
HETATM    9  N   UNL     1      42.260 -12.757   5.531  1.00  0.00    -0.318 N 
HETATM   10  O   UNL     1      43.922 -13.307   7.136  1.00  0.00    -0.273 OA
HETATM   11  C   UNL     1      41.981 -13.189   4.179  1.00  0.00     0.139 C 
BRANCH   9  12
HETATM   12  C   UNL     1      41.385 -11.899   6.254  1.00  0.00     0.037 A 
HETATM   13  C   UNL     1      41.781 -10.625   6.681  1.00  0.00     0.032 A 
HETATM   14  C   UNL     1      40.906  -9.777   7.378  1.00  0.00     0.039 A 
HETATM   15  C   UNL     1      39.607 -10.185   7.659  1.00  0.00     0.068 A 
HETATM   16  C   UNL     1      39.202 -11.456   7.258  1.00  0.00     0.039 A 
HETATM   17  C   UNL     1      40.078 -12.301   6.562  1.00  0.00     0.032 A 
BRANCH  15  18
HETATM   18  O   UNL     1      38.657  -9.456   8.315  1.00  0.00    -0.356 OA
HETATM   19  C   UNL     1      38.449  -8.125   7.856  1.00  0.00     0.210 C 
ENDBRANCH  15  18
ENDBRANCH   9  12
ENDBRANCH   5   6
ENDBRANCH   1   5
BRANCH   2  20
HETATM   20  C   UNL     1      42.842 -18.524   3.807  1.00  0.00     0.149 C 
HETATM   21  C   UNL     1      43.060 -18.337   5.289  1.00  0.00    -0.007 A 
HETATM   22  C   UNL     1      43.932 -19.179   5.983  1.00  0.00     0.083 A 
HETATM   23  C   UNL     1      42.400 -17.312   5.988  1.00  0.00     0.011 A 
HETATM   24  C   UNL     1      44.150 -18.999   7.351  1.00  0.00     0.038 A 
HETATM   25  O   UNL     1      44.619 -20.212   5.393  1.00  0.00    -0.310 OA
HETATM   26  C   UNL     1      43.491 -17.980   8.037  1.00  0.00     0.003 A 
HETATM   27  C   UNL     1      42.616 -17.137   7.356  1.00  0.00     0.001 A 
HETATM   28  C   UNL     1      44.302 -20.559   4.103  1.00  0.00     0.083 A 
HETATM   29  C   UNL     1      43.447 -19.813   3.291  1.00  0.00    -0.007 A 
HETATM   30  C   UNL     1      44.906 -21.720   3.614  1.00  0.00     0.038 A 
HETATM   31  C   UNL     1      43.187 -20.253   1.983  1.00  0.00     0.011 A 
HETATM   32  C   UNL     1      43.789 -21.415   1.497  1.00  0.00     0.001 A 
HETATM   33  C   UNL     1      44.650 -22.147   2.312  1.00  0.00     0.003 A 
ENDBRANCH   2  20
TORSDOF 5
ENDMDL
