MODEL 1
REMARK VINA RESULT:      -7.7      0.000      0.000
REMARK  5 active torsions:
REMARK  status: ('A' for Active; 'I' for Inactive)
REMARK    1  A    between atoms: C_3  and  C_4 
REMARK    2  A    between atoms: C_4  and  C_5 
REMARK    3  A    between atoms: C_5  and  N_6 
REMARK       I    between atoms: N_6  and  C_7 
REMARK       I    between atoms: C_7  and  N_8 
REMARK    4  A    between atoms: N_8  and  C_9 
REMARK    5  A    between atoms: N_11  and  C_12 
ROOT
HETATM    1  C   UNL     1      42.587 -16.201   6.173  1.00  0.00     0.159 A 
HETATM    2  N   UNL     1      42.538 -17.410   5.617  1.00  0.00    -0.149 NA
HETATM    3  N   UNL     1      43.763 -17.956   5.779  1.00  0.00    -0.241 N 
HETATM    4  C   UNL     1      44.602 -17.059   6.415  1.00  0.00     0.129 A 
HETATM    5  C   UNL     1      43.875 -15.922   6.689  1.00  0.00     0.003 A 
HETATM    6  C   UNL     1      44.348 -14.694   7.369  1.00  0.00     0.054 C 
ENDROOT
BRANCH   1   7
HETATM    7  N   UNL     1      41.522 -15.331   6.241  1.00  0.00    -0.291 N 
HETATM    8  C   UNL     1      40.661 -14.948   5.259  1.00  0.00     0.321 C 
HETATM    9  N   UNL     1      40.873 -15.440   4.013  1.00  0.00    -0.343 N 
HETATM   10  O   UNL     1      39.739 -14.181   5.534  1.00  0.00    -0.247 OA
HETATM   11  H   UNL     1      41.681 -16.051   3.899  1.00  0.00     0.164 HD
HETATM   12  H   UNL     1      41.310 -14.920   7.137  1.00  0.00     0.172 HD
BRANCH   9  13
HETATM   13  C   UNL     1      40.030 -15.133   2.879  1.00  0.00     0.128 C 
BRANCH  13  14
HETATM   14  C   UNL     1      40.116 -16.194   1.779  1.00  0.00     0.046 C 
BRANCH  14  15
HETATM   15  C   UNL     1      41.418 -16.948   1.838  1.00  0.00    -0.029 C 
HETATM   16  C   UNL     1      42.374 -16.878   0.900  1.00  0.00    -0.035 C 
HETATM   17  C   UNL     1      43.660 -17.636   0.962  1.00  0.00     0.036 C 
ENDBRANCH  14  15
ENDBRANCH  13  14
ENDBRANCH   9  13
ENDBRANCH   1   7
BRANCH   3  18
HETATM   18  C   UNL     1      44.077 -19.289   5.359  1.00  0.00     0.079 A 
HETATM   19  C   UNL     1      44.098 -20.395   6.233  1.00  0.00     0.062 A 
HETATM   20 CL   UNL     1      43.687 -20.370   7.915  1.00  0.00    -0.082 Cl
HETATM   21  C   UNL     1      44.440 -21.667   5.742  1.00  0.00     0.026 A 
HETATM   22  C   UNL     1      44.759 -21.861   4.400  1.00  0.00     0.002 A 
HETATM   23  C   UNL     1      44.737 -20.782   3.530  1.00  0.00     0.002 A 
HETATM   24  C   UNL     1      44.400 -19.509   4.002  1.00  0.00     0.033 A 
ENDBRANCH   3  18
TORSDOF 5
ENDMDL
MODEL 2
REMARK VINA RESULT:      -7.5      1.876      2.757
REMARK  5 active torsions:
REMARK  status: ('A' for Active; 'I' for Inactive)
REMARK    1  A    between atoms: C_3  and  C_4 
REMARK    2  A    between atoms: C_4  and  C_5 
REMARK    3  A    between atoms: C_5  and  N_6 
REMARK       I    between atoms: N_6  and  C_7 
REMARK       I    between atoms: C_7  and  N_8 
REMARK    4  A    between atoms: N_8  and  C_9 
REMARK    5  A    between atoms: N_11  and  C_12 
ROOT
HETATM    1  C   UNL     1      44.400 -17.581   6.374  1.00  0.00     0.159 A 
HETATM    2  N   UNL     1      44.418 -18.025   5.118  1.00  0.00    -0.149 NA
HETATM    3  N   UNL     1      44.280 -19.367   5.185  1.00  0.00    -0.241 N 
HETATM    4  C   UNL     1      44.210 -19.773   6.505  1.00  0.00     0.129 A 
HETATM    5  C   UNL     1      44.277 -18.647   7.296  1.00  0.00     0.003 A 
HETATM    6  C   UNL     1      44.232 -18.583   8.776  1.00  0.00     0.054 C 
ENDROOT
BRANCH   1   7
HETATM    7  N   UNL     1      44.488 -16.254   6.732  1.00  0.00    -0.291 N 
HETATM    8  C   UNL     1      43.701 -15.208   6.359  1.00  0.00     0.321 C 
HETATM    9  N   UNL     1      42.700 -15.461   5.478  1.00  0.00    -0.343 N 
HETATM   10  O   UNL     1      43.924 -14.092   6.825  1.00  0.00    -0.247 OA
HETATM   11  H   UNL     1      42.623 -16.421   5.144  1.00  0.00     0.164 HD
HETATM   12  H   UNL     1      45.216 -15.992   7.379  1.00  0.00     0.172 HD
BRANCH   9  13
HETATM   13  C   UNL     1      41.777 -14.452   5.008  1.00  0.00     0.128 C 
BRANCH  13  14
HETATM   14  C   UNL     1      40.638 -15.042   4.172  1.00  0.00     0.046 C 
BRANCH  14  15
HETATM   15  C   UNL     1      41.130 -16.134   3.259  1.00  0.00    -0.029 C 
HETATM   16  C   UNL     1      40.524 -16.493   2.118  1.00  0.00    -0.035 C 
HETATM   17  C   UNL     1      41.014 -17.583   1.221  1.00  0.00     0.036 C 
ENDBRANCH  14  15
ENDBRANCH  13  14
ENDBRANCH   9  13
ENDBRANCH   1   7
BRANCH   3  18
HETATM   18  C   UNL     1      44.191 -20.194   4.019  1.00  0.00     0.079 A 
HETATM   19  C   UNL     1      44.632 -21.533   3.979  1.00  0.00     0.062 A 
HETATM   20 CL   UNL     1      45.275 -22.432   5.311  1.00  0.00    -0.082 Cl
HETATM   21  C   UNL     1      44.530 -22.266   2.783  1.00  0.00     0.026 A 
HETATM   22  C   UNL     1      43.996 -21.697   1.630  1.00  0.00     0.002 A 
HETATM   23  C   UNL     1      43.554 -20.382   1.658  1.00  0.00     0.002 A 
HETATM   24  C   UNL     1      43.650 -19.638   2.838  1.00  0.00     0.033 A 
ENDBRANCH   3  18
TORSDOF 5
ENDMDL
MODEL 3
REMARK VINA RESULT:      -7.5      2.484      4.676
REMARK  5 active torsions:
REMARK  status: ('A' for Active; 'I' for Inactive)
REMARK    1  A    between atoms: C_3  and  C_4 
REMARK    2  A    between atoms: C_4  and  C_5 
REMARK    3  A    between atoms: C_5  and  N_6 
REMARK       I    between atoms: N_6  and  C_7 
REMARK       I    between atoms: C_7  and  N_8 
REMARK    4  A    between atoms: N_8  and  C_9 
REMARK    5  A    between atoms: N_11  and  C_12 
ROOT
HETATM    1  C   UNL     1      43.423 -16.921   2.446  1.00  0.00     0.159 A 
HETATM    2  N   UNL     1      44.031 -17.781   3.262  1.00  0.00    -0.149 NA
HETATM    3  N   UNL     1      43.557 -19.007   2.948  1.00  0.00    -0.241 N 
HETATM    4  C   UNL     1      42.611 -18.907   1.945  1.00  0.00     0.129 A 
HETATM    5  C   UNL     1      42.506 -17.580   1.594  1.00  0.00     0.003 A 
HETATM    6  C   UNL     1      41.626 -16.990   0.557  1.00  0.00     0.054 C 
ENDROOT
BRANCH   1   7
HETATM    7  N   UNL     1      43.657 -15.564   2.431  1.00  0.00    -0.291 N 
HETATM    8  C   UNL     1      43.525 -14.657   3.437  1.00  0.00     0.321 C 
HETATM    9  N   UNL     1      43.062 -15.109   4.630  1.00  0.00    -0.343 N 
HETATM   10  O   UNL     1      43.825 -13.482   3.231  1.00  0.00    -0.247 OA
HETATM   11  H   UNL     1      42.827 -16.100   4.679  1.00  0.00     0.164 HD
HETATM   12  H   UNL     1      43.996 -15.158   1.572  1.00  0.00     0.172 HD
BRANCH   9  13
HETATM   13  C   UNL     1      42.889 -14.264   5.791  1.00  0.00     0.128 C 
BRANCH  13  14
HETATM   14  C   UNL     1      43.989 -14.469   6.836  1.00  0.00     0.046 C 
BRANCH  14  15
HETATM   15  C   UNL     1      44.266 -15.930   7.067  1.00  0.00    -0.029 C 
HETATM   16  C   UNL     1      43.508 -16.730   7.832  1.00  0.00    -0.035 C 
HETATM   17  C   UNL     1      43.794 -18.179   8.063  1.00  0.00     0.036 C 
ENDBRANCH  14  15
ENDBRANCH  13  14
ENDBRANCH   9  13
ENDBRANCH   1   7
BRANCH   3  18
HETATM   18  C   UNL     1      44.030 -20.203   3.578  1.00  0.00     0.079 A 
HETATM   19  C   UNL     1      44.239 -21.415   2.889  1.00  0.00     0.062 A 
HETATM   20 CL   UNL     1      44.044 -21.664   1.187  1.00  0.00    -0.082 Cl
HETATM   21  C   UNL     1      44.683 -22.550   3.590  1.00  0.00     0.026 A 
HETATM   22  C   UNL     1      44.925 -22.503   4.961  1.00  0.00     0.002 A 
HETATM   23  C   UNL     1      44.728 -21.314   5.649  1.00  0.00     0.002 A 
HETATM   24  C   UNL     1      44.286 -20.176   4.967  1.00  0.00     0.033 A 
ENDBRANCH   3  18
TORSDOF 5
ENDMDL
MODEL 4
REMARK VINA RESULT:      -7.4      2.596      5.219
REMARK  5 active torsions:
REMARK  status: ('A' for Active; 'I' for Inactive)
REMARK    1  A    between atoms: C_3  and  C_4 
REMARK    2  A    between atoms: C_4  and  C_5 
REMARK    3  A    between atoms: C_5  and  N_6 
REMARK       I    between atoms: N_6  and  C_7 
REMARK       I    between atoms: C_7  and  N_8 
REMARK    4  A    between atoms: N_8  and  C_9 
REMARK    5  A    between atoms: N_11  and  C_12 
ROOT
HETATM    1  C   UNL     1      43.392 -16.865   2.520  1.00  0.00     0.159 A 
HETATM    2  N   UNL     1      43.985 -17.725   3.346  1.00  0.00    -0.149 NA
HETATM    3  N   UNL     1      43.546 -18.955   2.997  1.00  0.00    -0.241 N 
HETATM    4  C   UNL     1      42.637 -18.858   1.960  1.00  0.00     0.129 A 
HETATM    5  C   UNL     1      42.520 -17.527   1.624  1.00  0.00     0.003 A 
HETATM    6  C   UNL     1      41.670 -16.938   0.563  1.00  0.00     0.054 C 
ENDROOT
BRANCH   1   7
HETATM    7  N   UNL     1      43.600 -15.504   2.533  1.00  0.00    -0.291 N 
HETATM    8  C   UNL     1      43.610 -14.645   3.588  1.00  0.00     0.321 C 
HETATM    9  N   UNL     1      43.340 -15.158   4.815  1.00  0.00    -0.343 N 
HETATM   10  O   UNL     1      43.856 -13.455   3.394  1.00  0.00    -0.247 OA
HETATM   11  H   UNL     1      43.130 -16.155   4.853  1.00  0.00     0.164 HD
HETATM   12  H   UNL     1      43.798 -15.052   1.652  1.00  0.00     0.172 HD
BRANCH   9  13
HETATM   13  C   UNL     1      43.333 -14.368   6.027  1.00  0.00     0.128 C 
BRANCH  13  14
HETATM   14  C   UNL     1      44.650 -14.469   6.801  1.00  0.00     0.046 C 
BRANCH  14  15
HETATM   15  C   UNL     1      44.721 -13.448   7.906  1.00  0.00    -0.029 C 
HETATM   16  C   UNL     1      45.757 -12.618   8.100  1.00  0.00    -0.035 C 
HETATM   17  C   UNL     1      45.824 -11.613   9.204  1.00  0.00     0.036 C 
ENDBRANCH  14  15
ENDBRANCH  13  14
ENDBRANCH   9  13
ENDBRANCH   1   7
BRANCH   3  18
HETATM   18  C   UNL     1      44.017 -20.150   3.628  1.00  0.00     0.079 A 
HETATM   19  C   UNL     1      44.238 -21.360   2.937  1.00  0.00     0.062 A 
HETATM   20 CL   UNL     1      44.061 -21.604   1.232  1.00  0.00    -0.082 Cl
HETATM   21  C   UNL     1      44.679 -22.495   3.639  1.00  0.00     0.026 A 
HETATM   22  C   UNL     1      44.908 -22.452   5.013  1.00  0.00     0.002 A 
HETATM   23  C   UNL     1      44.699 -21.266   5.702  1.00  0.00     0.002 A 
HETATM   24  C   UNL     1      44.260 -20.128   5.020  1.00  0.00     0.033 A 
ENDBRANCH   3  18
TORSDOF 5
ENDMDL
MODEL 5
REMARK VINA RESULT:      -7.4      1.844      4.783
REMARK  5 active torsions:
REMARK  status: ('A' for Active; 'I' for Inactive)
REMARK    1  A    between atoms: C_3  and  C_4 
REMARK    2  A    between atoms: C_4  and  C_5 
REMARK    3  A    between atoms: C_5  and  N_6 
REMARK       I    between atoms: N_6  and  C_7 
REMARK       I    between atoms: C_7  and  N_8 
REMARK    4  A    between atoms: N_8  and  C_9 
REMARK    5  A    between atoms: N_11  and  C_12 
ROOT
HETATM    1  C   UNL     1      41.250 -16.577   3.110  1.00  0.00     0.159 A 
HETATM    2  N   UNL     1      41.838 -17.670   3.595  1.00  0.00    -0.149 NA
HETATM    3  N   UNL     1      42.438 -18.278   2.548  1.00  0.00    -0.241 N 
HETATM    4  C   UNL     1      42.190 -17.572   1.384  1.00  0.00     0.129 A 
HETATM    5  C   UNL     1      41.435 -16.469   1.711  1.00  0.00     0.003 A 
HETATM    6  C   UNL     1      40.936 -15.416   0.796  1.00  0.00     0.054 C 
ENDROOT
BRANCH   1   7
HETATM    7  N   UNL     1      40.552 -15.666   3.871  1.00  0.00    -0.291 N 
HETATM    8  C   UNL     1      41.012 -14.801   4.815  1.00  0.00     0.321 C 
HETATM    9  N   UNL     1      42.337 -14.838   5.105  1.00  0.00    -0.343 N 
HETATM   10  O   UNL     1      40.223 -14.032   5.362  1.00  0.00    -0.247 OA
HETATM   11  H   UNL     1      42.891 -15.531   4.603  1.00  0.00     0.164 HD
HETATM   12  H   UNL     1      39.558 -15.590   3.714  1.00  0.00     0.172 HD
BRANCH   9  13
HETATM   13  C   UNL     1      42.967 -13.967   6.072  1.00  0.00     0.128 C 
BRANCH  13  14
HETATM   14  C   UNL     1      44.108 -14.655   6.827  1.00  0.00     0.046 C 
BRANCH  14  15
HETATM   15  C   UNL     1      45.106 -13.657   7.350  1.00  0.00    -0.029 C 
HETATM   16  C   UNL     1      44.884 -12.842   8.392  1.00  0.00    -0.035 C 
HETATM   17  C   UNL     1      45.877 -11.848   8.900  1.00  0.00     0.036 C 
ENDBRANCH  14  15
ENDBRANCH  13  14
ENDBRANCH   9  13
ENDBRANCH   1   7
BRANCH   3  18
HETATM   18  C   UNL     1      43.229 -19.462   2.692  1.00  0.00     0.079 A 
HETATM   19  C   UNL     1      44.189 -19.637   3.709  1.00  0.00     0.062 A 
HETATM   20 CL   UNL     1      44.533 -18.520   4.986  1.00  0.00    -0.082 Cl
HETATM   21  C   UNL     1      44.941 -20.824   3.764  1.00  0.00     0.026 A 
HETATM   22  C   UNL     1      44.755 -21.840   2.830  1.00  0.00     0.002 A 
HETATM   23  C   UNL     1      43.810 -21.682   1.827  1.00  0.00     0.002 A 
HETATM   24  C   UNL     1      43.054 -20.507   1.758  1.00  0.00     0.033 A 
ENDBRANCH   3  18
TORSDOF 5
ENDMDL
MODEL 6
REMARK VINA RESULT:      -7.3      1.795      4.314
REMARK  5 active torsions:
REMARK  status: ('A' for Active; 'I' for Inactive)
REMARK    1  A    between atoms: C_3  and  C_4 
REMARK    2  A    between atoms: C_4  and  C_5 
REMARK    3  A    between atoms: C_5  and  N_6 
REMARK       I    between atoms: N_6  and  C_7 
REMARK       I    between atoms: C_7  and  N_8 
REMARK    4  A    between atoms: N_8  and  C_9 
REMARK    5  A    between atoms: N_11  and  C_12 
ROOT
HETATM    1  C   UNL     1      41.319 -16.649   2.581  1.00  0.00     0.159 A 
HETATM    2  N   UNL     1      41.767 -17.765   3.153  1.00  0.00    -0.149 NA
HETATM    3  N   UNL     1      42.590 -18.351   2.255  1.00  0.00    -0.241 N 
HETATM    4  C   UNL     1      42.628 -17.607   1.090  1.00  0.00     0.129 A 
HETATM    5  C   UNL     1      41.826 -16.501   1.268  1.00  0.00     0.003 A 
HETATM    6  C   UNL     1      41.565 -15.413   0.297  1.00  0.00     0.054 C 
ENDROOT
BRANCH   1   7
HETATM    7  N   UNL     1      40.470 -15.750   3.187  1.00  0.00    -0.291 N 
HETATM    8  C   UNL     1      40.726 -14.866   4.189  1.00  0.00     0.321 C 
HETATM    9  N   UNL     1      41.975 -14.866   4.720  1.00  0.00    -0.343 N 
HETATM   10  O   UNL     1      39.831 -14.113   4.571  1.00  0.00    -0.247 OA
HETATM   11  H   UNL     1      42.629 -15.549   4.339  1.00  0.00     0.164 HD
HETATM   12  H   UNL     1      39.520 -15.702   2.848  1.00  0.00     0.172 HD
BRANCH   9  13
HETATM   13  C   UNL     1      42.394 -13.971   5.776  1.00  0.00     0.128 C 
BRANCH  13  14
HETATM   14  C   UNL     1      43.882 -14.110   6.108  1.00  0.00     0.046 C 
BRANCH  14  15
HETATM   15  C   UNL     1      44.135 -15.265   7.039  1.00  0.00    -0.029 C 
HETATM   16  C   UNL     1      43.228 -16.209   7.335  1.00  0.00    -0.035 C 
HETATM   17  C   UNL     1      43.485 -17.348   8.267  1.00  0.00     0.036 C 
ENDBRANCH  14  15
ENDBRANCH  13  14
ENDBRANCH   9  13
ENDBRANCH   1   7
BRANCH   3  18
HETATM   18  C   UNL     1      43.315 -19.552   2.541  1.00  0.00     0.079 A 
HETATM   19  C   UNL     1      44.184 -19.693   3.642  1.00  0.00     0.062 A 
HETATM   20 CL   UNL     1      44.476 -18.504   4.866  1.00  0.00    -0.082 Cl
HETATM   21  C   UNL     1      44.877 -20.901   3.835  1.00  0.00     0.026 A 
HETATM   22  C   UNL     1      44.721 -21.971   2.958  1.00  0.00     0.002 A 
HETATM   23  C   UNL     1      43.864 -21.847   1.874  1.00  0.00     0.002 A 
HETATM   24  C   UNL     1      43.168 -20.652   1.667  1.00  0.00     0.033 A 
ENDBRANCH   3  18
TORSDOF 5
ENDMDL
MODEL 7
REMARK VINA RESULT:      -7.3      3.880      5.345
REMARK  5 active torsions:
REMARK  status: ('A' for Active; 'I' for Inactive)
REMARK    1  A    between atoms: C_3  and  C_4 
REMARK    2  A    between atoms: C_4  and  C_5 
REMARK    3  A    between atoms: C_5  and  N_6 
REMARK       I    between atoms: N_6  and  C_7 
REMARK       I    between atoms: C_7  and  N_8 
REMARK    4  A    between atoms: N_8  and  C_9 
REMARK    5  A    between atoms: N_11  and  C_12 
ROOT
HETATM    1  C   UNL     1      41.581 -15.401   1.299  1.00  0.00     0.159 A 
HETATM    2  N   UNL     1      42.610 -16.213   1.538  1.00  0.00    -0.149 NA
HETATM    3  N   UNL     1      42.155 -17.171   2.375  1.00  0.00    -0.241 N 
HETATM    4  C   UNL     1      40.830 -16.933   2.694  1.00  0.00     0.129 A 
HETATM    5  C   UNL     1      40.428 -15.805   2.013  1.00  0.00     0.003 A 
HETATM    6  C   UNL     1      39.089 -15.171   2.033  1.00  0.00     0.054 C 
ENDROOT
BRANCH   1   7
HETATM    7  N   UNL     1      41.631 -14.306   0.465  1.00  0.00    -0.291 N 
HETATM    8  C   UNL     1      41.530 -14.253  -0.891  1.00  0.00     0.321 C 
HETATM    9  N   UNL     1      41.402 -15.429  -1.556  1.00  0.00    -0.343 N 
HETATM   10  O   UNL     1      41.561 -13.160  -1.454  1.00  0.00    -0.247 OA
HETATM   11  H   UNL     1      41.409 -16.275  -0.986  1.00  0.00     0.164 HD
HETATM   12  H   UNL     1      41.734 -13.398   0.891  1.00  0.00     0.172 HD
BRANCH   9  13
HETATM   13  C   UNL     1      41.267 -15.524  -2.993  1.00  0.00     0.128 C 
BRANCH  13  14
HETATM   14  C   UNL     1      39.930 -16.135  -3.418  1.00  0.00     0.046 C 
BRANCH  14  15
HETATM   15  C   UNL     1      38.931 -15.074  -3.797  1.00  0.00    -0.029 C 
HETATM   16  C   UNL     1      37.604 -15.266  -3.836  1.00  0.00    -0.035 C 
HETATM   17  C   UNL     1      36.620 -14.209  -4.221  1.00  0.00     0.036 C 
ENDBRANCH  14  15
ENDBRANCH  13  14
ENDBRANCH   9  13
ENDBRANCH   1   7
BRANCH   3  18
HETATM   18  C   UNL     1      42.967 -18.267   2.809  1.00  0.00     0.079 A 
HETATM   19  C   UNL     1      43.625 -18.304   4.055  1.00  0.00     0.062 A 
HETATM   20 CL   UNL     1      43.519 -17.100   5.296  1.00  0.00    -0.082 Cl
HETATM   21  C   UNL     1      44.423 -19.411   4.392  1.00  0.00     0.026 A 
HETATM   22  C   UNL     1      44.579 -20.482   3.516  1.00  0.00     0.002 A 
HETATM   23  C   UNL     1      43.933 -20.461   2.289  1.00  0.00     0.002 A 
HETATM   24  C   UNL     1      43.135 -19.367   1.938  1.00  0.00     0.033 A 
ENDBRANCH   3  18
TORSDOF 5
ENDMDL
MODEL 8
REMARK VINA RESULT:      -7.2      3.065      3.656
REMARK  5 active torsions:
REMARK  status: ('A' for Active; 'I' for Inactive)
REMARK    1  A    between atoms: C_3  and  C_4 
REMARK    2  A    between atoms: C_4  and  C_5 
REMARK    3  A    between atoms: C_5  and  N_6 
REMARK       I    between atoms: N_6  and  C_7 
REMARK       I    between atoms: C_7  and  N_8 
REMARK    4  A    between atoms: N_8  and  C_9 
REMARK    5  A    between atoms: N_11  and  C_12 
ROOT
HETATM    1  C   UNL     1      42.764 -15.468   3.247  1.00  0.00     0.159 A 
HETATM    2  N   UNL     1      43.475 -16.510   2.819  1.00  0.00    -0.149 NA
HETATM    3  N   UNL     1      43.043 -17.581   3.520  1.00  0.00    -0.241 N 
HETATM    4  C   UNL     1      42.072 -17.196   4.427  1.00  0.00     0.129 A 
HETATM    5  C   UNL     1      41.864 -15.843   4.272  1.00  0.00     0.003 A 
HETATM    6  C   UNL     1      40.910 -14.988   5.018  1.00  0.00     0.054 C 
ENDROOT
BRANCH   1   7
HETATM    7  N   UNL     1      42.887 -14.187   2.755  1.00  0.00    -0.291 N 
HETATM    8  C   UNL     1      42.263 -13.610   1.692  1.00  0.00     0.321 C 
HETATM    9  N   UNL     1      41.423 -14.386   0.963  1.00  0.00    -0.343 N 
HETATM   10  O   UNL     1      42.483 -12.427   1.436  1.00  0.00    -0.247 OA
HETATM   11  H   UNL     1      41.334 -15.359   1.256  1.00  0.00     0.164 HD
HETATM   12  H   UNL     1      43.503 -13.556   3.244  1.00  0.00     0.172 HD
BRANCH   9  13
HETATM   13  C   UNL     1      40.680 -13.903  -0.180  1.00  0.00     0.128 C 
BRANCH  13  14
HETATM   14  C   UNL     1      41.203 -14.470  -1.503  1.00  0.00     0.046 C 
BRANCH  14  15
HETATM   15  C   UNL     1      40.076 -14.835  -2.433  1.00  0.00    -0.029 C 
HETATM   16  C   UNL     1      40.133 -15.826  -3.334  1.00  0.00    -0.035 C 
HETATM   17  C   UNL     1      39.013 -16.177  -4.260  1.00  0.00     0.036 C 
ENDBRANCH  14  15
ENDBRANCH  13  14
ENDBRANCH   9  13
ENDBRANCH   1   7
BRANCH   3  18
HETATM   18  C   UNL     1      43.536 -18.905   3.290  1.00  0.00     0.079 A 
HETATM   19  C   UNL     1      44.428 -19.566   4.159  1.00  0.00     0.062 A 
HETATM   20 CL   UNL     1      45.022 -18.953   5.665  1.00  0.00    -0.082 Cl
HETATM   21  C   UNL     1      44.882 -20.859   3.844  1.00  0.00     0.026 A 
HETATM   22  C   UNL     1      44.465 -21.508   2.684  1.00  0.00     0.002 A 
HETATM   23  C   UNL     1      43.583 -20.871   1.824  1.00  0.00     0.002 A 
HETATM   24  C   UNL     1      43.123 -19.584   2.122  1.00  0.00     0.033 A 
ENDBRANCH   3  18
TORSDOF 5
ENDMDL
MODEL 9
REMARK VINA RESULT:      -7.2      2.966      3.669
REMARK  5 active torsions:
REMARK  status: ('A' for Active; 'I' for Inactive)
REMARK    1  A    between atoms: C_3  and  C_4 
REMARK    2  A    between atoms: C_4  and  C_5 
REMARK    3  A    between atoms: C_5  and  N_6 
REMARK       I    between atoms: N_6  and  C_7 
REMARK       I    between atoms: C_7  and  N_8 
REMARK    4  A    between atoms: N_8  and  C_9 
REMARK    5  A    between atoms: N_11  and  C_12 
ROOT
HETATM    1  C   UNL     1      41.021 -16.160   3.136  1.00  0.00     0.159 A 
HETATM    2  N   UNL     1      41.362 -17.404   2.802  1.00  0.00    -0.149 NA
HETATM    3  N   UNL     1      42.599 -17.609   3.305  1.00  0.00    -0.241 N 
HETATM    4  C   UNL     1      43.053 -16.462   3.932  1.00  0.00     0.129 A 
HETATM    5  C   UNL     1      42.059 -15.513   3.847  1.00  0.00     0.003 A 
HETATM    6  C   UNL     1      42.085 -14.132   4.383  1.00  0.00     0.054 C 
ENDROOT
BRANCH   1   7
HETATM    7  N   UNL     1      39.812 -15.576   2.829  1.00  0.00    -0.291 N 
HETATM    8  C   UNL     1      39.397 -15.022   1.658  1.00  0.00     0.321 C 
HETATM    9  N   UNL     1      40.285 -14.985   0.633  1.00  0.00    -0.343 N 
HETATM   10  O   UNL     1      38.251 -14.581   1.574  1.00  0.00    -0.247 OA
HETATM   11  H   UNL     1      41.214 -15.361   0.824  1.00  0.00     0.164 HD
HETATM   12  H   UNL     1      39.105 -15.560   3.548  1.00  0.00     0.172 HD
BRANCH   9  13
HETATM   13  C   UNL     1      39.977 -14.443  -0.672  1.00  0.00     0.128 C 
BRANCH  13  14
HETATM   14  C   UNL     1      41.061 -14.754  -1.708  1.00  0.00     0.046 C 
BRANCH  14  15
HETATM   15  C   UNL     1      40.535 -15.634  -2.811  1.00  0.00    -0.029 C 
HETATM   16  C   UNL     1      39.404 -15.396  -3.492  1.00  0.00    -0.035 C 
HETATM   17  C   UNL     1      38.885 -16.279  -4.580  1.00  0.00     0.036 C 
ENDBRANCH  14  15
ENDBRANCH  13  14
ENDBRANCH   9  13
ENDBRANCH   1   7
BRANCH   3  18
HETATM   18  C   UNL     1      43.277 -18.865   3.200  1.00  0.00     0.079 A 
HETATM   19  C   UNL     1      44.137 -19.371   4.196  1.00  0.00     0.062 A 
HETATM   20 CL   UNL     1      44.470 -18.630   5.725  1.00  0.00    -0.082 Cl
HETATM   21  C   UNL     1      44.783 -20.605   4.001  1.00  0.00     0.026 A 
HETATM   22  C   UNL     1      44.588 -21.347   2.839  1.00  0.00     0.002 A 
HETATM   23  C   UNL     1      43.740 -20.862   1.854  1.00  0.00     0.002 A 
HETATM   24  C   UNL     1      43.091 -19.636   2.031  1.00  0.00     0.033 A 
ENDBRANCH   3  18
TORSDOF 5
ENDMDL
MODEL 10
REMARK VINA RESULT:      -7.0      2.063      2.480
REMARK  5 active torsions:
REMARK  status: ('A' for Active; 'I' for Inactive)
REMARK    1  A    between atoms: C_3  and  C_4 
REMARK    2  A    between atoms: C_4  and  C_5 
REMARK    3  A    between atoms: C_5  and  N_6 
REMARK       I    between atoms: N_6  and  C_7 
REMARK       I    between atoms: C_7  and  N_8 
REMARK    4  A    between atoms: N_8  and  C_9 
REMARK    5  A    between atoms: N_11  and  C_12 
ROOT
HETATM    1  C   UNL     1      42.759 -16.910   5.271  1.00  0.00     0.159 A 
HETATM    2  N   UNL     1      42.756 -18.051   4.584  1.00  0.00    -0.149 NA
HETATM    3  N   UNL     1      43.882 -18.711   4.934  1.00  0.00    -0.241 N 
HETATM    4  C   UNL     1      44.618 -17.954   5.827  1.00  0.00     0.129 A 
HETATM    5  C   UNL     1      43.921 -16.792   6.071  1.00  0.00     0.003 A 
HETATM    6  C   UNL     1      44.311 -15.679   6.968  1.00  0.00     0.054 C 
ENDROOT
BRANCH   1   7
HETATM    7  N   UNL     1      41.760 -15.964   5.213  1.00  0.00    -0.291 N 
HETATM    8  C   UNL     1      40.973 -15.606   4.162  1.00  0.00     0.321 C 
HETATM    9  N   UNL     1      41.202 -16.218   2.973  1.00  0.00    -0.343 N 
HETATM   10  O   UNL     1      40.100 -14.755   4.327  1.00  0.00    -0.247 OA
HETATM   11  H   UNL     1      41.966 -16.893   2.950  1.00  0.00     0.164 HD
HETATM   12  H   UNL     1      41.541 -15.462   6.061  1.00  0.00     0.172 HD
BRANCH   9  13
HETATM   13  C   UNL     1      40.433 -15.952   1.777  1.00  0.00     0.128 C 
BRANCH  13  14
HETATM   14  C   UNL     1      41.110 -16.487   0.513  1.00  0.00     0.046 C 
BRANCH  14  15
HETATM   15  C   UNL     1      41.288 -15.405  -0.519  1.00  0.00    -0.029 C 
HETATM   16  C   UNL     1      41.655 -14.146  -0.236  1.00  0.00    -0.035 C 
HETATM   17  C   UNL     1      41.822 -13.075  -1.266  1.00  0.00     0.036 C 
ENDBRANCH  14  15
ENDBRANCH  13  14
ENDBRANCH   9  13
ENDBRANCH   1   7
BRANCH   3  18
HETATM   18  C   UNL     1      44.195 -20.018   4.442  1.00  0.00     0.079 A 
HETATM   19  C   UNL     1      44.155 -20.366   3.076  1.00  0.00     0.062 A 
HETATM   20 CL   UNL     1      43.802 -19.294   1.764  1.00  0.00    -0.082 Cl
HETATM   21  C   UNL     1      44.455 -21.682   2.681  1.00  0.00     0.026 A 
HETATM   22  C   UNL     1      44.797 -22.657   3.615  1.00  0.00     0.002 A 
HETATM   23  C   UNL     1      44.846 -22.325   4.961  1.00  0.00     0.002 A 
HETATM   24  C   UNL     1      44.549 -21.022   5.372  1.00  0.00     0.033 A 
ENDBRANCH   3  18
TORSDOF 5
ENDMDL
