MODEL 1
REMARK VINA RESULT:      -8.7      0.000      0.000
REMARK  4 active torsions:
REMARK  status: ('A' for Active; 'I' for Inactive)
REMARK    1  A    between atoms: C_6  and  C_7 
REMARK    2  A    between atoms: C_7  and  C_8 
REMARK       I    between atoms: C_8  and  N_9 
REMARK    3  A    between atoms: N_9  and  C_10 
REMARK    4  A    between atoms: C_17  and  C_18 
REMARK       I    between atoms: C_18  and  N_19 
ROOT
HETATM    1  C   UNL     1      41.869 -16.624   4.383  1.00  0.00     0.035 A 
HETATM    2  C   UNL     1      42.358 -17.444   5.397  1.00  0.00     0.046 A 
HETATM    3  C   UNL     1      42.956 -16.873   6.542  1.00  0.00     0.030 A 
HETATM    4  C   UNL     1      43.008 -15.491   6.653  1.00  0.00     0.063 A 
HETATM    5  N   UNL     1      43.628 -15.245   7.847  1.00  0.00    -0.277 N 
HETATM    6  H   UNL     1      43.838 -14.342   8.256  1.00  0.00     0.189 HD
HETATM    7  N   UNL     1      43.987 -16.351   8.522  1.00  0.00    -0.168 NA
HETATM    8  C   UNL     1      43.582 -17.364   7.725  1.00  0.00     0.156 A 
HETATM    9  C   UNL     1      42.493 -14.633   5.682  1.00  0.00     0.034 A 
HETATM   10  C   UNL     1      41.923 -15.232   4.549  1.00  0.00     0.032 A 
ENDROOT
BRANCH   1  11
HETATM   11  N   UNL     1      41.294 -17.083   3.188  1.00  0.00    -0.326 N 
HETATM   12  C   UNL     1      41.742 -17.783   2.094  1.00  0.00     0.235 C 
HETATM   13  O   UNL     1      40.910 -18.071   1.230  1.00  0.00    -0.272 OA
HETATM   14  H   UNL     1      40.321 -16.837   3.045  1.00  0.00     0.169 HD
BRANCH  12  15
HETATM   15  C   UNL     1      43.190 -18.143   1.846  1.00  0.00     0.068 A 
HETATM   16  C   UNL     1      44.249 -17.055   1.669  1.00  0.00     0.026 A 
HETATM   17  C   UNL     1      43.706 -17.714   0.452  1.00  0.00     0.026 A 
BRANCH  15  18
HETATM   18  C   UNL     1      43.599 -19.580   2.226  1.00  0.00    -0.039 A 
HETATM   19  C   UNL     1      44.253 -19.901   3.428  1.00  0.00     0.032 A 
HETATM   20  C   UNL     1      44.615 -21.219   3.726  1.00  0.00     0.034 A 
HETATM   21  C   UNL     1      44.345 -22.250   2.833  1.00  0.00     0.024 A 
HETATM   22 CL   UNL     1      45.405 -21.572   5.215  1.00  0.00    -0.084 Cl
HETATM   23  C   UNL     1      43.706 -21.962   1.632  1.00  0.00     0.002 A 
HETATM   24  C   UNL     1      43.340 -20.646   1.340  1.00  0.00     0.008 A 
ENDBRANCH  15  18
ENDBRANCH  12  15
ENDBRANCH   1  11
BRANCH   8  25
HETATM   25  C   UNL     1      43.806 -18.769   8.092  1.00  0.00     0.270 C 
HETATM   26  N   UNL     1      44.293 -18.947   9.357  1.00  0.00    -0.365 N 
HETATM   27  H   UNL     1      44.465 -18.131   9.933  1.00  0.00     0.159 HD
HETATM   28  H   UNL     1      44.480 -19.879   9.696  1.00  0.00     0.159 HD
HETATM   29  O   UNL     1      43.594 -19.719   7.346  1.00  0.00    -0.266 OA
ENDBRANCH   8  25
TORSDOF 4
ENDMDL
MODEL 2
REMARK VINA RESULT:      -8.4      3.107      6.044
REMARK  4 active torsions:
REMARK  status: ('A' for Active; 'I' for Inactive)
REMARK    1  A    between atoms: C_6  and  C_7 
REMARK    2  A    between atoms: C_7  and  C_8 
REMARK       I    between atoms: C_8  and  N_9 
REMARK    3  A    between atoms: N_9  and  C_10 
REMARK    4  A    between atoms: C_17  and  C_18 
REMARK       I    between atoms: C_18  and  N_19 
ROOT
HETATM    1  C   UNL     1      40.810 -16.252   2.875  1.00  0.00     0.035 A 
HETATM    2  C   UNL     1      41.002 -14.972   2.360  1.00  0.00     0.046 A 
HETATM    3  C   UNL     1      41.268 -14.796   0.984  1.00  0.00     0.030 A 
HETATM    4  C   UNL     1      41.293 -15.910   0.157  1.00  0.00     0.063 A 
HETATM    5  N   UNL     1      41.566 -15.428  -1.093  1.00  0.00    -0.277 N 
HETATM    6  H   UNL     1      41.660 -15.962  -1.950  1.00  0.00     0.189 HD
HETATM    7  N   UNL     1      41.725 -14.094  -1.151  1.00  0.00    -0.168 NA
HETATM    8  C   UNL     1      41.547 -13.692   0.127  1.00  0.00     0.156 A 
HETATM    9  C   UNL     1      41.065 -17.204   0.623  1.00  0.00     0.034 A 
HETATM   10  C   UNL     1      40.821 -17.347   1.997  1.00  0.00     0.032 A 
ENDROOT
BRANCH   1  11
HETATM   11  N   UNL     1      40.580 -16.546   4.228  1.00  0.00    -0.326 N 
HETATM   12  C   UNL     1      41.370 -16.722   5.337  1.00  0.00     0.235 C 
HETATM   13  O   UNL     1      40.797 -16.916   6.413  1.00  0.00    -0.272 OA
HETATM   14  H   UNL     1      39.612 -16.699   4.486  1.00  0.00     0.169 HD
BRANCH  12  15
HETATM   15  C   UNL     1      42.881 -16.780   5.307  1.00  0.00     0.068 A 
HETATM   16  C   UNL     1      43.717 -15.957   6.287  1.00  0.00     0.026 A 
HETATM   17  C   UNL     1      43.547 -15.443   4.903  1.00  0.00     0.026 A 
BRANCH  15  18
HETATM   18  C   UNL     1      43.492 -18.000   4.589  1.00  0.00    -0.039 A 
HETATM   19  C   UNL     1      43.835 -19.192   5.252  1.00  0.00     0.032 A 
HETATM   20  C   UNL     1      44.396 -20.270   4.559  1.00  0.00     0.034 A 
HETATM   21  C   UNL     1      44.641 -20.189   3.193  1.00  0.00     0.024 A 
HETATM   22 CL   UNL     1      44.793 -21.715   5.407  1.00  0.00    -0.084 Cl
HETATM   23  C   UNL     1      44.319 -19.020   2.511  1.00  0.00     0.002 A 
HETATM   24  C   UNL     1      43.752 -17.947   3.203  1.00  0.00     0.008 A 
ENDBRANCH  15  18
ENDBRANCH  12  15
ENDBRANCH   1  11
BRANCH   8  25
HETATM   25  C   UNL     1      41.659 -12.277   0.510  1.00  0.00     0.270 C 
HETATM   26  N   UNL     1      40.466 -11.684   0.818  1.00  0.00    -0.365 N 
HETATM   27  H   UNL     1      39.618 -12.235   0.760  1.00  0.00     0.159 HD
HETATM   28  H   UNL     1      40.445 -10.713   1.091  1.00  0.00     0.159 HD
HETATM   29  O   UNL     1      42.715 -11.655   0.549  1.00  0.00    -0.266 OA
ENDBRANCH   8  25
TORSDOF 4
ENDMDL
MODEL 3
REMARK VINA RESULT:      -8.3      2.611      5.008
REMARK  4 active torsions:
REMARK  status: ('A' for Active; 'I' for Inactive)
REMARK    1  A    between atoms: C_6  and  C_7 
REMARK    2  A    between atoms: C_7  and  C_8 
REMARK       I    between atoms: C_8  and  N_9 
REMARK    3  A    between atoms: N_9  and  C_10 
REMARK    4  A    between atoms: C_17  and  C_18 
REMARK       I    between atoms: C_18  and  N_19 
ROOT
HETATM    1  C   UNL     1      43.701 -18.561   2.173  1.00  0.00     0.035 A 
HETATM    2  C   UNL     1      43.954 -18.524   3.543  1.00  0.00     0.046 A 
HETATM    3  C   UNL     1      44.241 -19.717   4.241  1.00  0.00     0.030 A 
HETATM    4  C   UNL     1      44.307 -20.910   3.535  1.00  0.00     0.063 A 
HETATM    5  N   UNL     1      44.599 -21.868   4.466  1.00  0.00    -0.277 N 
HETATM    6  H   UNL     1      44.722 -22.862   4.307  1.00  0.00     0.189 HD
HETATM    7  N   UNL     1      44.728 -21.401   5.720  1.00  0.00    -0.168 NA
HETATM    8  C   UNL     1      44.505 -20.074   5.596  1.00  0.00     0.156 A 
HETATM    9  C   UNL     1      44.102 -20.986   2.158  1.00  0.00     0.034 A 
HETATM   10  C   UNL     1      43.801 -19.787   1.497  1.00  0.00     0.032 A 
ENDROOT
BRANCH   1  11
HETATM   11  N   UNL     1      43.367 -17.447   1.389  1.00  0.00    -0.326 N 
HETATM   12  C   UNL     1      42.430 -16.446   1.463  1.00  0.00     0.235 C 
HETATM   13  O   UNL     1      42.472 -15.568   0.597  1.00  0.00    -0.272 OA
HETATM   14  H   UNL     1      43.906 -17.330   0.538  1.00  0.00     0.169 HD
BRANCH  12  15
HETATM   15  C   UNL     1      41.309 -16.400   2.478  1.00  0.00     0.068 A 
HETATM   16  C   UNL     1      39.919 -16.935   2.135  1.00  0.00     0.026 A 
HETATM   17  C   UNL     1      40.143 -15.467   2.074  1.00  0.00     0.026 A 
BRANCH  15  18
HETATM   18  C   UNL     1      41.741 -16.226   3.947  1.00  0.00    -0.039 A 
HETATM   19  C   UNL     1      42.731 -15.314   4.355  1.00  0.00     0.032 A 
HETATM   20  C   UNL     1      43.099 -15.197   5.700  1.00  0.00     0.034 A 
HETATM   21  C   UNL     1      42.499 -15.990   6.673  1.00  0.00     0.024 A 
HETATM   22 CL   UNL     1      44.309 -14.062   6.159  1.00  0.00    -0.084 Cl
HETATM   23  C   UNL     1      41.522 -16.906   6.299  1.00  0.00     0.002 A 
HETATM   24  C   UNL     1      41.152 -17.016   4.957  1.00  0.00     0.008 A 
ENDBRANCH  15  18
ENDBRANCH  12  15
ENDBRANCH   1  11
BRANCH   8  25
HETATM   25  C   UNL     1      44.533 -19.178   6.760  1.00  0.00     0.270 C 
HETATM   26  N   UNL     1      43.678 -19.536   7.765  1.00  0.00    -0.365 N 
HETATM   27  H   UNL     1      43.102 -20.361   7.644  1.00  0.00     0.159 HD
HETATM   28  H   UNL     1      43.627 -18.978   8.603  1.00  0.00     0.159 HD
HETATM   29  O   UNL     1      45.243 -18.181   6.847  1.00  0.00    -0.266 OA
ENDBRANCH   8  25
TORSDOF 4
ENDMDL
MODEL 4
REMARK VINA RESULT:      -8.3      2.706      4.787
REMARK  4 active torsions:
REMARK  status: ('A' for Active; 'I' for Inactive)
REMARK    1  A    between atoms: C_6  and  C_7 
REMARK    2  A    between atoms: C_7  and  C_8 
REMARK       I    between atoms: C_8  and  N_9 
REMARK    3  A    between atoms: N_9  and  C_10 
REMARK    4  A    between atoms: C_17  and  C_18 
REMARK       I    between atoms: C_18  and  N_19 
ROOT
HETATM    1  C   UNL     1      43.898 -16.456   6.280  1.00  0.00     0.035 A 
HETATM    2  C   UNL     1      44.104 -17.659   5.606  1.00  0.00     0.046 A 
HETATM    3  C   UNL     1      44.024 -18.883   6.306  1.00  0.00     0.030 A 
HETATM    4  C   UNL     1      43.697 -18.866   7.654  1.00  0.00     0.063 A 
HETATM    5  N   UNL     1      43.694 -20.177   8.044  1.00  0.00    -0.277 N 
HETATM    6  H   UNL     1      43.497 -20.543   8.969  1.00  0.00     0.189 HD
HETATM    7  N   UNL     1      43.993 -21.047   7.063  1.00  0.00    -0.168 NA
HETATM    8  C   UNL     1      44.203 -20.261   5.985  1.00  0.00     0.156 A 
HETATM    9  C   UNL     1      43.442 -17.689   8.356  1.00  0.00     0.034 A 
HETATM   10  C   UNL     1      43.548 -16.490   7.638  1.00  0.00     0.032 A 
ENDROOT
BRANCH   1  11
HETATM   11  N   UNL     1      43.992 -15.184   5.695  1.00  0.00    -0.326 N 
HETATM   12  C   UNL     1      43.126 -14.344   5.038  1.00  0.00     0.235 C 
HETATM   13  O   UNL     1      43.558 -13.237   4.706  1.00  0.00    -0.272 OA
HETATM   14  H   UNL     1      44.911 -14.757   5.718  1.00  0.00     0.169 HD
BRANCH  12  15
HETATM   15  C   UNL     1      41.721 -14.721   4.625  1.00  0.00     0.068 A 
HETATM   16  C   UNL     1      40.520 -13.894   5.083  1.00  0.00     0.026 A 
HETATM   17  C   UNL     1      40.822 -15.156   5.807  1.00  0.00     0.026 A 
BRANCH  15  18
HETATM   18  C   UNL     1      41.609 -15.657   3.405  1.00  0.00    -0.039 A 
HETATM   19  C   UNL     1      42.724 -16.243   2.780  1.00  0.00     0.032 A 
HETATM   20  C   UNL     1      42.575 -17.078   1.667  1.00  0.00     0.034 A 
HETATM   21  C   UNL     1      41.315 -17.344   1.141  1.00  0.00     0.024 A 
HETATM   22 CL   UNL     1      43.965 -17.785   0.938  1.00  0.00    -0.084 Cl
HETATM   23  C   UNL     1      40.194 -16.772   1.733  1.00  0.00     0.002 A 
HETATM   24  C   UNL     1      40.345 -15.944   2.847  1.00  0.00     0.008 A 
ENDBRANCH  15  18
ENDBRANCH  12  15
ENDBRANCH   1  11
BRANCH   8  25
HETATM   25  C   UNL     1      44.581 -20.826   4.683  1.00  0.00     0.270 C 
HETATM   26  N   UNL     1      44.812 -22.173   4.702  1.00  0.00    -0.365 N 
HETATM   27  H   UNL     1      44.715 -22.673   5.578  1.00  0.00     0.159 HD
HETATM   28  H   UNL     1      45.078 -22.649   3.853  1.00  0.00     0.159 HD
HETATM   29  O   UNL     1      44.697 -20.170   3.653  1.00  0.00    -0.266 OA
ENDBRANCH   8  25
TORSDOF 4
ENDMDL
MODEL 5
REMARK VINA RESULT:      -8.1      3.742      6.228
REMARK  4 active torsions:
REMARK  status: ('A' for Active; 'I' for Inactive)
REMARK    1  A    between atoms: C_6  and  C_7 
REMARK    2  A    between atoms: C_7  and  C_8 
REMARK       I    between atoms: C_8  and  N_9 
REMARK    3  A    between atoms: N_9  and  C_10 
REMARK    4  A    between atoms: C_17  and  C_18 
REMARK       I    between atoms: C_18  and  N_19 
ROOT
HETATM    1  C   UNL     1      43.923 -17.695   3.844  1.00  0.00     0.035 A 
HETATM    2  C   UNL     1      44.251 -18.924   4.413  1.00  0.00     0.046 A 
HETATM    3  C   UNL     1      44.238 -20.095   3.624  1.00  0.00     0.030 A 
HETATM    4  C   UNL     1      43.936 -19.991   2.274  1.00  0.00     0.063 A 
HETATM    5  N   UNL     1      44.005 -21.267   1.787  1.00  0.00    -0.277 N 
HETATM    6  H   UNL     1      43.842 -21.571   0.833  1.00  0.00     0.189 HD
HETATM    7  N   UNL     1      44.325 -22.195   2.706  1.00  0.00    -0.168 NA
HETATM    8  C   UNL     1      44.468 -21.485   3.847  1.00  0.00     0.156 A 
HETATM    9  C   UNL     1      43.643 -18.777   1.655  1.00  0.00     0.034 A 
HETATM   10  C   UNL     1      43.646 -17.636   2.469  1.00  0.00     0.032 A 
ENDROOT
BRANCH   1  11
HETATM   11  N   UNL     1      43.865 -16.479   4.540  1.00  0.00    -0.326 N 
HETATM   12  C   UNL     1      42.872 -15.743   5.140  1.00  0.00     0.235 C 
HETATM   13  O   UNL     1      43.211 -14.715   5.731  1.00  0.00    -0.272 OA
HETATM   14  H   UNL     1      44.741 -15.976   4.621  1.00  0.00     0.169 HD
BRANCH  12  15
HETATM   15  C   UNL     1      41.397 -16.064   5.045  1.00  0.00     0.068 A 
HETATM   16  C   UNL     1      40.606 -16.490   6.282  1.00  0.00     0.026 A 
HETATM   17  C   UNL     1      41.064 -17.546   5.341  1.00  0.00     0.026 A 
BRANCH  15  18
HETATM   18  C   UNL     1      40.670 -15.519   3.800  1.00  0.00    -0.039 A 
HETATM   19  C   UNL     1      40.056 -14.255   3.759  1.00  0.00     0.032 A 
HETATM   20  C   UNL     1      39.399 -13.806   2.608  1.00  0.00     0.034 A 
HETATM   21  C   UNL     1      39.325 -14.605   1.473  1.00  0.00     0.024 A 
HETATM   22 CL   UNL     1      38.669 -12.246   2.596  1.00  0.00    -0.084 Cl
HETATM   23  C   UNL     1      39.916 -15.864   1.486  1.00  0.00     0.002 A 
HETATM   24  C   UNL     1      40.578 -16.308   2.633  1.00  0.00     0.008 A 
ENDBRANCH  15  18
ENDBRANCH  12  15
ENDBRANCH   1  11
BRANCH   8  25
HETATM   25  C   UNL     1      44.803 -22.135   5.121  1.00  0.00     0.270 C 
HETATM   26  N   UNL     1      45.763 -23.103   5.021  1.00  0.00    -0.365 N 
HETATM   27  H   UNL     1      46.160 -23.304   4.111  1.00  0.00     0.159 HD
HETATM   28  H   UNL     1      46.056 -23.605   5.845  1.00  0.00     0.159 HD
HETATM   29  O   UNL     1      44.277 -21.861   6.195  1.00  0.00    -0.266 OA
ENDBRANCH   8  25
TORSDOF 4
ENDMDL
MODEL 6
REMARK VINA RESULT:      -8.1      3.175      4.822
REMARK  4 active torsions:
REMARK  status: ('A' for Active; 'I' for Inactive)
REMARK    1  A    between atoms: C_6  and  C_7 
REMARK    2  A    between atoms: C_7  and  C_8 
REMARK       I    between atoms: C_8  and  N_9 
REMARK    3  A    between atoms: N_9  and  C_10 
REMARK    4  A    between atoms: C_17  and  C_18 
REMARK       I    between atoms: C_18  and  N_19 
ROOT
HETATM    1  C   UNL     1      40.432 -15.640   3.719  1.00  0.00     0.035 A 
HETATM    2  C   UNL     1      40.104 -14.295   3.564  1.00  0.00     0.046 A 
HETATM    3  C   UNL     1      40.030 -13.451   4.694  1.00  0.00     0.030 A 
HETATM    4  C   UNL     1      40.328 -13.973   5.944  1.00  0.00     0.063 A 
HETATM    5  N   UNL     1      40.174 -12.934   6.819  1.00  0.00    -0.277 N 
HETATM    6  H   UNL     1      40.309 -12.951   7.824  1.00  0.00     0.189 HD
HETATM    7  N   UNL     1      39.798 -11.777   6.245  1.00  0.00    -0.168 NA
HETATM    8  C   UNL     1      39.701 -12.083   4.932  1.00  0.00     0.156 A 
HETATM    9  C   UNL     1      40.701 -15.302   6.139  1.00  0.00     0.034 A 
HETATM   10  C   UNL     1      40.748 -16.119   5.000  1.00  0.00     0.032 A 
ENDROOT
BRANCH   1  11
HETATM   11  N   UNL     1      40.495 -16.576   2.675  1.00  0.00    -0.326 N 
HETATM   12  C   UNL     1      41.481 -17.352   2.118  1.00  0.00     0.235 C 
HETATM   13  O   UNL     1      41.147 -18.130   1.221  1.00  0.00    -0.272 OA
HETATM   14  H   UNL     1      39.632 -16.725   2.166  1.00  0.00     0.169 HD
BRANCH  12  15
HETATM   15  C   UNL     1      42.949 -17.250   2.471  1.00  0.00     0.068 A 
HETATM   16  C   UNL     1      43.619 -15.888   2.650  1.00  0.00     0.026 A 
HETATM   17  C   UNL     1      43.811 -16.602   1.361  1.00  0.00     0.026 A 
BRANCH  15  18
HETATM   18  C   UNL     1      43.586 -18.521   3.065  1.00  0.00    -0.039 A 
HETATM   19  C   UNL     1      43.799 -19.695   2.321  1.00  0.00     0.032 A 
HETATM   20  C   UNL     1      44.372 -20.830   2.906  1.00  0.00     0.034 A 
HETATM   21  C   UNL     1      44.738 -20.831   4.247  1.00  0.00     0.024 A 
HETATM   22 CL   UNL     1      44.626 -22.244   1.956  1.00  0.00    -0.084 Cl
HETATM   23  C   UNL     1      44.531 -19.687   5.011  1.00  0.00     0.002 A 
HETATM   24  C   UNL     1      43.966 -18.553   4.423  1.00  0.00     0.008 A 
ENDBRANCH  15  18
ENDBRANCH  12  15
ENDBRANCH   1  11
BRANCH   8  25
HETATM   25  C   UNL     1      39.288 -11.084   3.938  1.00  0.00     0.270 C 
HETATM   26  N   UNL     1      37.935 -10.986   3.770  1.00  0.00    -0.365 N 
HETATM   27  H   UNL     1      37.331 -11.588   4.317  1.00  0.00     0.159 HD
HETATM   28  H   UNL     1      37.559 -10.326   3.106  1.00  0.00     0.159 HD
HETATM   29  O   UNL     1      40.067 -10.391   3.292  1.00  0.00    -0.266 OA
ENDBRANCH   8  25
TORSDOF 4
ENDMDL
MODEL 7
REMARK VINA RESULT:      -8.0      2.995      5.926
REMARK  4 active torsions:
REMARK  status: ('A' for Active; 'I' for Inactive)
REMARK    1  A    between atoms: C_6  and  C_7 
REMARK    2  A    between atoms: C_7  and  C_8 
REMARK       I    between atoms: C_8  and  N_9 
REMARK    3  A    between atoms: N_9  and  C_10 
REMARK    4  A    between atoms: C_17  and  C_18 
REMARK       I    between atoms: C_18  and  N_19 
ROOT
HETATM    1  C   UNL     1      40.936 -14.896   4.298  1.00  0.00     0.035 A 
HETATM    2  C   UNL     1      40.887 -15.152   2.930  1.00  0.00     0.046 A 
HETATM    3  C   UNL     1      41.322 -14.172   2.011  1.00  0.00     0.030 A 
HETATM    4  C   UNL     1      41.833 -12.976   2.496  1.00  0.00     0.063 A 
HETATM    5  N   UNL     1      42.167 -12.247   1.389  1.00  0.00    -0.277 N 
HETATM    6  H   UNL     1      42.570 -11.317   1.364  1.00  0.00     0.189 HD
HETATM    7  N   UNL     1      41.914 -12.865   0.222  1.00  0.00    -0.168 NA
HETATM    8  C   UNL     1      41.388 -14.053   0.591  1.00  0.00     0.156 A 
HETATM    9  C   UNL     1      41.939 -12.696   3.858  1.00  0.00     0.034 A 
HETATM   10  C   UNL     1      41.482 -13.682   4.743  1.00  0.00     0.032 A 
ENDROOT
BRANCH   1  11
HETATM   11  N   UNL     1      40.494 -15.779   5.295  1.00  0.00    -0.326 N 
HETATM   12  C   UNL     1      41.103 -16.589   6.223  1.00  0.00     0.235 C 
HETATM   13  O   UNL     1      40.370 -17.200   7.005  1.00  0.00    -0.272 OA
HETATM   14  H   UNL     1      39.490 -15.898   5.364  1.00  0.00     0.169 HD
BRANCH  12  15
HETATM   15  C   UNL     1      42.593 -16.842   6.286  1.00  0.00     0.068 A 
HETATM   16  C   UNL     1      43.361 -16.676   7.597  1.00  0.00     0.026 A 
HETATM   17  C   UNL     1      43.425 -15.576   6.599  1.00  0.00     0.026 A 
BRANCH  15  18
HETATM   18  C   UNL     1      43.180 -17.682   5.135  1.00  0.00    -0.039 A 
HETATM   19  C   UNL     1      43.397 -17.171   3.843  1.00  0.00     0.032 A 
HETATM   20  C   UNL     1      43.924 -17.974   2.825  1.00  0.00     0.034 A 
HETATM   21  C   UNL     1      44.238 -19.308   3.062  1.00  0.00     0.024 A 
HETATM   22 CL   UNL     1      44.184 -17.306   1.260  1.00  0.00    -0.084 Cl
HETATM   23  C   UNL     1      44.027 -19.844   4.328  1.00  0.00     0.002 A 
HETATM   24  C   UNL     1      43.508 -19.038   5.344  1.00  0.00     0.008 A 
ENDBRANCH  15  18
ENDBRANCH  12  15
ENDBRANCH   1  11
BRANCH   8  25
HETATM   25  C   UNL     1      40.948 -15.042  -0.402  1.00  0.00     0.270 C 
HETATM   26  N   UNL     1      39.949 -14.604  -1.225  1.00  0.00    -0.365 N 
HETATM   27  H   UNL     1      39.589 -13.665  -1.098  1.00  0.00     0.159 HD
HETATM   28  H   UNL     1      39.581 -15.216  -1.938  1.00  0.00     0.159 HD
HETATM   29  O   UNL     1      41.411 -16.173  -0.501  1.00  0.00    -0.266 OA
ENDBRANCH   8  25
TORSDOF 4
ENDMDL
MODEL 8
REMARK VINA RESULT:      -7.9      3.173      5.269
REMARK  4 active torsions:
REMARK  status: ('A' for Active; 'I' for Inactive)
REMARK    1  A    between atoms: C_6  and  C_7 
REMARK    2  A    between atoms: C_7  and  C_8 
REMARK       I    between atoms: C_8  and  N_9 
REMARK    3  A    between atoms: N_9  and  C_10 
REMARK    4  A    between atoms: C_17  and  C_18 
REMARK       I    between atoms: C_18  and  N_19 
ROOT
HETATM    1  C   UNL     1      41.186 -17.423   2.978  1.00  0.00     0.035 A 
HETATM    2  C   UNL     1      41.634 -17.534   4.293  1.00  0.00     0.046 A 
HETATM    3  C   UNL     1      42.803 -18.271   4.582  1.00  0.00     0.030 A 
HETATM    4  C   UNL     1      43.512 -18.842   3.535  1.00  0.00     0.063 A 
HETATM    5  N   UNL     1      44.575 -19.476   4.119  1.00  0.00    -0.277 N 
HETATM    6  H   UNL     1      45.307 -20.002   3.655  1.00  0.00     0.189 HD
HETATM    7  N   UNL     1      44.616 -19.367   5.458  1.00  0.00    -0.168 NA
HETATM    8  C   UNL     1      43.525 -18.629   5.758  1.00  0.00     0.156 A 
HETATM    9  C   UNL     1      43.123 -18.721   2.202  1.00  0.00     0.034 A 
HETATM   10  C   UNL     1      41.949 -17.998   1.950  1.00  0.00     0.032 A 
ENDROOT
BRANCH   1  11
HETATM   11  N   UNL     1      40.020 -16.750   2.582  1.00  0.00    -0.326 N 
HETATM   12  C   UNL     1      39.743 -15.547   1.980  1.00  0.00     0.235 C 
HETATM   13  O   UNL     1      38.561 -15.306   1.721  1.00  0.00    -0.272 OA
HETATM   14  H   UNL     1      39.148 -17.219   2.798  1.00  0.00     0.169 HD
BRANCH  12  15
HETATM   15  C   UNL     1      40.774 -14.477   1.698  1.00  0.00     0.068 A 
HETATM   16  C   UNL     1      40.648 -13.570   0.474  1.00  0.00     0.026 A 
HETATM   17  C   UNL     1      41.585 -14.722   0.404  1.00  0.00     0.026 A 
BRANCH  15  18
HETATM   18  C   UNL     1      41.654 -14.062   2.894  1.00  0.00    -0.039 A 
HETATM   19  C   UNL     1      41.163 -13.347   4.000  1.00  0.00     0.032 A 
HETATM   20  C   UNL     1      42.002 -12.983   5.058  1.00  0.00     0.034 A 
HETATM   21  C   UNL     1      43.353 -13.311   5.040  1.00  0.00     0.024 A 
HETATM   22 CL   UNL     1      41.358 -12.115   6.399  1.00  0.00    -0.084 Cl
HETATM   23  C   UNL     1      43.870 -14.012   3.956  1.00  0.00     0.002 A 
HETATM   24  C   UNL     1      43.029 -14.380   2.903  1.00  0.00     0.008 A 
ENDBRANCH  15  18
ENDBRANCH  12  15
ENDBRANCH   1  11
BRANCH   8  25
HETATM   25  C   UNL     1      43.183 -18.291   7.146  1.00  0.00     0.270 C 
HETATM   26  N   UNL     1      43.713 -19.140   8.077  1.00  0.00    -0.365 N 
HETATM   27  H   UNL     1      44.281 -19.917   7.761  1.00  0.00     0.159 HD
HETATM   28  H   UNL     1      43.530 -18.987   9.057  1.00  0.00     0.159 HD
HETATM   29  O   UNL     1      42.476 -17.343   7.471  1.00  0.00    -0.266 OA
ENDBRANCH   8  25
TORSDOF 4
ENDMDL
MODEL 9
REMARK VINA RESULT:      -7.9      3.844      5.797
REMARK  4 active torsions:
REMARK  status: ('A' for Active; 'I' for Inactive)
REMARK    1  A    between atoms: C_6  and  C_7 
REMARK    2  A    between atoms: C_7  and  C_8 
REMARK       I    between atoms: C_8  and  N_9 
REMARK    3  A    between atoms: N_9  and  C_10 
REMARK    4  A    between atoms: C_17  and  C_18 
REMARK       I    between atoms: C_18  and  N_19 
ROOT
HETATM    1  C   UNL     1      41.681 -17.518   3.006  1.00  0.00     0.035 A 
HETATM    2  C   UNL     1      42.383 -17.829   4.169  1.00  0.00     0.046 A 
HETATM    3  C   UNL     1      43.420 -18.787   4.134  1.00  0.00     0.030 A 
HETATM    4  C   UNL     1      43.750 -19.376   2.921  1.00  0.00     0.063 A 
HETATM    5  N   UNL     1      44.771 -20.240   3.203  1.00  0.00    -0.277 N 
HETATM    6  H   UNL     1      45.263 -20.843   2.553  1.00  0.00     0.189 HD
HETATM    7  N   UNL     1      45.135 -20.266   4.497  1.00  0.00    -0.168 NA
HETATM    8  C   UNL     1      44.305 -19.376   5.084  1.00  0.00     0.156 A 
HETATM    9  C   UNL     1      43.101 -19.063   1.727  1.00  0.00     0.034 A 
HETATM   10  C   UNL     1      42.065 -18.122   1.799  1.00  0.00     0.032 A 
ENDROOT
BRANCH   1  11
HETATM   11  N   UNL     1      40.610 -16.614   2.934  1.00  0.00    -0.326 N 
HETATM   12  C   UNL     1      40.434 -15.346   2.438  1.00  0.00     0.235 C 
HETATM   13  O   UNL     1      39.297 -14.870   2.497  1.00  0.00    -0.272 OA
HETATM   14  H   UNL     1      39.745 -16.922   3.364  1.00  0.00     0.169 HD
BRANCH  12  15
HETATM   15  C   UNL     1      41.552 -14.474   1.910  1.00  0.00     0.068 A 
HETATM   16  C   UNL     1      42.828 -14.258   2.722  1.00  0.00     0.026 A 
HETATM   17  C   UNL     1      41.790 -13.195   2.748  1.00  0.00     0.026 A 
BRANCH  15  18
HETATM   18  C   UNL     1      41.534 -14.207   0.392  1.00  0.00    -0.039 A 
HETATM   19  C   UNL     1      41.069 -15.143  -0.548  1.00  0.00     0.032 A 
HETATM   20  C   UNL     1      41.081 -14.861  -1.919  1.00  0.00     0.034 A 
HETATM   21  C   UNL     1      41.567 -13.646  -2.391  1.00  0.00     0.024 A 
HETATM   22 CL   UNL     1      40.493 -16.031  -3.037  1.00  0.00    -0.084 Cl
HETATM   23  C   UNL     1      42.041 -12.703  -1.485  1.00  0.00     0.002 A 
HETATM   24  C   UNL     1      42.021 -12.984  -0.117  1.00  0.00     0.008 A 
ENDBRANCH  15  18
ENDBRANCH  12  15
ENDBRANCH   1  11
BRANCH   8  25
HETATM   25  C   UNL     1      44.357 -19.113   6.529  1.00  0.00     0.270 C 
HETATM   26  N   UNL     1      45.232 -18.127   6.888  1.00  0.00    -0.365 N 
HETATM   27  H   UNL     1      45.769 -17.663   6.164  1.00  0.00     0.159 HD
HETATM   28  H   UNL     1      45.336 -17.878   7.860  1.00  0.00     0.159 HD
HETATM   29  O   UNL     1      43.693 -19.718   7.364  1.00  0.00    -0.266 OA
ENDBRANCH   8  25
TORSDOF 4
ENDMDL
MODEL 10
REMARK VINA RESULT:      -7.8      3.230      4.812
REMARK  4 active torsions:
REMARK  status: ('A' for Active; 'I' for Inactive)
REMARK    1  A    between atoms: C_6  and  C_7 
REMARK    2  A    between atoms: C_7  and  C_8 
REMARK       I    between atoms: C_8  and  N_9 
REMARK    3  A    between atoms: N_9  and  C_10 
REMARK    4  A    between atoms: C_17  and  C_18 
REMARK       I    between atoms: C_18  and  N_19 
ROOT
HETATM    1  C   UNL     1      40.889 -14.933   1.946  1.00  0.00     0.035 A 
HETATM    2  C   UNL     1      40.387 -14.486   3.167  1.00  0.00     0.046 A 
HETATM    3  C   UNL     1      40.736 -13.205   3.648  1.00  0.00     0.030 A 
HETATM    4  C   UNL     1      41.547 -12.393   2.868  1.00  0.00     0.063 A 
HETATM    5  N   UNL     1      41.702 -11.238   3.585  1.00  0.00    -0.277 N 
HETATM    6  H   UNL     1      42.236 -10.418   3.321  1.00  0.00     0.189 HD
HETATM    7  N   UNL     1      41.062 -11.230   4.768  1.00  0.00    -0.168 NA
HETATM    8  C   UNL     1      40.464 -12.441   4.821  1.00  0.00     0.156 A 
HETATM    9  C   UNL     1      42.037 -12.784   1.623  1.00  0.00     0.034 A 
HETATM   10  C   UNL     1      41.687 -14.068   1.182  1.00  0.00     0.032 A 
ENDROOT
BRANCH   1  11
HETATM   11  N   UNL     1      40.641 -16.198   1.393  1.00  0.00    -0.326 N 
HETATM   12  C   UNL     1      41.269 -17.419   1.427  1.00  0.00     0.235 C 
HETATM   13  O   UNL     1      40.711 -18.357   0.851  1.00  0.00    -0.272 OA
HETATM   14  H   UNL     1      39.826 -16.265   0.795  1.00  0.00     0.169 HD
BRANCH  12  15
HETATM   15  C   UNL     1      42.629 -17.662   2.045  1.00  0.00     0.068 A 
HETATM   16  C   UNL     1      43.907 -17.442   1.237  1.00  0.00     0.026 A 
HETATM   17  C   UNL     1      43.406 -18.832   1.395  1.00  0.00     0.026 A 
BRANCH  15  18
HETATM   18  C   UNL     1      42.670 -17.692   3.585  1.00  0.00    -0.039 A 
HETATM   19  C   UNL     1      43.863 -17.801   4.321  1.00  0.00     0.032 A 
HETATM   20  C   UNL     1      43.852 -17.833   5.720  1.00  0.00     0.034 A 
HETATM   21  C   UNL     1      42.654 -17.770   6.423  1.00  0.00     0.024 A 
HETATM   22 CL   UNL     1      45.337 -17.957   6.583  1.00  0.00    -0.084 Cl
HETATM   23  C   UNL     1      41.457 -17.669   5.723  1.00  0.00     0.002 A 
HETATM   24  C   UNL     1      41.471 -17.630   4.327  1.00  0.00     0.008 A 
ENDBRANCH  15  18
ENDBRANCH  12  15
ENDBRANCH   1  11
BRANCH   8  25
HETATM   25  C   UNL     1      39.664 -12.853   5.982  1.00  0.00     0.270 C 
HETATM   26  N   UNL     1      40.045 -14.045   6.531  1.00  0.00    -0.365 N 
HETATM   27  H   UNL     1      40.821 -14.548   6.116  1.00  0.00     0.159 HD
HETATM   28  H   UNL     1      39.551 -14.409   7.332  1.00  0.00     0.159 HD
HETATM   29  O   UNL     1      38.723 -12.209   6.435  1.00  0.00    -0.266 OA
ENDBRANCH   8  25
TORSDOF 4
ENDMDL
