MODEL 1
REMARK VINA RESULT:      -6.4      0.000      0.000
REMARK  2 active torsions:
REMARK  status: ('A' for Active; 'I' for Inactive)
REMARK    1  A    between atoms: N_6  and  C_7 
REMARK    2  A    between atoms: C_12  and  N_13 
ROOT
HETATM    1  C   UNL     1      43.618 -18.159   5.110  1.00  0.00     0.070 A 
HETATM    2  C   UNL     1      44.115 -19.438   5.461  1.00  0.00     0.162 A 
HETATM    3  F   UNL     1      44.456 -19.676   6.740  1.00  0.00    -0.202 F 
HETATM    4  C   UNL     1      44.311 -20.462   4.523  1.00  0.00     0.084 A 
HETATM    5 BR   UNL     1      44.957 -22.138   5.137  1.00  0.00    -0.045 Br
HETATM    6  C   UNL     1      44.002 -20.202   3.194  1.00  0.00     0.123 A 
HETATM    7  C   UNL     1      43.495 -18.963   2.795  1.00  0.00     0.040 A 
HETATM    8  C   UNL     1      43.304 -17.960   3.751  1.00  0.00     0.035 A 
ENDROOT
BRANCH   1   9
HETATM    9  N   UNL     1      43.377 -17.128   6.025  1.00  0.00    -0.375 N 
HETATM   10  C   UNL     1      42.251 -17.274   6.973  1.00  0.00     0.150 C 
HETATM   11  C   UNL     1      41.001 -16.520   6.465  1.00  0.00     0.254 C 
HETATM   12  N   UNL     1      41.336 -15.059   6.167  1.00  0.00    -0.072 N 
HETATM   13  C   UNL     1      40.133 -14.289   5.709  1.00  0.00     0.269 C 
HETATM   14  H   UNL     1      41.658 -14.633   7.046  1.00  0.00     0.279 HD
HETATM   15  C   UNL     1      42.495 -14.953   5.169  1.00  0.00     0.254 C 
HETATM   16  C   UNL     1      43.721 -15.728   5.699  1.00  0.00     0.150 C 
ENDBRANCH   1   9
BRANCH   6  17
HETATM   17  N   UNL     1      44.205 -21.201   2.171  1.00  0.00    -0.114 N 
HETATM   18  O   UNL     1      45.373 -21.410   1.820  1.00  0.00    -0.532 OA
HETATM   19  O   UNL     1      43.191 -21.726   1.696  1.00  0.00    -0.532 OA
ENDBRANCH   6  17
TORSDOF 2
ENDMDL
MODEL 2
REMARK VINA RESULT:      -6.3      3.694      4.521
REMARK  2 active torsions:
REMARK  status: ('A' for Active; 'I' for Inactive)
REMARK    1  A    between atoms: N_6  and  C_7 
REMARK    2  A    between atoms: C_12  and  N_13 
ROOT
HETATM    1  C   UNL     1      42.224 -17.693   2.967  1.00  0.00     0.070 A 
HETATM    2  C   UNL     1      43.044 -18.844   3.051  1.00  0.00     0.162 A 
HETATM    3  F   UNL     1      43.037 -19.724   2.034  1.00  0.00    -0.202 F 
HETATM    4  C   UNL     1      43.835 -19.135   4.171  1.00  0.00     0.084 A 
HETATM    5 BR   UNL     1      44.909 -20.700   4.138  1.00  0.00    -0.045 Br
HETATM    6  C   UNL     1      43.807 -18.250   5.242  1.00  0.00     0.123 A 
HETATM    7  C   UNL     1      43.028 -17.091   5.206  1.00  0.00     0.040 A 
HETATM    8  C   UNL     1      42.251 -16.822   4.074  1.00  0.00     0.035 A 
ENDROOT
BRANCH   1   9
HETATM    9  N   UNL     1      41.451 -17.355   1.850  1.00  0.00    -0.375 N 
HETATM   10  C   UNL     1      42.129 -16.772   0.672  1.00  0.00     0.150 C 
HETATM   11  C   UNL     1      42.008 -15.230   0.673  1.00  0.00     0.254 C 
HETATM   12  N   UNL     1      40.544 -14.804   0.783  1.00  0.00    -0.072 N 
HETATM   13  C   UNL     1      40.389 -13.313   0.746  1.00  0.00     0.269 C 
HETATM   14  H   UNL     1      40.052 -15.185  -0.036  1.00  0.00     0.279 HD
HETATM   15  C   UNL     1      39.885 -15.416   2.024  1.00  0.00     0.254 C 
HETATM   16  C   UNL     1      40.036 -16.952   2.000  1.00  0.00     0.150 C 
ENDBRANCH   1   9
BRANCH   6  17
HETATM   17  N   UNL     1      44.575 -18.501   6.438  1.00  0.00    -0.114 N 
HETATM   18  O   UNL     1      44.032 -19.182   7.317  1.00  0.00    -0.532 OA
HETATM   19  O   UNL     1      45.690 -17.970   6.505  1.00  0.00    -0.532 OA
ENDBRANCH   6  17
TORSDOF 2
ENDMDL
MODEL 3
REMARK VINA RESULT:      -6.3      2.980      3.574
REMARK  2 active torsions:
REMARK  status: ('A' for Active; 'I' for Inactive)
REMARK    1  A    between atoms: N_6  and  C_7 
REMARK    2  A    between atoms: C_12  and  N_13 
ROOT
HETATM    1  C   UNL     1      43.711 -17.840   3.204  1.00  0.00     0.070 A 
HETATM    2  C   UNL     1      43.851 -19.093   2.561  1.00  0.00     0.162 A 
HETATM    3  F   UNL     1      43.622 -19.176   1.238  1.00  0.00    -0.202 F 
HETATM    4  C   UNL     1      44.176 -20.271   3.250  1.00  0.00     0.084 A 
HETATM    5 BR   UNL     1      44.360 -21.878   2.257  1.00  0.00    -0.045 Br
HETATM    6  C   UNL     1      44.366 -20.195   4.624  1.00  0.00     0.123 A 
HETATM    7  C   UNL     1      44.256 -18.981   5.307  1.00  0.00     0.040 A 
HETATM    8  C   UNL     1      43.935 -17.821   4.595  1.00  0.00     0.035 A 
ENDROOT
BRANCH   1   9
HETATM    9  N   UNL     1      43.423 -16.641   2.541  1.00  0.00    -0.375 N 
HETATM   10  C   UNL     1      43.044 -15.461   3.349  1.00  0.00     0.150 C 
HETATM   11  C   UNL     1      41.508 -15.294   3.395  1.00  0.00     0.254 C 
HETATM   12  N   UNL     1      40.927 -15.253   1.981  1.00  0.00    -0.072 N 
HETATM   13  C   UNL     1      39.441 -15.051   1.991  1.00  0.00     0.269 C 
HETATM   14  H   UNL     1      41.345 -14.444   1.502  1.00  0.00     0.279 HD
HETATM   15  C   UNL     1      41.329 -16.499   1.186  1.00  0.00     0.254 C 
HETATM   16  C   UNL     1      42.866 -16.646   1.172  1.00  0.00     0.150 C 
ENDBRANCH   1   9
BRANCH   6  17
HETATM   17  N   UNL     1      44.676 -21.372   5.400  1.00  0.00    -0.114 N 
HETATM   18  O   UNL     1      43.982 -21.576   6.404  1.00  0.00    -0.532 OA
HETATM   19  O   UNL     1      45.642 -22.047   5.026  1.00  0.00    -0.532 OA
ENDBRANCH   6  17
TORSDOF 2
ENDMDL
MODEL 4
REMARK VINA RESULT:      -6.3      2.225      2.665
REMARK  2 active torsions:
REMARK  status: ('A' for Active; 'I' for Inactive)
REMARK    1  A    between atoms: N_6  and  C_7 
REMARK    2  A    between atoms: C_12  and  N_13 
ROOT
HETATM    1  C   UNL     1      43.159 -17.301   5.301  1.00  0.00     0.070 A 
HETATM    2  C   UNL     1      43.286 -17.039   3.915  1.00  0.00     0.162 A 
HETATM    3  F   UNL     1      43.005 -15.806   3.457  1.00  0.00    -0.202 F 
HETATM    4  C   UNL     1      43.653 -18.022   2.985  1.00  0.00     0.084 A 
HETATM    5 BR   UNL     1      43.815 -17.525   1.161  1.00  0.00    -0.045 Br
HETATM    6  C   UNL     1      43.898 -19.307   3.453  1.00  0.00     0.123 A 
HETATM    7  C   UNL     1      43.802 -19.618   4.811  1.00  0.00     0.040 A 
HETATM    8  C   UNL     1      43.439 -18.617   5.719  1.00  0.00     0.035 A 
ENDROOT
BRANCH   1   9
HETATM    9  N   UNL     1      42.830 -16.335   6.260  1.00  0.00    -0.375 N 
HETATM   10  C   UNL     1      41.410 -15.956   6.421  1.00  0.00     0.150 C 
HETATM   11  C   UNL     1      41.094 -14.657   5.643  1.00  0.00     0.254 C 
HETATM   12  N   UNL     1      42.053 -13.538   6.048  1.00  0.00    -0.072 N 
HETATM   13  C   UNL     1      41.747 -12.253   5.340  1.00  0.00     0.269 C 
HETATM   14  H   UNL     1      41.924 -13.374   7.056  1.00  0.00     0.279 HD
HETATM   15  C   UNL     1      43.511 -13.967   5.850  1.00  0.00     0.254 C 
HETATM   16  C   UNL     1      43.790 -15.272   6.626  1.00  0.00     0.150 C 
ENDBRANCH   1   9
BRANCH   6  17
HETATM   17  N   UNL     1      44.253 -20.375   2.547  1.00  0.00    -0.114 N 
HETATM   18  O   UNL     1      43.329 -20.891   1.905  1.00  0.00    -0.532 OA
HETATM   19  O   UNL     1      45.441 -20.719   2.530  1.00  0.00    -0.532 OA
ENDBRANCH   6  17
TORSDOF 2
ENDMDL
MODEL 5
REMARK VINA RESULT:      -6.1      1.601      1.968
REMARK  2 active torsions:
REMARK  status: ('A' for Active; 'I' for Inactive)
REMARK    1  A    between atoms: N_6  and  C_7 
REMARK    2  A    between atoms: C_12  and  N_13 
ROOT
HETATM    1  C   UNL     1      43.492 -17.331   3.574  1.00  0.00     0.070 A 
HETATM    2  C   UNL     1      44.003 -18.403   4.344  1.00  0.00     0.162 A 
HETATM    3  F   UNL     1      44.424 -18.161   5.599  1.00  0.00    -0.202 F 
HETATM    4  C   UNL     1      44.133 -19.706   3.843  1.00  0.00     0.084 A 
HETATM    5 BR   UNL     1      44.807 -21.055   4.996  1.00  0.00    -0.045 Br
HETATM    6  C   UNL     1      43.741 -19.946   2.532  1.00  0.00     0.123 A 
HETATM    7  C   UNL     1      43.216 -18.929   1.732  1.00  0.00     0.040 A 
HETATM    8  C   UNL     1      43.093 -17.638   2.258  1.00  0.00     0.035 A 
ENDROOT
BRANCH   1   9
HETATM    9  N   UNL     1      43.316 -16.028   4.055  1.00  0.00    -0.375 N 
HETATM   10  C   UNL     1      42.342 -15.803   5.145  1.00  0.00     0.150 C 
HETATM   11  C   UNL     1      40.990 -15.308   4.583  1.00  0.00     0.254 C 
HETATM   12  N   UNL     1      41.189 -14.072   3.706  1.00  0.00    -0.072 N 
HETATM   13  C   UNL     1      39.889 -13.543   3.178  1.00  0.00     0.269 C 
HETATM   14  H   UNL     1      41.602 -13.340   4.299  1.00  0.00     0.279 HD
HETATM   15  C   UNL     1      42.191 -14.353   2.581  1.00  0.00     0.254 C 
HETATM   16  C   UNL     1      43.524 -14.859   3.174  1.00  0.00     0.150 C 
ENDBRANCH   1   9
BRANCH   6  17
HETATM   17  N   UNL     1      43.873 -21.258   1.942  1.00  0.00    -0.114 N 
HETATM   18  O   UNL     1      42.825 -21.881   1.729  1.00  0.00    -0.532 OA
HETATM   19  O   UNL     1      45.023 -21.669   1.750  1.00  0.00    -0.532 OA
ENDBRANCH   6  17
TORSDOF 2
ENDMDL
MODEL 6
REMARK VINA RESULT:      -6.1      2.620      3.341
REMARK  2 active torsions:
REMARK  status: ('A' for Active; 'I' for Inactive)
REMARK    1  A    between atoms: N_6  and  C_7 
REMARK    2  A    between atoms: C_12  and  N_13 
ROOT
HETATM    1  C   UNL     1      42.747 -16.965   3.620  1.00  0.00     0.070 A 
HETATM    2  C   UNL     1      42.850 -18.109   2.793  1.00  0.00     0.162 A 
HETATM    3  F   UNL     1      42.258 -18.095   1.585  1.00  0.00    -0.202 F 
HETATM    4  C   UNL     1      43.508 -19.281   3.193  1.00  0.00     0.084 A 
HETATM    5 BR   UNL     1      43.596 -20.731   1.971  1.00  0.00    -0.045 Br
HETATM    6  C   UNL     1      44.080 -19.312   4.459  1.00  0.00     0.123 A 
HETATM    7  C   UNL     1      44.022 -18.206   5.310  1.00  0.00     0.040 A 
HETATM    8  C   UNL     1      43.364 -17.048   4.885  1.00  0.00     0.035 A 
ENDROOT
BRANCH   1   9
HETATM    9  N   UNL     1      42.129 -15.768   3.238  1.00  0.00    -0.375 N 
HETATM   10  C   UNL     1      42.982 -14.598   2.939  1.00  0.00     0.150 C 
HETATM   11  C   UNL     1      43.068 -13.651   4.158  1.00  0.00     0.254 C 
HETATM   12  N   UNL     1      41.671 -13.256   4.635  1.00  0.00    -0.072 N 
HETATM   13  C   UNL     1      41.721 -12.306   5.794  1.00  0.00     0.269 C 
HETATM   14  H   UNL     1      41.208 -12.769   3.857  1.00  0.00     0.279 HD
HETATM   15  C   UNL     1      40.828 -14.497   4.950  1.00  0.00     0.254 C 
HETATM   16  C   UNL     1      40.774 -15.427   3.719  1.00  0.00     0.150 C 
ENDBRANCH   1   9
BRANCH   6  17
HETATM   17  N   UNL     1      44.750 -20.495   4.946  1.00  0.00    -0.114 N 
HETATM   18  O   UNL     1      44.194 -21.111   5.864  1.00  0.00    -0.532 OA
HETATM   19  O   UNL     1      45.846 -20.763   4.441  1.00  0.00    -0.532 OA
ENDBRANCH   6  17
TORSDOF 2
ENDMDL
MODEL 7
REMARK VINA RESULT:      -6.0      4.296      5.473
REMARK  2 active torsions:
REMARK  status: ('A' for Active; 'I' for Inactive)
REMARK    1  A    between atoms: N_6  and  C_7 
REMARK    2  A    between atoms: C_12  and  N_13 
ROOT
HETATM    1  C   UNL     1      41.645 -16.698   3.674  1.00  0.00     0.070 A 
HETATM    2  C   UNL     1      42.596 -17.606   4.199  1.00  0.00     0.162 A 
HETATM    3  F   UNL     1      42.707 -18.827   3.646  1.00  0.00    -0.202 F 
HETATM    4  C   UNL     1      43.406 -17.305   5.305  1.00  0.00     0.084 A 
HETATM    5 BR   UNL     1      44.661 -18.605   5.886  1.00  0.00    -0.045 Br
HETATM    6  C   UNL     1      43.259 -16.061   5.906  1.00  0.00     0.123 A 
HETATM    7  C   UNL     1      42.347 -15.122   5.420  1.00  0.00     0.040 A 
HETATM    8  C   UNL     1      41.555 -15.445   4.312  1.00  0.00     0.035 A 
ENDROOT
BRANCH   1   9
HETATM    9  N   UNL     1      40.848 -16.952   2.552  1.00  0.00    -0.375 N 
HETATM   10  C   UNL     1      41.464 -17.623   1.387  1.00  0.00     0.150 C 
HETATM   11  C   UNL     1      41.879 -16.592   0.312  1.00  0.00     0.254 C 
HETATM   12  N   UNL     1      40.693 -15.708  -0.075  1.00  0.00    -0.072 N 
HETATM   13  C   UNL     1      41.054 -14.722  -1.145  1.00  0.00     0.269 C 
HETATM   14  H   UNL     1      39.964 -16.325  -0.456  1.00  0.00     0.279 HD
HETATM   15  C   UNL     1      40.097 -15.020   1.158  1.00  0.00     0.254 C 
HETATM   16  C   UNL     1      39.707 -16.074   2.217  1.00  0.00     0.150 C 
ENDBRANCH   1   9
BRANCH   6  17
HETATM   17  N   UNL     1      44.040 -15.696   7.064  1.00  0.00    -0.114 N 
HETATM   18  O   UNL     1      43.727 -16.227   8.137  1.00  0.00    -0.532 OA
HETATM   19  O   UNL     1      44.921 -14.844   6.896  1.00  0.00    -0.532 OA
ENDBRANCH   6  17
TORSDOF 2
ENDMDL
MODEL 8
REMARK VINA RESULT:      -6.0      2.318      2.962
REMARK  2 active torsions:
REMARK  status: ('A' for Active; 'I' for Inactive)
REMARK    1  A    between atoms: N_6  and  C_7 
REMARK    2  A    between atoms: C_12  and  N_13 
ROOT
HETATM    1  C   UNL     1      43.184 -16.348   2.864  1.00  0.00     0.070 A 
HETATM    2  C   UNL     1      43.160 -17.033   4.103  1.00  0.00     0.162 A 
HETATM    3  F   UNL     1      42.752 -16.375   5.203  1.00  0.00    -0.202 F 
HETATM    4  C   UNL     1      43.584 -18.362   4.247  1.00  0.00     0.084 A 
HETATM    5 BR   UNL     1      43.470 -19.167   5.962  1.00  0.00    -0.045 Br
HETATM    6  C   UNL     1      44.049 -19.027   3.119  1.00  0.00     0.123 A 
HETATM    7  C   UNL     1      44.081 -18.405   1.869  1.00  0.00     0.040 A 
HETATM    8  C   UNL     1      43.646 -17.080   1.752  1.00  0.00     0.035 A 
ENDROOT
BRANCH   1   9
HETATM    9  N   UNL     1      42.734 -15.036   2.680  1.00  0.00    -0.375 N 
HETATM   10  C   UNL     1      43.541 -13.929   3.238  1.00  0.00     0.150 C 
HETATM   11  C   UNL     1      42.973 -13.465   4.599  1.00  0.00     0.254 C 
HETATM   12  N   UNL     1      41.491 -13.111   4.474  1.00  0.00    -0.072 N 
HETATM   13  C   UNL     1      40.921 -12.619   5.770  1.00  0.00     0.269 C 
HETATM   14  H   UNL     1      41.416 -12.344   3.793  1.00  0.00     0.279 HD
HETATM   15  C   UNL     1      40.691 -14.290   3.909  1.00  0.00     0.254 C 
HETATM   16  C   UNL     1      41.292 -14.738   2.559  1.00  0.00     0.150 C 
ENDBRANCH   1   9
BRANCH   6  17
HETATM   17  N   UNL     1      44.528 -20.388   3.200  1.00  0.00    -0.114 N 
HETATM   18  O   UNL     1      45.479 -20.599   3.962  1.00  0.00    -0.532 OA
HETATM   19  O   UNL     1      43.981 -21.215   2.461  1.00  0.00    -0.532 OA
ENDBRANCH   6  17
TORSDOF 2
ENDMDL
MODEL 9
REMARK VINA RESULT:      -5.9      1.776      2.123
REMARK  2 active torsions:
REMARK  status: ('A' for Active; 'I' for Inactive)
REMARK    1  A    between atoms: N_6  and  C_7 
REMARK    2  A    between atoms: C_12  and  N_13 
ROOT
HETATM    1  C   UNL     1      42.872 -16.789   5.558  1.00  0.00     0.070 A 
HETATM    2  C   UNL     1      43.017 -17.966   6.333  1.00  0.00     0.162 A 
HETATM    3  F   UNL     1      42.645 -17.944   7.625  1.00  0.00    -0.202 F 
HETATM    4  C   UNL     1      43.574 -19.148   5.825  1.00  0.00     0.084 A 
HETATM    5 BR   UNL     1      43.681 -20.661   6.967  1.00  0.00    -0.045 Br
HETATM    6  C   UNL     1      44.001 -19.157   4.503  1.00  0.00     0.123 A 
HETATM    7  C   UNL     1      43.868 -18.029   3.689  1.00  0.00     0.040 A 
HETATM    8  C   UNL     1      43.304 -16.864   4.219  1.00  0.00     0.035 A 
ENDROOT
BRANCH   1   9
HETATM    9  N   UNL     1      42.289 -15.605   6.023  1.00  0.00    -0.375 N 
HETATM   10  C   UNL     1      40.820 -15.459   5.932  1.00  0.00     0.150 C 
HETATM   11  C   UNL     1      40.423 -14.645   4.679  1.00  0.00     0.254 C 
HETATM   12  N   UNL     1      41.153 -13.301   4.655  1.00  0.00    -0.072 N 
HETATM   13  C   UNL     1      40.759 -12.470   3.471  1.00  0.00     0.269 C 
HETATM   14  H   UNL     1      40.873 -12.786   5.500  1.00  0.00     0.279 HD
HETATM   15  C   UNL     1      42.670 -13.499   4.734  1.00  0.00     0.254 C 
HETATM   16  C   UNL     1      43.031 -14.328   5.986  1.00  0.00     0.150 C 
ENDBRANCH   1   9
BRANCH   6  17
HETATM   17  N   UNL     1      44.608 -20.331   3.923  1.00  0.00    -0.114 N 
HETATM   18  O   UNL     1      45.710 -20.670   4.374  1.00  0.00    -0.532 OA
HETATM   19  O   UNL     1      44.002 -20.868   2.988  1.00  0.00    -0.532 OA
ENDBRANCH   6  17
TORSDOF 2
ENDMDL
MODEL 10
REMARK VINA RESULT:      -5.8      3.032      3.583
REMARK  2 active torsions:
REMARK  status: ('A' for Active; 'I' for Inactive)
REMARK    1  A    between atoms: N_6  and  C_7 
REMARK    2  A    between atoms: C_12  and  N_13 
ROOT
HETATM    1  C   UNL     1      42.163 -17.296   3.171  1.00  0.00     0.070 A 
HETATM    2  C   UNL     1      42.489 -17.829   4.442  1.00  0.00     0.162 A 
HETATM    3  F   UNL     1      42.018 -17.219   5.544  1.00  0.00    -0.202 F 
HETATM    4  C   UNL     1      43.321 -18.946   4.608  1.00  0.00     0.084 A 
HETATM    5 BR   UNL     1      43.651 -19.572   6.370  1.00  0.00    -0.045 Br
HETATM    6  C   UNL     1      43.845 -19.548   3.472  1.00  0.00     0.123 A 
HETATM    7  C   UNL     1      43.544 -19.073   2.193  1.00  0.00     0.040 A 
HETATM    8  C   UNL     1      42.708 -17.961   2.054  1.00  0.00     0.035 A 
ENDROOT
BRANCH   1   9
HETATM    9  N   UNL     1      41.308 -16.206   2.968  1.00  0.00    -0.375 N 
HETATM   10  C   UNL     1      40.330 -16.274   1.861  1.00  0.00     0.150 C 
HETATM   11  C   UNL     1      40.857 -15.530   0.613  1.00  0.00     0.254 C 
HETATM   12  N   UNL     1      41.252 -14.095   0.966  1.00  0.00    -0.072 N 
HETATM   13  C   UNL     1      41.731 -13.334  -0.234  1.00  0.00     0.269 C 
HETATM   14  H   UNL     1      40.407 -13.623   1.314  1.00  0.00     0.279 HD
HETATM   15  C   UNL     1      42.278 -14.073   2.104  1.00  0.00     0.254 C 
HETATM   16  C   UNL     1      41.728 -14.836   3.328  1.00  0.00     0.150 C 
ENDBRANCH   1   9
BRANCH   6  17
HETATM   17  N   UNL     1      44.731 -20.684   3.571  1.00  0.00    -0.114 N 
HETATM   18  O   UNL     1      44.355 -21.733   3.032  1.00  0.00    -0.532 OA
HETATM   19  O   UNL     1      45.765 -20.528   4.231  1.00  0.00    -0.532 OA
ENDBRANCH   6  17
TORSDOF 2
ENDMDL
