MODEL 1
REMARK VINA RESULT:      -8.1      0.000      0.000
REMARK  4 active torsions:
REMARK  status: ('A' for Active; 'I' for Inactive)
REMARK    1  A    between atoms: C_9  and  C_10 
REMARK    2  A    between atoms: C_18  and  C_19 
REMARK       I    between atoms: C_19  and  N_20 
REMARK    3  A    between atoms: N_20  and  C_21 
REMARK    4  A    between atoms: C_24  and  O_25 
ROOT
HETATM    1  C   UNL     1      41.239 -15.746  -0.926  1.00  0.00     0.070 C 
HETATM    2  C   UNL     1      41.045 -14.852   0.272  1.00  0.00     0.037 A 
HETATM    3  N   UNL     1      40.747 -13.523  -0.014  1.00  0.00    -0.192 N 
HETATM    4  C   UNL     1      40.404 -12.620   0.924  1.00  0.00     0.725 A 
HETATM    5  N   UNL     1      40.422 -12.982   2.244  1.00  0.00    -0.084 N 
HETATM    6  N   UNL     1      39.974 -11.983   3.034  1.00  0.00    -0.149 NA
HETATM    7  C   UNL     1      39.756 -11.029   2.122  1.00  0.00     0.275 A 
HETATM    8  N   UNL     1      40.003 -11.379   0.819  1.00  0.00    -0.054 NA
HETATM    9  C   UNL     1      40.757 -14.330   2.719  1.00  0.00     0.204 A 
HETATM   10  C   UNL     1      41.083 -15.267   1.563  1.00  0.00     0.062 A 
HETATM   11  H   UNL     1      40.679 -13.251  -0.992  1.00  0.00     0.184 HD
ENDROOT
BRANCH  10  12
HETATM   12  C   UNL     1      41.317 -16.672   1.984  1.00  0.00     0.256 C 
HETATM   13  N   UNL     1      42.648 -16.986   2.138  1.00  0.00    -0.323 N 
HETATM   14  H   UNL     1      43.321 -16.252   1.951  1.00  0.00     0.169 HD
HETATM   15  O   UNL     1      40.345 -17.383   2.207  1.00  0.00    -0.267 OA
BRANCH  13  16
HETATM   16  C   UNL     1      43.188 -18.231   2.526  1.00  0.00     0.035 A 
HETATM   17  C   UNL     1      43.213 -19.359   1.707  1.00  0.00     0.032 A 
HETATM   18  C   UNL     1      43.775 -20.556   2.166  1.00  0.00     0.039 A 
HETATM   19  C   UNL     1      44.328 -20.644   3.442  1.00  0.00     0.068 A 
HETATM   20  C   UNL     1      44.303 -19.521   4.268  1.00  0.00     0.039 A 
HETATM   21  C   UNL     1      43.733 -18.325   3.812  1.00  0.00     0.032 A 
BRANCH  19  22
HETATM   22  O   UNL     1      44.849 -21.868   3.757  1.00  0.00    -0.356 OA
HETATM   23  C   UNL     1      45.033 -22.156   5.136  1.00  0.00     0.210 C 
ENDBRANCH  19  22
ENDBRANCH  13  16
ENDBRANCH  10  12
BRANCH   9  24
HETATM   24  C   UNL     1      41.829 -14.282   3.809  1.00  0.00    -0.006 A 
HETATM   25  C   UNL     1      41.617 -14.644   5.153  1.00  0.00     0.044 A 
HETATM   26 CL   UNL     1      40.077 -15.143   5.753  1.00  0.00    -0.084 Cl
HETATM   27  C   UNL     1      42.661 -14.587   6.084  1.00  0.00     0.048 A 
HETATM   28  C   UNL     1      43.922 -14.155   5.690  1.00  0.00     0.035 A 
HETATM   29 CL   UNL     1      45.199 -14.084   6.841  1.00  0.00    -0.084 Cl
HETATM   30  C   UNL     1      44.156 -13.774   4.375  1.00  0.00     0.024 A 
HETATM   31  C   UNL     1      43.117 -13.838   3.442  1.00  0.00     0.013 A 
ENDBRANCH   9  24
TORSDOF 4
ENDMDL
MODEL 2
REMARK VINA RESULT:      -8.0      3.346      7.611
REMARK  4 active torsions:
REMARK  status: ('A' for Active; 'I' for Inactive)
REMARK    1  A    between atoms: C_9  and  C_10 
REMARK    2  A    between atoms: C_18  and  C_19 
REMARK       I    between atoms: C_19  and  N_20 
REMARK    3  A    between atoms: N_20  and  C_21 
REMARK    4  A    between atoms: C_24  and  O_25 
ROOT
HETATM    1  C   UNL     1      44.564 -17.297   6.682  1.00  0.00     0.070 C 
HETATM    2  C   UNL     1      43.984 -17.828   5.396  1.00  0.00     0.037 A 
HETATM    3  N   UNL     1      44.747 -18.797   4.750  1.00  0.00    -0.192 N 
HETATM    4  C   UNL     1      44.319 -19.481   3.671  1.00  0.00     0.725 A 
HETATM    5  N   UNL     1      43.109 -19.168   3.113  1.00  0.00    -0.084 N 
HETATM    6  N   UNL     1      42.806 -20.004   2.096  1.00  0.00    -0.149 NA
HETATM    7  C   UNL     1      43.908 -20.762   2.066  1.00  0.00     0.275 A 
HETATM    8  N   UNL     1      44.857 -20.477   3.014  1.00  0.00    -0.054 NA
HETATM    9  C   UNL     1      42.203 -18.142   3.642  1.00  0.00     0.204 A 
HETATM   10  C   UNL     1      42.779 -17.473   4.884  1.00  0.00     0.062 A 
HETATM   11  H   UNL     1      45.624 -19.077   5.181  1.00  0.00     0.184 HD
ENDROOT
BRANCH  10  12
HETATM   12  C   UNL     1      41.849 -16.507   5.525  1.00  0.00     0.256 C 
HETATM   13  N   UNL     1      42.006 -15.214   5.080  1.00  0.00    -0.323 N 
HETATM   14  H   UNL     1      42.722 -15.049   4.382  1.00  0.00     0.169 HD
HETATM   15  O   UNL     1      41.018 -16.936   6.315  1.00  0.00    -0.267 OA
BRANCH  13  16
HETATM   16  C   UNL     1      41.278 -14.080   5.495  1.00  0.00     0.035 A 
HETATM   17  C   UNL     1      39.886 -14.006   5.501  1.00  0.00     0.032 A 
HETATM   18  C   UNL     1      39.240 -12.843   5.938  1.00  0.00     0.039 A 
HETATM   19  C   UNL     1      39.969 -11.742   6.383  1.00  0.00     0.068 A 
HETATM   20  C   UNL     1      41.362 -11.808   6.376  1.00  0.00     0.039 A 
HETATM   21  C   UNL     1      42.009 -12.968   5.931  1.00  0.00     0.032 A 
BRANCH  19  22
HETATM   22  O   UNL     1      39.212 -10.679   6.788  1.00  0.00    -0.356 OA
HETATM   23  C   UNL     1      39.536 -10.096   8.043  1.00  0.00     0.210 C 
ENDBRANCH  19  22
ENDBRANCH  13  16
ENDBRANCH  10  12
BRANCH   9  24
HETATM   24  C   UNL     1      41.770 -17.167   2.547  1.00  0.00    -0.006 A 
HETATM   25  C   UNL     1      42.645 -16.571   1.619  1.00  0.00     0.044 A 
HETATM   26 CL   UNL     1      44.351 -16.832   1.642  1.00  0.00    -0.084 Cl
HETATM   27  C   UNL     1      42.161 -15.699   0.635  1.00  0.00     0.048 A 
HETATM   28  C   UNL     1      40.804 -15.403   0.574  1.00  0.00     0.035 A 
HETATM   29 CL   UNL     1      40.217 -14.330  -0.635  1.00  0.00    -0.084 Cl
HETATM   30  C   UNL     1      39.920 -15.964   1.489  1.00  0.00     0.024 A 
HETATM   31  C   UNL     1      40.400 -16.839   2.466  1.00  0.00     0.013 A 
ENDBRANCH   9  24
TORSDOF 4
ENDMDL
MODEL 3
REMARK VINA RESULT:      -7.9      2.726      6.633
REMARK  4 active torsions:
REMARK  status: ('A' for Active; 'I' for Inactive)
REMARK    1  A    between atoms: C_9  and  C_10 
REMARK    2  A    between atoms: C_18  and  C_19 
REMARK       I    between atoms: C_19  and  N_20 
REMARK    3  A    between atoms: N_20  and  C_21 
REMARK    4  A    between atoms: C_24  and  O_25 
ROOT
HETATM    1  C   UNL     1      43.363 -19.980   2.125  1.00  0.00     0.070 C 
HETATM    2  C   UNL     1      43.460 -19.112   3.355  1.00  0.00     0.037 A 
HETATM    3  N   UNL     1      43.633 -19.793   4.557  1.00  0.00    -0.192 N 
HETATM    4  C   UNL     1      43.880 -19.179   5.729  1.00  0.00     0.725 A 
HETATM    5  N   UNL     1      43.884 -17.811   5.784  1.00  0.00    -0.084 N 
HETATM    6  N   UNL     1      44.228 -17.369   7.012  1.00  0.00    -0.149 NA
HETATM    7  C   UNL     1      44.363 -18.531   7.661  1.00  0.00     0.275 A 
HETATM    8  N   UNL     1      44.162 -19.662   6.912  1.00  0.00    -0.054 NA
HETATM    9  C   UNL     1      43.674 -16.944   4.618  1.00  0.00     0.204 A 
HETATM   10  C   UNL     1      43.449 -17.756   3.349  1.00  0.00     0.062 A 
HETATM   11  H   UNL     1      43.683 -20.808   4.525  1.00  0.00     0.184 HD
ENDROOT
BRANCH  10  12
HETATM   12  C   UNL     1      43.346 -16.925   2.121  1.00  0.00     0.256 C 
HETATM   13  N   UNL     1      42.063 -16.512   1.843  1.00  0.00    -0.323 N 
HETATM   14  H   UNL     1      41.333 -16.810   2.479  1.00  0.00     0.169 HD
HETATM   15  O   UNL     1      44.376 -16.640   1.523  1.00  0.00    -0.267 OA
BRANCH  13  16
HETATM   16  C   UNL     1      41.645 -15.718   0.754  1.00  0.00     0.035 A 
HETATM   17  C   UNL     1      41.345 -16.224  -0.510  1.00  0.00     0.032 A 
HETATM   18  C   UNL     1      40.927 -15.367  -1.535  1.00  0.00     0.039 A 
HETATM   19  C   UNL     1      40.793 -13.997  -1.314  1.00  0.00     0.068 A 
HETATM   20  C   UNL     1      41.095 -13.484  -0.053  1.00  0.00     0.039 A 
HETATM   21  C   UNL     1      41.521 -14.340   0.971  1.00  0.00     0.032 A 
BRANCH  19  22
HETATM   22  O   UNL     1      40.370 -13.281  -2.398  1.00  0.00    -0.356 OA
HETATM   23  C   UNL     1      41.182 -13.333  -3.564  1.00  0.00     0.210 C 
ENDBRANCH  19  22
ENDBRANCH  13  16
ENDBRANCH  10  12
BRANCH   9  24
HETATM   24  C   UNL     1      42.593 -15.898   4.894  1.00  0.00    -0.006 A 
HETATM   25  C   UNL     1      42.694 -14.537   4.552  1.00  0.00     0.044 A 
HETATM   26 CL   UNL     1      44.103 -13.861   3.815  1.00  0.00    -0.084 Cl
HETATM   27  C   UNL     1      41.647 -13.648   4.826  1.00  0.00     0.048 A 
HETATM   28  C   UNL     1      40.495 -14.104   5.456  1.00  0.00     0.035 A 
HETATM   29 CL   UNL     1      39.214 -13.006   5.792  1.00  0.00    -0.084 Cl
HETATM   30  C   UNL     1      40.374 -15.439   5.821  1.00  0.00     0.024 A 
HETATM   31  C   UNL     1      41.415 -16.329   5.541  1.00  0.00     0.013 A 
ENDBRANCH   9  24
TORSDOF 4
ENDMDL
MODEL 4
REMARK VINA RESULT:      -7.7      2.684      4.508
REMARK  4 active torsions:
REMARK  status: ('A' for Active; 'I' for Inactive)
REMARK    1  A    between atoms: C_9  and  C_10 
REMARK    2  A    between atoms: C_18  and  C_19 
REMARK       I    between atoms: C_19  and  N_20 
REMARK    3  A    between atoms: N_20  and  C_21 
REMARK    4  A    between atoms: C_24  and  O_25 
ROOT
HETATM    1  C   UNL     1      39.834 -14.388   5.078  1.00  0.00     0.070 C 
HETATM    2  C   UNL     1      40.190 -13.639   3.819  1.00  0.00     0.037 A 
HETATM    3  N   UNL     1      40.021 -12.258   3.875  1.00  0.00    -0.192 N 
HETATM    4  C   UNL     1      40.422 -11.421   2.899  1.00  0.00     0.725 A 
HETATM    5  N   UNL     1      40.950 -11.936   1.746  1.00  0.00    -0.084 N 
HETATM    6  N   UNL     1      41.369 -10.956   0.917  1.00  0.00    -0.149 NA
HETATM    7  C   UNL     1      41.011  -9.873   1.617  1.00  0.00     0.275 A 
HETATM    8  N   UNL     1      40.430 -10.114   2.836  1.00  0.00    -0.054 NA
HETATM    9  C   UNL     1      41.155 -13.369   1.507  1.00  0.00     0.204 A 
HETATM   10  C   UNL     1      40.704 -14.206   2.699  1.00  0.00     0.062 A 
HETATM   11  H   UNL     1      39.678 -11.856   4.744  1.00  0.00     0.184 HD
ENDROOT
BRANCH  10  12
HETATM   12  C   UNL     1      40.997 -15.655   2.552  1.00  0.00     0.256 C 
HETATM   13  N   UNL     1      42.283 -15.995   2.907  1.00  0.00    -0.323 N 
HETATM   14  H   UNL     1      42.889 -15.246   3.220  1.00  0.00     0.169 HD
HETATM   15  O   UNL     1      40.090 -16.400   2.202  1.00  0.00    -0.267 OA
BRANCH  13  16
HETATM   16  C   UNL     1      42.859 -17.282   2.877  1.00  0.00     0.035 A 
HETATM   17  C   UNL     1      43.022 -18.036   1.716  1.00  0.00     0.032 A 
HETATM   18  C   UNL     1      43.613 -19.304   1.772  1.00  0.00     0.039 A 
HETATM   19  C   UNL     1      44.058 -19.835   2.981  1.00  0.00     0.068 A 
HETATM   20  C   UNL     1      43.895 -19.087   4.146  1.00  0.00     0.039 A 
HETATM   21  C   UNL     1      43.296 -17.822   4.093  1.00  0.00     0.032 A 
BRANCH  19  22
HETATM   22  O   UNL     1      44.621 -21.076   2.889  1.00  0.00    -0.356 OA
HETATM   23  C   UNL     1      44.216 -21.890   1.796  1.00  0.00     0.210 C 
ENDBRANCH  19  22
ENDBRANCH  13  16
ENDBRANCH  10  12
BRANCH   9  24
HETATM   24  C   UNL     1      40.547 -13.800   0.172  1.00  0.00    -0.006 A 
HETATM   25  C   UNL     1      39.178 -13.717  -0.146  1.00  0.00     0.044 A 
HETATM   26 CL   UNL     1      37.992 -13.158   0.977  1.00  0.00    -0.084 Cl
HETATM   27  C   UNL     1      38.708 -14.119  -1.402  1.00  0.00     0.048 A 
HETATM   28  C   UNL     1      39.593 -14.621  -2.349  1.00  0.00     0.035 A 
HETATM   29 CL   UNL     1      39.008 -15.115  -3.889  1.00  0.00    -0.084 Cl
HETATM   30  C   UNL     1      40.947 -14.731  -2.056  1.00  0.00     0.024 A 
HETATM   31  C   UNL     1      41.419 -14.323  -0.806  1.00  0.00     0.013 A 
ENDBRANCH   9  24
TORSDOF 4
ENDMDL
MODEL 5
REMARK VINA RESULT:      -7.3      1.692      2.183
REMARK  4 active torsions:
REMARK  status: ('A' for Active; 'I' for Inactive)
REMARK    1  A    between atoms: C_9  and  C_10 
REMARK    2  A    between atoms: C_18  and  C_19 
REMARK       I    between atoms: C_19  and  N_20 
REMARK    3  A    between atoms: N_20  and  C_21 
REMARK    4  A    between atoms: C_24  and  O_25 
ROOT
HETATM    1  C   UNL     1      40.961 -15.775  -1.334  1.00  0.00     0.070 C 
HETATM    2  C   UNL     1      40.393 -14.828  -0.308  1.00  0.00     0.037 A 
HETATM    3  N   UNL     1      39.891 -13.631  -0.810  1.00  0.00    -0.192 N 
HETATM    4  C   UNL     1      39.221 -12.735  -0.061  1.00  0.00     0.725 A 
HETATM    5  N   UNL     1      39.087 -12.949   1.285  1.00  0.00    -0.084 N 
HETATM    6  N   UNL     1      38.322 -11.997   1.860  1.00  0.00    -0.149 NA
HETATM    7  C   UNL     1      38.077 -11.210   0.806  1.00  0.00     0.275 A 
HETATM    8  N   UNL     1      38.606 -11.627  -0.388  1.00  0.00    -0.054 NA
HETATM    9  C   UNL     1      39.596 -14.137   1.980  1.00  0.00     0.204 A 
HETATM   10  C   UNL     1      40.293 -15.092   1.019  1.00  0.00     0.062 A 
HETATM   11  H   UNL     1      39.937 -13.480  -1.814  1.00  0.00     0.184 HD
ENDROOT
BRANCH  10  12
HETATM   12  C   UNL     1      40.726 -16.364   1.655  1.00  0.00     0.256 C 
HETATM   13  N   UNL     1      42.069 -16.400   1.954  1.00  0.00    -0.323 N 
HETATM   14  H   UNL     1      42.618 -15.583   1.715  1.00  0.00     0.169 HD
HETATM   15  O   UNL     1      39.876 -17.210   1.902  1.00  0.00    -0.267 OA
BRANCH  13  16
HETATM   16  C   UNL     1      42.776 -17.462   2.556  1.00  0.00     0.035 A 
HETATM   17  C   UNL     1      42.856 -17.663   3.933  1.00  0.00     0.032 A 
HETATM   18  C   UNL     1      43.573 -18.749   4.450  1.00  0.00     0.039 A 
HETATM   19  C   UNL     1      44.210 -19.654   3.605  1.00  0.00     0.068 A 
HETATM   20  C   UNL     1      44.137 -19.458   2.227  1.00  0.00     0.039 A 
HETATM   21  C   UNL     1      43.427 -18.366   1.709  1.00  0.00     0.032 A 
BRANCH  19  22
HETATM   22  O   UNL     1      44.865 -20.670   4.243  1.00  0.00    -0.356 OA
HETATM   23  C   UNL     1      44.548 -20.884   5.612  1.00  0.00     0.210 C 
ENDBRANCH  19  22
ENDBRANCH  13  16
ENDBRANCH  10  12
BRANCH   9  24
HETATM   24  C   UNL     1      40.436 -13.748   3.197  1.00  0.00    -0.006 A 
HETATM   25  C   UNL     1      41.646 -13.031   3.136  1.00  0.00     0.044 A 
HETATM   26 CL   UNL     1      42.369 -12.546   1.644  1.00  0.00    -0.084 Cl
HETATM   27  C   UNL     1      42.345 -12.701   4.303  1.00  0.00     0.048 A 
HETATM   28  C   UNL     1      41.852 -13.092   5.543  1.00  0.00     0.035 A 
HETATM   29 CL   UNL     1      42.716 -12.685   6.973  1.00  0.00    -0.084 Cl
HETATM   30  C   UNL     1      40.669 -13.815   5.633  1.00  0.00     0.024 A 
HETATM   31  C   UNL     1      39.967 -14.139   4.469  1.00  0.00     0.013 A 
ENDBRANCH   9  24
TORSDOF 4
ENDMDL
MODEL 6
REMARK VINA RESULT:      -7.1      3.840      5.383
REMARK  4 active torsions:
REMARK  status: ('A' for Active; 'I' for Inactive)
REMARK    1  A    between atoms: C_9  and  C_10 
REMARK    2  A    between atoms: C_18  and  C_19 
REMARK       I    between atoms: C_19  and  N_20 
REMARK    3  A    between atoms: N_20  and  C_21 
REMARK    4  A    between atoms: C_24  and  O_25 
ROOT
HETATM    1  C   UNL     1      39.129 -16.212  -4.042  1.00  0.00     0.070 C 
HETATM    2  C   UNL     1      38.954 -14.853  -3.414  1.00  0.00     0.037 A 
HETATM    3  N   UNL     1      37.937 -14.070  -3.953  1.00  0.00    -0.192 N 
HETATM    4  C   UNL     1      37.547 -12.893  -3.427  1.00  0.00     0.725 A 
HETATM    5  N   UNL     1      38.224 -12.379  -2.354  1.00  0.00    -0.084 N 
HETATM    6  N   UNL     1      37.650 -11.241  -1.909  1.00  0.00    -0.149 NA
HETATM    7  C   UNL     1      36.661 -11.103  -2.800  1.00  0.00     0.275 A 
HETATM    8  N   UNL     1      36.561 -12.093  -3.743  1.00  0.00    -0.054 NA
HETATM    9  C   UNL     1      39.347 -13.055  -1.694  1.00  0.00     0.204 A 
HETATM   10  C   UNL     1      39.663 -14.392  -2.353  1.00  0.00     0.062 A 
HETATM   11  H   UNL     1      37.392 -14.460  -4.718  1.00  0.00     0.184 HD
ENDROOT
BRANCH  10  12
HETATM   12  C   UNL     1      40.717 -15.168  -1.650  1.00  0.00     0.256 C 
HETATM   13  N   UNL     1      40.471 -15.338  -0.306  1.00  0.00    -0.323 N 
HETATM   14  H   UNL     1      39.622 -14.927   0.064  1.00  0.00     0.169 HD
HETATM   15  O   UNL     1      41.644 -15.621  -2.309  1.00  0.00    -0.267 OA
BRANCH  13  16
HETATM   16  C   UNL     1      41.280 -16.023   0.624  1.00  0.00     0.035 A 
HETATM   17  C   UNL     1      41.265 -17.406   0.801  1.00  0.00     0.032 A 
HETATM   18  C   UNL     1      42.108 -18.009   1.742  1.00  0.00     0.039 A 
HETATM   19  C   UNL     1      42.982 -17.246   2.514  1.00  0.00     0.068 A 
HETATM   20  C   UNL     1      43.000 -15.862   2.345  1.00  0.00     0.039 A 
HETATM   21  C   UNL     1      42.150 -15.257   1.409  1.00  0.00     0.032 A 
BRANCH  19  22
HETATM   22  O   UNL     1      43.751 -17.963   3.386  1.00  0.00    -0.356 OA
HETATM   23  C   UNL     1      44.014 -19.319   3.051  1.00  0.00     0.210 C 
ENDBRANCH  19  22
ENDBRANCH  13  16
ENDBRANCH  10  12
BRANCH   9  24
HETATM   24  C   UNL     1      40.552 -12.123  -1.558  1.00  0.00    -0.006 A 
HETATM   25  C   UNL     1      41.072 -11.665  -0.332  1.00  0.00     0.044 A 
HETATM   26 CL   UNL     1      40.364 -12.066   1.190  1.00  0.00    -0.084 Cl
HETATM   27  C   UNL     1      42.192 -10.825  -0.297  1.00  0.00     0.048 A 
HETATM   28  C   UNL     1      42.796 -10.422  -1.483  1.00  0.00     0.035 A 
HETATM   29 CL   UNL     1      44.170  -9.387  -1.432  1.00  0.00    -0.084 Cl
HETATM   30  C   UNL     1      42.293 -10.844  -2.707  1.00  0.00     0.024 A 
HETATM   31  C   UNL     1      41.181 -11.688  -2.744  1.00  0.00     0.013 A 
ENDBRANCH   9  24
TORSDOF 4
ENDMDL
MODEL 7
REMARK VINA RESULT:      -6.9      2.953      4.892
REMARK  4 active torsions:
REMARK  status: ('A' for Active; 'I' for Inactive)
REMARK    1  A    between atoms: C_9  and  C_10 
REMARK    2  A    between atoms: C_18  and  C_19 
REMARK       I    between atoms: C_19  and  N_20 
REMARK    3  A    between atoms: N_20  and  C_21 
REMARK    4  A    between atoms: C_24  and  O_25 
ROOT
HETATM    1  C   UNL     1      40.182 -13.570   5.156  1.00  0.00     0.070 C 
HETATM    2  C   UNL     1      40.073 -12.759   3.890  1.00  0.00     0.037 A 
HETATM    3  N   UNL     1      39.111 -11.752   3.903  1.00  0.00    -0.192 N 
HETATM    4  C   UNL     1      38.973 -10.844   2.919  1.00  0.00     0.725 A 
HETATM    5  N   UNL     1      39.752 -10.944   1.797  1.00  0.00    -0.084 N 
HETATM    6  N   UNL     1      39.538  -9.909   0.956  1.00  0.00    -0.149 NA
HETATM    7  C   UNL     1      38.575  -9.254   1.615  1.00  0.00     0.275 A 
HETATM    8  N   UNL     1      38.202  -9.791   2.820  1.00  0.00    -0.054 NA
HETATM    9  C   UNL     1      40.782 -11.972   1.604  1.00  0.00     0.204 A 
HETATM   10  C   UNL     1      40.870 -12.909   2.802  1.00  0.00     0.062 A 
HETATM   11  H   UNL     1      38.560 -11.633   4.749  1.00  0.00     0.184 HD
ENDROOT
BRANCH  10  12
HETATM   12  C   UNL     1      41.976 -13.897   2.705  1.00  0.00     0.256 C 
HETATM   13  N   UNL     1      41.543 -15.200   2.613  1.00  0.00    -0.323 N 
HETATM   14  H   UNL     1      40.542 -15.357   2.624  1.00  0.00     0.169 HD
HETATM   15  O   UNL     1      43.126 -13.480   2.656  1.00  0.00    -0.267 OA
BRANCH  13  16
HETATM   16  C   UNL     1      42.345 -16.356   2.509  1.00  0.00     0.035 A 
HETATM   17  C   UNL     1      43.049 -16.716   1.361  1.00  0.00     0.032 A 
HETATM   18  C   UNL     1      43.831 -17.877   1.344  1.00  0.00     0.039 A 
HETATM   19  C   UNL     1      43.931 -18.690   2.472  1.00  0.00     0.068 A 
HETATM   20  C   UNL     1      43.228 -18.337   3.622  1.00  0.00     0.039 A 
HETATM   21  C   UNL     1      42.438 -17.180   3.637  1.00  0.00     0.032 A 
BRANCH  19  22
HETATM   22  O   UNL     1      44.734 -19.785   2.318  1.00  0.00    -0.356 OA
HETATM   23  C   UNL     1      44.688 -20.768   3.344  1.00  0.00     0.210 C 
ENDBRANCH  19  22
ENDBRANCH  13  16
ENDBRANCH  10  12
BRANCH   9  24
HETATM   24  C   UNL     1      40.609 -12.684   0.262  1.00  0.00    -0.006 A 
HETATM   25  C   UNL     1      41.495 -12.564  -0.825  1.00  0.00     0.044 A 
HETATM   26 CL   UNL     1      42.881 -11.535  -0.790  1.00  0.00    -0.084 Cl
HETATM   27  C   UNL     1      41.270 -13.267  -2.015  1.00  0.00     0.048 A 
HETATM   28  C   UNL     1      40.152 -14.085  -2.139  1.00  0.00     0.035 A 
HETATM   29 CL   UNL     1      39.880 -14.942  -3.605  1.00  0.00    -0.084 Cl
HETATM   30  C   UNL     1      39.251 -14.208  -1.089  1.00  0.00     0.024 A 
HETATM   31  C   UNL     1      39.478 -13.513   0.102  1.00  0.00     0.013 A 
ENDBRANCH   9  24
TORSDOF 4
ENDMDL
MODEL 8
REMARK VINA RESULT:      -6.9      3.929      8.253
REMARK  4 active torsions:
REMARK  status: ('A' for Active; 'I' for Inactive)
REMARK    1  A    between atoms: C_9  and  C_10 
REMARK    2  A    between atoms: C_18  and  C_19 
REMARK       I    between atoms: C_19  and  N_20 
REMARK    3  A    between atoms: N_20  and  C_21 
REMARK    4  A    between atoms: C_24  and  O_25 
ROOT
HETATM    1  C   UNL     1      45.238 -13.831   7.058  1.00  0.00     0.070 C 
HETATM    2  C   UNL     1      44.404 -14.929   6.448  1.00  0.00     0.037 A 
HETATM    3  N   UNL     1      44.824 -16.227   6.728  1.00  0.00    -0.192 N 
HETATM    4  C   UNL     1      44.122 -17.324   6.388  1.00  0.00     0.725 A 
HETATM    5  N   UNL     1      42.974 -17.187   5.655  1.00  0.00    -0.084 N 
HETATM    6  N   UNL     1      42.360 -18.377   5.475  1.00  0.00    -0.149 NA
HETATM    7  C   UNL     1      43.228 -19.193   6.084  1.00  0.00     0.275 A 
HETATM    8  N   UNL     1      44.318 -18.590   6.657  1.00  0.00    -0.054 NA
HETATM    9  C   UNL     1      42.417 -15.895   5.238  1.00  0.00     0.204 A 
HETATM   10  C   UNL     1      43.277 -14.733   5.720  1.00  0.00     0.062 A 
HETATM   11  H   UNL     1      45.646 -16.344   7.315  1.00  0.00     0.184 HD
ENDROOT
BRANCH  10  12
HETATM   12  C   UNL     1      42.694 -13.398   5.422  1.00  0.00     0.256 C 
HETATM   13  N   UNL     1      41.864 -12.927   6.414  1.00  0.00    -0.323 N 
HETATM   14  H   UNL     1      41.730 -13.519   7.226  1.00  0.00     0.169 HD
HETATM   15  O   UNL     1      43.035 -12.831   4.392  1.00  0.00    -0.267 OA
BRANCH  13  16
HETATM   16  C   UNL     1      41.165 -11.702   6.425  1.00  0.00     0.035 A 
HETATM   17  C   UNL     1      40.013 -11.454   5.680  1.00  0.00     0.032 A 
HETATM   18  C   UNL     1      39.375 -10.211   5.754  1.00  0.00     0.039 A 
HETATM   19  C   UNL     1      39.868  -9.200   6.577  1.00  0.00     0.068 A 
HETATM   20  C   UNL     1      41.022  -9.439   7.322  1.00  0.00     0.039 A 
HETATM   21  C   UNL     1      41.667 -10.681   7.241  1.00  0.00     0.032 A 
BRANCH  19  22
HETATM   22  O   UNL     1      39.143  -8.042   6.559  1.00  0.00    -0.356 OA
HETATM   23  C   UNL     1      38.675  -7.592   5.294  1.00  0.00     0.210 C 
ENDBRANCH  19  22
ENDBRANCH  13  16
ENDBRANCH  10  12
BRANCH   9  24
HETATM   24  C   UNL     1      42.122 -15.877   3.738  1.00  0.00    -0.006 A 
HETATM   25  C   UNL     1      40.949 -15.354   3.162  1.00  0.00     0.044 A 
HETATM   26 CL   UNL     1      39.654 -14.707   4.104  1.00  0.00    -0.084 Cl
HETATM   27  C   UNL     1      40.766 -15.362   1.773  1.00  0.00     0.048 A 
HETATM   28  C   UNL     1      41.744 -15.904   0.946  1.00  0.00     0.035 A 
HETATM   29 CL   UNL     1      41.512 -15.912  -0.758  1.00  0.00    -0.084 Cl
HETATM   30  C   UNL     1      42.904 -16.443   1.489  1.00  0.00     0.024 A 
HETATM   31  C   UNL     1      43.091 -16.429   2.873  1.00  0.00     0.013 A 
ENDBRANCH   9  24
TORSDOF 4
ENDMDL
MODEL 9
REMARK VINA RESULT:      -6.6      3.632      5.266
REMARK  4 active torsions:
REMARK  status: ('A' for Active; 'I' for Inactive)
REMARK    1  A    between atoms: C_9  and  C_10 
REMARK    2  A    between atoms: C_18  and  C_19 
REMARK       I    between atoms: C_19  and  N_20 
REMARK    3  A    between atoms: N_20  and  C_21 
REMARK    4  A    between atoms: C_24  and  O_25 
ROOT
HETATM    1  C   UNL     1      39.684 -15.717  -3.598  1.00  0.00     0.070 C 
HETATM    2  C   UNL     1      39.161 -14.436  -3.001  1.00  0.00     0.037 A 
HETATM    3  N   UNL     1      38.170 -13.792  -3.737  1.00  0.00    -0.192 N 
HETATM    4  C   UNL     1      37.492 -12.718  -3.289  1.00  0.00     0.725 A 
HETATM    5  N   UNL     1      37.832 -12.162  -2.086  1.00  0.00    -0.084 N 
HETATM    6  N   UNL     1      37.000 -11.151  -1.758  1.00  0.00    -0.149 NA
HETATM    7  C   UNL     1      36.215 -11.120  -2.842  1.00  0.00     0.275 A 
HETATM    8  N   UNL     1      36.480 -12.064  -3.800  1.00  0.00    -0.054 NA
HETATM    9  C   UNL     1      38.883 -12.690  -1.207  1.00  0.00     0.204 A 
HETATM   10  C   UNL     1      39.544 -13.926  -1.804  1.00  0.00     0.062 A 
HETATM   11  H   UNL     1      37.871 -14.221  -4.609  1.00  0.00     0.184 HD
ENDROOT
BRANCH  10  12
HETATM   12  C   UNL     1      40.535 -14.566  -0.900  1.00  0.00     0.256 C 
HETATM   13  N   UNL     1      39.962 -15.264   0.139  1.00  0.00    -0.323 N 
HETATM   14  H   UNL     1      38.950 -15.271   0.188  1.00  0.00     0.169 HD
HETATM   15  O   UNL     1      41.723 -14.471  -1.179  1.00  0.00    -0.267 OA
BRANCH  13  16
HETATM   16  C   UNL     1      40.633 -15.973   1.157  1.00  0.00     0.035 A 
HETATM   17  C   UNL     1      41.262 -17.202   0.966  1.00  0.00     0.032 A 
HETATM   18  C   UNL     1      41.915 -17.836   2.030  1.00  0.00     0.039 A 
HETATM   19  C   UNL     1      41.958 -17.253   3.295  1.00  0.00     0.068 A 
HETATM   20  C   UNL     1      41.328 -16.025   3.493  1.00  0.00     0.039 A 
HETATM   21  C   UNL     1      40.667 -15.394   2.431  1.00  0.00     0.032 A 
BRANCH  19  22
HETATM   22  O   UNL     1      42.634 -17.976   4.236  1.00  0.00    -0.356 OA
HETATM   23  C   UNL     1      43.943 -18.416   3.896  1.00  0.00     0.210 C 
ENDBRANCH  19  22
ENDBRANCH  13  16
ENDBRANCH  10  12
BRANCH   9  24
HETATM   24  C   UNL     1      39.863 -11.591  -0.795  1.00  0.00    -0.006 A 
HETATM   25  C   UNL     1      40.043 -11.136   0.525  1.00  0.00     0.044 A 
HETATM   26 CL   UNL     1      39.118 -11.737   1.854  1.00  0.00    -0.084 Cl
HETATM   27  C   UNL     1      40.977 -10.135   0.818  1.00  0.00     0.048 A 
HETATM   28  C   UNL     1      41.733  -9.569  -0.203  1.00  0.00     0.035 A 
HETATM   29 CL   UNL     1      42.877  -8.338   0.164  1.00  0.00    -0.084 Cl
HETATM   30  C   UNL     1      41.564  -9.986  -1.517  1.00  0.00     0.024 A 
HETATM   31  C   UNL     1      40.637 -10.990  -1.810  1.00  0.00     0.013 A 
ENDBRANCH   9  24
TORSDOF 4
ENDMDL
MODEL 10
REMARK VINA RESULT:      -6.5      3.629      7.149
REMARK  4 active torsions:
REMARK  status: ('A' for Active; 'I' for Inactive)
REMARK    1  A    between atoms: C_9  and  C_10 
REMARK    2  A    between atoms: C_18  and  C_19 
REMARK       I    between atoms: C_19  and  N_20 
REMARK    3  A    between atoms: N_20  and  C_21 
REMARK    4  A    between atoms: C_24  and  O_25 
ROOT
HETATM    1  C   UNL     1      41.413 -10.554   0.531  1.00  0.00     0.070 C 
HETATM    2  C   UNL     1      41.196 -11.617   1.577  1.00  0.00     0.037 A 
HETATM    3  N   UNL     1      41.420 -11.219   2.893  1.00  0.00    -0.192 N 
HETATM    4  C   UNL     1      41.139 -11.990   3.960  1.00  0.00     0.725 A 
HETATM    5  N   UNL     1      40.687 -13.268   3.766  1.00  0.00    -0.084 N 
HETATM    6  N   UNL     1      40.381 -13.864   4.938  1.00  0.00    -0.149 NA
HETATM    7  C   UNL     1      40.727 -12.901   5.800  1.00  0.00     0.275 A 
HETATM    8  N   UNL     1      41.193 -11.738   5.243  1.00  0.00    -0.054 NA
HETATM    9  C   UNL     1      40.440 -13.858   2.445  1.00  0.00     0.204 A 
HETATM   10  C   UNL     1      40.753 -12.874   1.325  1.00  0.00     0.062 A 
HETATM   11  H   UNL     1      41.706 -10.257   3.055  1.00  0.00     0.184 HD
ENDROOT
BRANCH  10  12
HETATM   12  C   UNL     1      40.410 -13.385  -0.028  1.00  0.00     0.256 C 
HETATM   13  N   UNL     1      39.096 -13.172  -0.380  1.00  0.00    -0.323 N 
HETATM   14  H   UNL     1      38.506 -12.705   0.299  1.00  0.00     0.169 HD
HETATM   15  O   UNL     1      41.302 -13.876  -0.709  1.00  0.00    -0.267 OA
BRANCH  13  16
HETATM   16  C   UNL     1      38.471 -13.540  -1.590  1.00  0.00     0.035 A 
HETATM   17  C   UNL     1      38.636 -14.779  -2.206  1.00  0.00     0.032 A 
HETATM   18  C   UNL     1      37.971 -15.068  -3.404  1.00  0.00     0.039 A 
HETATM   19  C   UNL     1      37.127 -14.132  -3.999  1.00  0.00     0.068 A 
HETATM   20  C   UNL     1      36.961 -12.890  -3.389  1.00  0.00     0.039 A 
HETATM   21  C   UNL     1      37.632 -12.597  -2.195  1.00  0.00     0.032 A 
BRANCH  19  22
HETATM   22  O   UNL     1      36.537 -14.549  -5.159  1.00  0.00    -0.356 OA
HETATM   23  C   UNL     1      35.371 -13.853  -5.578  1.00  0.00     0.210 C 
ENDBRANCH  19  22
ENDBRANCH  13  16
ENDBRANCH  10  12
BRANCH   9  24
HETATM   24  C   UNL     1      41.137 -15.211   2.305  1.00  0.00    -0.006 A 
HETATM   25  C   UNL     1      42.501 -15.438   2.570  1.00  0.00     0.044 A 
HETATM   26 CL   UNL     1      43.582 -14.177   3.042  1.00  0.00    -0.084 Cl
HETATM   27  C   UNL     1      43.056 -16.716   2.432  1.00  0.00     0.048 A 
HETATM   28  C   UNL     1      42.261 -17.778   2.015  1.00  0.00     0.035 A 
HETATM   29 CL   UNL     1      42.951 -19.345   1.844  1.00  0.00    -0.084 Cl
HETATM   30  C   UNL     1      40.916 -17.580   1.729  1.00  0.00     0.024 A 
HETATM   31  C   UNL     1      40.359 -16.307   1.873  1.00  0.00     0.013 A 
ENDBRANCH   9  24
TORSDOF 4
ENDMDL
