MODEL 1
REMARK VINA RESULT:      -9.9      0.000      0.000
REMARK  3 active torsions:
REMARK  status: ('A' for Active; 'I' for Inactive)
REMARK    1  A    between atoms: C_3  and  C_4 
REMARK       I    between atoms: C_4  and  N_5 
REMARK    2  A    between atoms: N_5  and  C_6 
REMARK    3  A    between atoms: C_13  and  C_14 
REMARK       I    between atoms: C_14  and  N_15 
ROOT
HETATM    1  C   UNL     1      43.064 -16.249   3.723  1.00  0.00     0.262 C 
HETATM    2  N   UNL     1      41.789 -16.132   4.239  1.00  0.00    -0.323 N 
HETATM    3  O   UNL     1      43.668 -15.350   3.144  1.00  0.00    -0.267 OA
HETATM    4  H   UNL     1      41.364 -16.988   4.595  1.00  0.00     0.169 HD
ENDROOT
BRANCH   2   5
HETATM    5  C   UNL     1      40.924 -15.017   4.178  1.00  0.00     0.036 A 
HETATM    6  C   UNL     1      40.653 -14.173   5.263  1.00  0.00     0.046 A 
HETATM    7  C   UNL     1      39.810 -13.054   5.083  1.00  0.00     0.030 A 
HETATM    8  C   UNL     1      39.254 -12.827   3.830  1.00  0.00     0.063 A 
HETATM    9  C   UNL     1      39.330 -11.984   5.899  1.00  0.00     0.156 A 
HETATM   10  N   UNL     1      38.510 -11.689   3.963  1.00  0.00    -0.277 N 
HETATM   11  C   UNL     1      39.484 -13.659   2.733  1.00  0.00     0.034 A 
HETATM   12  H   UNL     1      37.966 -11.225   3.245  1.00  0.00     0.189 HD
HETATM   13  N   UNL     1      38.533 -11.149   5.193  1.00  0.00    -0.168 NA
HETATM   14  C   UNL     1      40.330 -14.754   2.935  1.00  0.00     0.032 A 
BRANCH   9  15
HETATM   15  C   UNL     1      39.620 -11.738   7.318  1.00  0.00     0.270 C 
HETATM   16  N   UNL     1      39.020 -12.624   8.171  1.00  0.00    -0.365 N 
HETATM   17  H   UNL     1      38.436 -13.354   7.780  1.00  0.00     0.159 HD
HETATM   18  H   UNL     1      39.149 -12.527   9.165  1.00  0.00     0.159 HD
HETATM   19  O   UNL     1      40.326 -10.831   7.742  1.00  0.00    -0.266 OA
ENDBRANCH   9  15
ENDBRANCH   2   5
BRANCH   1  20
HETATM   20  C   UNL     1      43.688 -17.625   3.844  1.00  0.00     0.114 C 
HETATM   21  C   UNL     1      43.726 -18.454   2.770  1.00  0.00    -0.027 C 
HETATM   22  C   UNL     1      43.413 -18.031   1.353  1.00  0.00     0.050 C 
HETATM   23  C   UNL     1      44.093 -19.873   2.973  1.00  0.00     0.005 A 
HETATM   24  C   UNL     1      44.501 -20.292   4.236  1.00  0.00     0.090 A 
HETATM   25  C   UNL     1      43.999 -20.858   1.976  1.00  0.00     0.015 A 
HETATM   26  O   UNL     1      44.593 -19.392   5.303  1.00  0.00    -0.274 OA
HETATM   27  C   UNL     1      44.830 -21.618   4.521  1.00  0.00     0.038 A 
HETATM   28  C   UNL     1      44.212 -18.073   5.159  1.00  0.00     0.304 C 
HETATM   29  O   UNL     1      44.354 -17.288   6.096  1.00  0.00    -0.259 OA
HETATM   30  C   UNL     1      44.740 -22.576   3.516  1.00  0.00     0.003 A 
HETATM   31  C   UNL     1      44.322 -22.195   2.244  1.00  0.00     0.001 A 
ENDBRANCH   1  20
TORSDOF 3
ENDMDL
MODEL 2
REMARK VINA RESULT:      -9.7      3.255      4.935
REMARK  3 active torsions:
REMARK  status: ('A' for Active; 'I' for Inactive)
REMARK    1  A    between atoms: C_3  and  C_4 
REMARK       I    between atoms: C_4  and  N_5 
REMARK    2  A    between atoms: N_5  and  C_6 
REMARK    3  A    between atoms: C_13  and  C_14 
REMARK       I    between atoms: C_14  and  N_15 
ROOT
HETATM    1  C   UNL     1      42.861 -16.418   2.898  1.00  0.00     0.262 C 
HETATM    2  N   UNL     1      41.614 -16.621   2.344  1.00  0.00    -0.323 N 
HETATM    3  O   UNL     1      43.507 -15.378   2.802  1.00  0.00    -0.267 OA
HETATM    4  H   UNL     1      41.239 -17.568   2.404  1.00  0.00     0.169 HD
ENDROOT
BRANCH   2   5
HETATM    5  C   UNL     1      40.861 -15.732   1.544  1.00  0.00     0.036 A 
HETATM    6  C   UNL     1      41.149 -15.448   0.203  1.00  0.00     0.046 A 
HETATM    7  C   UNL     1      40.302 -14.580  -0.524  1.00  0.00     0.030 A 
HETATM    8  C   UNL     1      39.209 -14.015   0.120  1.00  0.00     0.063 A 
HETATM    9  C   UNL     1      40.242 -14.082  -1.861  1.00  0.00     0.156 A 
HETATM   10  N   UNL     1      38.587 -13.248  -0.824  1.00  0.00    -0.277 N 
HETATM   11  C   UNL     1      38.905 -14.258   1.460  1.00  0.00     0.034 A 
HETATM   12  H   UNL     1      37.749 -12.692  -0.707  1.00  0.00     0.189 HD
HETATM   13  N   UNL     1      39.177 -13.265  -2.032  1.00  0.00    -0.168 NA
HETATM   14  C   UNL     1      39.752 -15.128   2.154  1.00  0.00     0.032 A 
BRANCH   9  15
HETATM   15  C   UNL     1      41.162 -14.372  -2.970  1.00  0.00     0.270 C 
HETATM   16  N   UNL     1      42.394 -13.793  -2.837  1.00  0.00    -0.365 N 
HETATM   17  H   UNL     1      42.576 -13.222  -2.020  1.00  0.00     0.159 HD
HETATM   18  H   UNL     1      43.088 -13.924  -3.556  1.00  0.00     0.159 HD
HETATM   19  O   UNL     1      40.888 -15.062  -3.945  1.00  0.00    -0.266 OA
ENDBRANCH   9  15
ENDBRANCH   2   5
BRANCH   1  20
HETATM   20  C   UNL     1      43.459 -17.619   3.603  1.00  0.00     0.114 C 
HETATM   21  C   UNL     1      43.865 -18.699   2.889  1.00  0.00    -0.027 C 
HETATM   22  C   UNL     1      44.006 -18.722   1.384  1.00  0.00     0.050 C 
HETATM   23  C   UNL     1      44.194 -19.950   3.605  1.00  0.00     0.005 A 
HETATM   24  C   UNL     1      44.194 -19.952   4.997  1.00  0.00     0.090 A 
HETATM   25  C   UNL     1      44.456 -21.174   2.968  1.00  0.00     0.015 A 
HETATM   26  O   UNL     1      43.911 -18.791   5.723  1.00  0.00    -0.274 OA
HETATM   27  C   UNL     1      44.459 -21.098   5.749  1.00  0.00     0.038 A 
HETATM   28  C   UNL     1      43.553 -17.620   5.086  1.00  0.00     0.304 C 
HETATM   29  O   UNL     1      43.362 -16.597   5.743  1.00  0.00    -0.259 OA
HETATM   30  C   UNL     1      44.725 -22.298   5.098  1.00  0.00     0.003 A 
HETATM   31  C   UNL     1      44.721 -22.335   3.706  1.00  0.00     0.001 A 
ENDBRANCH   1  20
TORSDOF 3
ENDMDL
MODEL 3
REMARK VINA RESULT:      -9.2      3.899      7.871
REMARK  3 active torsions:
REMARK  status: ('A' for Active; 'I' for Inactive)
REMARK    1  A    between atoms: C_3  and  C_4 
REMARK       I    between atoms: C_4  and  N_5 
REMARK    2  A    between atoms: N_5  and  C_6 
REMARK    3  A    between atoms: C_13  and  C_14 
REMARK       I    between atoms: C_14  and  N_15 
ROOT
HETATM    1  C   UNL     1      41.944 -15.517   1.739  1.00  0.00     0.262 C 
HETATM    2  N   UNL     1      43.189 -15.939   2.158  1.00  0.00    -0.323 N 
HETATM    3  O   UNL     1      40.893 -16.107   1.973  1.00  0.00    -0.267 OA
HETATM    4  H   UNL     1      43.990 -15.417   1.800  1.00  0.00     0.169 HD
ENDROOT
BRANCH   2   5
HETATM    5  C   UNL     1      43.516 -17.110   2.878  1.00  0.00     0.036 A 
HETATM    6  C   UNL     1      43.410 -17.231   4.270  1.00  0.00     0.046 A 
HETATM    7  C   UNL     1      43.715 -18.465   4.888  1.00  0.00     0.030 A 
HETATM    8  C   UNL     1      44.130 -19.528   4.095  1.00  0.00     0.063 A 
HETATM    9  C   UNL     1      43.706 -18.979   6.220  1.00  0.00     0.156 A 
HETATM   10  N   UNL     1      44.335 -20.566   4.959  1.00  0.00    -0.277 N 
HETATM   11  C   UNL     1      44.268 -19.437   2.709  1.00  0.00     0.034 A 
HETATM   12  H   UNL     1      44.640 -21.505   4.728  1.00  0.00     0.189 HD
HETATM   13  N   UNL     1      44.088 -20.277   6.247  1.00  0.00    -0.168 NA
HETATM   14  C   UNL     1      43.950 -18.208   2.121  1.00  0.00     0.032 A 
BRANCH   9  15
HETATM   15  C   UNL     1      43.337 -18.270   7.453  1.00  0.00     0.270 C 
HETATM   16  N   UNL     1      44.037 -18.672   8.558  1.00  0.00    -0.365 N 
HETATM   17  H   UNL     1      44.727 -19.407   8.454  1.00  0.00     0.159 HD
HETATM   18  H   UNL     1      43.843 -18.253   9.453  1.00  0.00     0.159 HD
HETATM   19  O   UNL     1      42.483 -17.394   7.529  1.00  0.00    -0.266 OA
ENDBRANCH   9  15
ENDBRANCH   2   5
BRANCH   1  20
HETATM   20  C   UNL     1      41.940 -14.273   0.873  1.00  0.00     0.114 C 
HETATM   21  C   UNL     1      41.707 -14.371  -0.461  1.00  0.00    -0.027 C 
HETATM   22  C   UNL     1      41.195 -15.615  -1.150  1.00  0.00     0.050 C 
HETATM   23  C   UNL     1      41.967 -13.196  -1.321  1.00  0.00     0.005 A 
HETATM   24  C   UNL     1      42.329 -11.990  -0.727  1.00  0.00     0.090 A 
HETATM   25  C   UNL     1      41.930 -13.227  -2.725  1.00  0.00     0.015 A 
HETATM   26  O   UNL     1      42.427 -11.867   0.663  1.00  0.00    -0.274 OA
HETATM   27  C   UNL     1      42.626 -10.844  -1.468  1.00  0.00     0.038 A 
HETATM   28  C   UNL     1      42.238 -12.956   1.490  1.00  0.00     0.304 C 
HETATM   29  O   UNL     1      42.275 -12.812   2.712  1.00  0.00    -0.259 OA
HETATM   30  C   UNL     1      42.574 -10.895  -2.856  1.00  0.00     0.003 A 
HETATM   31  C   UNL     1      42.228 -12.088  -3.485  1.00  0.00     0.001 A 
ENDBRANCH   1  20
TORSDOF 3
ENDMDL
MODEL 4
REMARK VINA RESULT:      -9.1      1.914      3.155
REMARK  3 active torsions:
REMARK  status: ('A' for Active; 'I' for Inactive)
REMARK    1  A    between atoms: C_3  and  C_4 
REMARK       I    between atoms: C_4  and  N_5 
REMARK    2  A    between atoms: N_5  and  C_6 
REMARK    3  A    between atoms: C_13  and  C_14 
REMARK       I    between atoms: C_14  and  N_15 
ROOT
HETATM    1  C   UNL     1      43.049 -15.978   3.351  1.00  0.00     0.262 C 
HETATM    2  N   UNL     1      41.727 -15.853   3.727  1.00  0.00    -0.323 N 
HETATM    3  O   UNL     1      43.725 -15.074   2.869  1.00  0.00    -0.267 OA
HETATM    4  H   UNL     1      41.253 -16.711   4.010  1.00  0.00     0.169 HD
ENDROOT
BRANCH   2   5
HETATM    5  C   UNL     1      40.889 -14.723   3.603  1.00  0.00     0.036 A 
HETATM    6  C   UNL     1      40.235 -14.356   2.419  1.00  0.00     0.046 A 
HETATM    7  C   UNL     1      39.378 -13.233   2.415  1.00  0.00     0.030 A 
HETATM    8  C   UNL     1      39.218 -12.506   3.588  1.00  0.00     0.063 A 
HETATM    9  C   UNL     1      38.544 -12.578   1.458  1.00  0.00     0.156 A 
HETATM   10  N   UNL     1      38.339 -11.507   3.279  1.00  0.00    -0.277 N 
HETATM   11  C   UNL     1      39.871 -12.828   4.779  1.00  0.00     0.034 A 
HETATM   12  H   UNL     1      37.989 -10.786   3.899  1.00  0.00     0.189 HD
HETATM   13  N   UNL     1      37.908 -11.518   2.007  1.00  0.00    -0.168 NA
HETATM   14  C   UNL     1      40.705 -13.951   4.760  1.00  0.00     0.032 A 
BRANCH   9  15
HETATM   15  C   UNL     1      38.336 -12.943   0.050  1.00  0.00     0.270 C 
HETATM   16  N   UNL     1      37.939 -14.238  -0.138  1.00  0.00    -0.365 N 
HETATM   17  H   UNL     1      37.827 -14.834   0.675  1.00  0.00     0.159 HD
HETATM   18  H   UNL     1      37.784 -14.584  -1.071  1.00  0.00     0.159 HD
HETATM   19  O   UNL     1      38.496 -12.186  -0.901  1.00  0.00    -0.266 OA
ENDBRANCH   9  15
ENDBRANCH   2   5
BRANCH   1  20
HETATM   20  C   UNL     1      43.637 -17.367   3.501  1.00  0.00     0.114 C 
HETATM   21  C   UNL     1      43.732 -18.188   2.424  1.00  0.00    -0.027 C 
HETATM   22  C   UNL     1      43.524 -17.746   0.993  1.00  0.00     0.050 C 
HETATM   23  C   UNL     1      44.057 -19.615   2.637  1.00  0.00     0.005 A 
HETATM   24  C   UNL     1      44.370 -20.052   3.921  1.00  0.00     0.090 A 
HETATM   25  C   UNL     1      44.012 -20.589   1.627  1.00  0.00     0.015 A 
HETATM   26  O   UNL     1      44.407 -19.164   5.000  1.00  0.00    -0.274 OA
HETATM   27  C   UNL     1      44.654 -21.388   4.214  1.00  0.00     0.038 A 
HETATM   28  C   UNL     1      44.062 -17.836   4.844  1.00  0.00     0.304 C 
HETATM   29  O   UNL     1      44.155 -17.062   5.796  1.00  0.00    -0.259 OA
HETATM   30  C   UNL     1      44.614 -22.334   3.196  1.00  0.00     0.003 A 
HETATM   31  C   UNL     1      44.290 -21.935   1.903  1.00  0.00     0.001 A 
ENDBRANCH   1  20
TORSDOF 3
ENDMDL
MODEL 5
REMARK VINA RESULT:      -9.1      1.920      2.025
REMARK  3 active torsions:
REMARK  status: ('A' for Active; 'I' for Inactive)
REMARK    1  A    between atoms: C_3  and  C_4 
REMARK       I    between atoms: C_4  and  N_5 
REMARK    2  A    between atoms: N_5  and  C_6 
REMARK    3  A    between atoms: C_13  and  C_14 
REMARK       I    between atoms: C_14  and  N_15 
ROOT
HETATM    1  C   UNL     1      42.001 -16.120   4.321  1.00  0.00     0.262 C 
HETATM    2  N   UNL     1      42.642 -14.907   4.171  1.00  0.00    -0.323 N 
HETATM    3  O   UNL     1      40.834 -16.253   4.678  1.00  0.00    -0.267 OA
HETATM    4  H   UNL     1      43.643 -14.944   3.977  1.00  0.00     0.169 HD
ENDROOT
BRANCH   2   5
HETATM    5  C   UNL     1      42.132 -13.615   4.426  1.00  0.00     0.036 A 
HETATM    6  C   UNL     1      42.204 -12.974   5.670  1.00  0.00     0.046 A 
HETATM    7  C   UNL     1      41.706 -11.658   5.807  1.00  0.00     0.030 A 
HETATM    8  C   UNL     1      41.139 -11.037   4.702  1.00  0.00     0.063 A 
HETATM    9  C   UNL     1      41.622 -10.693   6.857  1.00  0.00     0.156 A 
HETATM   10  N   UNL     1      40.767  -9.795   5.133  1.00  0.00    -0.277 N 
HETATM   11  C   UNL     1      41.030 -11.653   3.454  1.00  0.00     0.034 A 
HETATM   12  H   UNL     1      40.323  -9.065   4.590  1.00  0.00     0.189 HD
HETATM   13  N   UNL     1      41.044  -9.549   6.425  1.00  0.00    -0.168 NA
HETATM   14  C   UNL     1      41.540 -12.951   3.342  1.00  0.00     0.032 A 
BRANCH   9  15
HETATM   15  C   UNL     1      42.085 -10.834   8.244  1.00  0.00     0.270 C 
HETATM   16  N   UNL     1      41.082 -11.065   9.145  1.00  0.00    -0.365 N 
HETATM   17  H   UNL     1      40.128 -11.113   8.807  1.00  0.00     0.159 HD
HETATM   18  H   UNL     1      41.301 -11.161  10.124  1.00  0.00     0.159 HD
HETATM   19  O   UNL     1      43.254 -10.754   8.605  1.00  0.00    -0.266 OA
ENDBRANCH   9  15
ENDBRANCH   2   5
BRANCH   1  20
HETATM   20  C   UNL     1      42.865 -17.342   4.085  1.00  0.00     0.114 C 
HETATM   21  C   UNL     1      42.719 -18.072   2.950  1.00  0.00    -0.027 C 
HETATM   22  C   UNL     1      41.919 -17.629   1.747  1.00  0.00     0.050 C 
HETATM   23  C   UNL     1      43.375 -19.395   2.860  1.00  0.00     0.005 A 
HETATM   24  C   UNL     1      44.218 -19.804   3.890  1.00  0.00     0.090 A 
HETATM   25  C   UNL     1      43.157 -20.309   1.816  1.00  0.00     0.015 A 
HETATM   26  O   UNL     1      44.471 -18.978   4.989  1.00  0.00    -0.274 OA
HETATM   27  C   UNL     1      44.847 -21.050   3.899  1.00  0.00     0.038 A 
HETATM   28  C   UNL     1      43.838 -17.758   5.127  1.00  0.00     0.304 C 
HETATM   29  O   UNL     1      44.118 -17.025   6.075  1.00  0.00    -0.259 OA
HETATM   30  C   UNL     1      44.625 -21.936   2.851  1.00  0.00     0.003 A 
HETATM   31  C   UNL     1      43.778 -21.566   1.810  1.00  0.00     0.001 A 
ENDBRANCH   1  20
TORSDOF 3
ENDMDL
MODEL 6
REMARK VINA RESULT:      -8.9      1.623      2.405
REMARK  3 active torsions:
REMARK  status: ('A' for Active; 'I' for Inactive)
REMARK    1  A    between atoms: C_3  and  C_4 
REMARK       I    between atoms: C_4  and  N_5 
REMARK    2  A    between atoms: N_5  and  C_6 
REMARK    3  A    between atoms: C_13  and  C_14 
REMARK       I    between atoms: C_14  and  N_15 
ROOT
HETATM    1  C   UNL     1      42.082 -15.528   3.576  1.00  0.00     0.262 C 
HETATM    2  N   UNL     1      40.766 -15.232   3.864  1.00  0.00    -0.323 N 
HETATM    3  O   UNL     1      42.989 -14.702   3.527  1.00  0.00    -0.267 OA
HETATM    4  H   UNL     1      40.096 -15.995   3.762  1.00  0.00     0.169 HD
ENDROOT
BRANCH   2   5
HETATM    5  C   UNL     1      40.192 -13.964   4.110  1.00  0.00     0.036 A 
HETATM    6  C   UNL     1      40.194 -13.332   5.360  1.00  0.00     0.046 A 
HETATM    7  C   UNL     1      39.636 -12.039   5.489  1.00  0.00     0.030 A 
HETATM    8  C   UNL     1      39.082 -11.433   4.369  1.00  0.00     0.063 A 
HETATM    9  C   UNL     1      39.475 -11.088   6.542  1.00  0.00     0.156 A 
HETATM   10  N   UNL     1      38.643 -10.212   4.797  1.00  0.00    -0.277 N 
HETATM   11  C   UNL     1      39.043 -12.042   3.114  1.00  0.00     0.034 A 
HETATM   12  H   UNL     1      38.187  -9.496   4.243  1.00  0.00     0.189 HD
HETATM   13  N   UNL     1      38.864  -9.965   6.099  1.00  0.00    -0.168 NA
HETATM   14  C   UNL     1      39.611 -13.317   3.011  1.00  0.00     0.032 A 
BRANCH   9  15
HETATM   15  C   UNL     1      39.895 -11.221   7.944  1.00  0.00     0.270 C 
HETATM   16  N   UNL     1      41.248 -11.147   8.131  1.00  0.00    -0.365 N 
HETATM   17  H   UNL     1      41.842 -11.018   7.320  1.00  0.00     0.159 HD
HETATM   18  H   UNL     1      41.631 -11.241   9.058  1.00  0.00     0.159 HD
HETATM   19  O   UNL     1      39.133 -11.387   8.891  1.00  0.00    -0.266 OA
ENDBRANCH   9  15
ENDBRANCH   2   5
BRANCH   1  20
HETATM   20  C   UNL     1      42.360 -16.979   3.235  1.00  0.00     0.114 C 
HETATM   21  C   UNL     1      43.063 -17.760   4.094  1.00  0.00    -0.027 C 
HETATM   22  C   UNL     1      43.399 -17.376   5.517  1.00  0.00     0.050 C 
HETATM   23  C   UNL     1      43.547 -19.079   3.631  1.00  0.00     0.005 A 
HETATM   24  C   UNL     1      43.169 -19.533   2.370  1.00  0.00     0.090 A 
HETATM   25  C   UNL     1      44.424 -19.894   4.364  1.00  0.00     0.015 A 
HETATM   26  O   UNL     1      42.325 -18.777   1.551  1.00  0.00    -0.274 OA
HETATM   27  C   UNL     1      43.609 -20.749   1.844  1.00  0.00     0.038 A 
HETATM   28  C   UNL     1      41.895 -17.521   1.933  1.00  0.00     0.304 C 
HETATM   29  O   UNL     1      41.110 -16.898   1.220  1.00  0.00    -0.259 OA
HETATM   30  C   UNL     1      44.471 -21.545   2.591  1.00  0.00     0.003 A 
HETATM   31  C   UNL     1      44.880 -21.116   3.850  1.00  0.00     0.001 A 
ENDBRANCH   1  20
TORSDOF 3
ENDMDL
MODEL 7
REMARK VINA RESULT:      -8.9      1.769      1.989
REMARK  3 active torsions:
REMARK  status: ('A' for Active; 'I' for Inactive)
REMARK    1  A    between atoms: C_3  and  C_4 
REMARK       I    between atoms: C_4  and  N_5 
REMARK    2  A    between atoms: N_5  and  C_6 
REMARK    3  A    between atoms: C_13  and  C_14 
REMARK       I    between atoms: C_14  and  N_15 
ROOT
HETATM    1  C   UNL     1      42.552 -15.699   3.084  1.00  0.00     0.262 C 
HETATM    2  N   UNL     1      41.181 -15.707   3.240  1.00  0.00    -0.323 N 
HETATM    3  O   UNL     1      43.190 -14.788   2.563  1.00  0.00    -0.267 OA
HETATM    4  H   UNL     1      40.769 -16.573   3.587  1.00  0.00     0.169 HD
ENDROOT
BRANCH   2   5
HETATM    5  C   UNL     1      40.250 -14.733   2.813  1.00  0.00     0.036 A 
HETATM    6  C   UNL     1      40.051 -13.504   3.455  1.00  0.00     0.046 A 
HETATM    7  C   UNL     1      39.129 -12.577   2.917  1.00  0.00     0.030 A 
HETATM    8  C   UNL     1      38.427 -12.919   1.768  1.00  0.00     0.063 A 
HETATM    9  C   UNL     1      38.680 -11.262   3.247  1.00  0.00     0.156 A 
HETATM   10  N   UNL     1      37.638 -11.840   1.490  1.00  0.00    -0.277 N 
HETATM   11  C   UNL     1      38.584 -14.143   1.116  1.00  0.00     0.034 A 
HETATM   12  H   UNL     1      36.992 -11.736   0.716  1.00  0.00     0.189 HD
HETATM   13  N   UNL     1      37.763 -10.820   2.356  1.00  0.00    -0.168 NA
HETATM   14  C   UNL     1      39.510 -15.038   1.662  1.00  0.00     0.032 A 
BRANCH   9  15
HETATM   15  C   UNL     1      39.108 -10.424   4.375  1.00  0.00     0.270 C 
HETATM   16  N   UNL     1      40.166  -9.604   4.090  1.00  0.00    -0.365 N 
HETATM   17  H   UNL     1      40.569  -9.637   3.161  1.00  0.00     0.159 HD
HETATM   18  H   UNL     1      40.539  -9.002   4.807  1.00  0.00     0.159 HD
HETATM   19  O   UNL     1      38.594 -10.430   5.488  1.00  0.00    -0.266 OA
ENDBRANCH   9  15
ENDBRANCH   2   5
BRANCH   1  20
HETATM   20  C   UNL     1      43.263 -16.957   3.542  1.00  0.00     0.114 C 
HETATM   21  C   UNL     1      43.552 -17.940   2.652  1.00  0.00    -0.027 C 
HETATM   22  C   UNL     1      43.446 -17.791   1.151  1.00  0.00     0.050 C 
HETATM   23  C   UNL     1      44.000 -19.256   3.158  1.00  0.00     0.005 A 
HETATM   24  C   UNL     1      44.226 -19.414   4.522  1.00  0.00     0.090 A 
HETATM   25  C   UNL     1      44.161 -20.393   2.350  1.00  0.00     0.015 A 
HETATM   26  O   UNL     1      44.060 -18.348   5.412  1.00  0.00    -0.274 OA
HETATM   27  C   UNL     1      44.616 -20.631   5.085  1.00  0.00     0.038 A 
HETATM   28  C   UNL     1      43.597 -17.122   4.980  1.00  0.00     0.304 C 
HETATM   29  O   UNL     1      43.511 -16.184   5.771  1.00  0.00    -0.259 OA
HETATM   30  C   UNL     1      44.778 -21.743   4.266  1.00  0.00     0.003 A 
HETATM   31  C   UNL     1      44.548 -21.624   2.899  1.00  0.00     0.001 A 
ENDBRANCH   1  20
TORSDOF 3
ENDMDL
MODEL 8
REMARK VINA RESULT:      -8.7      2.565      3.500
REMARK  3 active torsions:
REMARK  status: ('A' for Active; 'I' for Inactive)
REMARK    1  A    between atoms: C_3  and  C_4 
REMARK       I    between atoms: C_4  and  N_5 
REMARK    2  A    between atoms: N_5  and  C_6 
REMARK    3  A    between atoms: C_13  and  C_14 
REMARK       I    between atoms: C_14  and  N_15 
ROOT
HETATM    1  C   UNL     1      41.134 -15.447   4.887  1.00  0.00     0.262 C 
HETATM    2  N   UNL     1      41.773 -14.278   4.525  1.00  0.00    -0.323 N 
HETATM    3  O   UNL     1      40.240 -15.522   5.725  1.00  0.00    -0.267 OA
HETATM    4  H   UNL     1      42.573 -14.374   3.898  1.00  0.00     0.169 HD
ENDROOT
BRANCH   2   5
HETATM    5  C   UNL     1      41.577 -12.980   5.047  1.00  0.00     0.036 A 
HETATM    6  C   UNL     1      42.034 -12.564   6.305  1.00  0.00     0.046 A 
HETATM    7  C   UNL     1      41.829 -11.226   6.713  1.00  0.00     0.030 A 
HETATM    8  C   UNL     1      41.161 -10.359   5.859  1.00  0.00     0.063 A 
HETATM    9  C   UNL     1      42.154 -10.439   7.860  1.00  0.00     0.156 A 
HETATM   10  N   UNL     1      41.127  -9.160   6.512  1.00  0.00    -0.277 N 
HETATM   11  C   UNL     1      40.673 -10.745   4.609  1.00  0.00     0.034 A 
HETATM   12  H   UNL     1      40.719  -8.293   6.183  1.00  0.00     0.189 HD
HETATM   13  N   UNL     1      41.717  -9.166   7.720  1.00  0.00    -0.168 NA
HETATM   14  C   UNL     1      40.898 -12.070   4.224  1.00  0.00     0.032 A 
BRANCH   9  15
HETATM   15  C   UNL     1      42.871 -10.867   9.069  1.00  0.00     0.270 C 
HETATM   16  N   UNL     1      42.062 -11.390  10.041  1.00  0.00    -0.365 N 
HETATM   17  H   UNL     1      41.065 -11.437   9.869  1.00  0.00     0.159 HD
HETATM   18  H   UNL     1      42.463 -11.698  10.913  1.00  0.00     0.159 HD
HETATM   19  O   UNL     1      44.082 -10.778   9.234  1.00  0.00    -0.266 OA
ENDBRANCH   9  15
ENDBRANCH   2   5
BRANCH   1  20
HETATM   20  C   UNL     1      41.660 -16.704   4.224  1.00  0.00     0.114 C 
HETATM   21  C   UNL     1      42.481 -17.543   4.906  1.00  0.00    -0.027 C 
HETATM   22  C   UNL     1      42.736 -17.465   6.394  1.00  0.00     0.050 C 
HETATM   23  C   UNL     1      43.188 -18.611   4.166  1.00  0.00     0.005 A 
HETATM   24  C   UNL     1      42.903 -18.802   2.817  1.00  0.00     0.090 A 
HETATM   25  C   UNL     1      44.188 -19.423   4.726  1.00  0.00     0.015 A 
HETATM   26  O   UNL     1      41.947 -18.020   2.161  1.00  0.00    -0.274 OA
HETATM   27  C   UNL     1      43.551 -19.763   2.039  1.00  0.00     0.038 A 
HETATM   28  C   UNL     1      41.305 -16.984   2.809  1.00  0.00     0.304 C 
HETATM   29  O   UNL     1      40.429 -16.345   2.228  1.00  0.00    -0.259 OA
HETATM   30  C   UNL     1      44.531 -20.563   2.616  1.00  0.00     0.003 A 
HETATM   31  C   UNL     1      44.851 -20.391   3.960  1.00  0.00     0.001 A 
ENDBRANCH   1  20
TORSDOF 3
ENDMDL
MODEL 9
REMARK VINA RESULT:      -8.5      3.773      9.155
REMARK  3 active torsions:
REMARK  status: ('A' for Active; 'I' for Inactive)
REMARK    1  A    between atoms: C_3  and  C_4 
REMARK       I    between atoms: C_4  and  N_5 
REMARK    2  A    between atoms: N_5  and  C_6 
REMARK    3  A    between atoms: C_13  and  C_14 
REMARK       I    between atoms: C_14  and  N_15 
ROOT
HETATM    1  C   UNL     1      44.268 -13.599   6.810  1.00  0.00     0.262 C 
HETATM    2  N   UNL     1      43.427 -14.689   6.721  1.00  0.00    -0.323 N 
HETATM    3  O   UNL     1      45.391 -13.541   6.316  1.00  0.00    -0.267 OA
HETATM    4  H   UNL     1      42.569 -14.646   7.270  1.00  0.00     0.169 HD
ENDROOT
BRANCH   2   5
HETATM    5  C   UNL     1      43.680 -15.936   6.107  1.00  0.00     0.036 A 
HETATM    6  C   UNL     1      43.274 -16.269   4.808  1.00  0.00     0.046 A 
HETATM    7  C   UNL     1      43.622 -17.529   4.270  1.00  0.00     0.030 A 
HETATM    8  C   UNL     1      44.348 -18.416   5.054  1.00  0.00     0.063 A 
HETATM    9  C   UNL     1      43.428 -18.206   3.027  1.00  0.00     0.156 A 
HETATM   10  N   UNL     1      44.538 -19.520   4.272  1.00  0.00    -0.277 N 
HETATM   11  C   UNL     1      44.750 -18.127   6.359  1.00  0.00     0.034 A 
HETATM   12  H   UNL     1      45.033 -20.369   4.519  1.00  0.00     0.189 HD
HETATM   13  N   UNL     1      44.002 -19.431   3.043  1.00  0.00    -0.168 NA
HETATM   14  C   UNL     1      44.403 -16.870   6.864  1.00  0.00     0.032 A 
BRANCH   9  15
HETATM   15  C   UNL     1      42.724 -17.713   1.836  1.00  0.00     0.270 C 
HETATM   16  N   UNL     1      43.552 -17.360   0.805  1.00  0.00    -0.365 N 
HETATM   17  H   UNL     1      44.553 -17.453   0.934  1.00  0.00     0.159 HD
HETATM   18  H   UNL     1      43.160 -16.997  -0.049  1.00  0.00     0.159 HD
HETATM   19  O   UNL     1      41.507 -17.607   1.735  1.00  0.00    -0.266 OA
ENDBRANCH   9  15
ENDBRANCH   2   5
BRANCH   1  20
HETATM   20  C   UNL     1      43.748 -12.447   7.647  1.00  0.00     0.114 C 
HETATM   21  C   UNL     1      44.440 -12.027   8.735  1.00  0.00    -0.027 C 
HETATM   22  C   UNL     1      45.853 -12.453   9.066  1.00  0.00     0.050 C 
HETATM   23  C   UNL     1      43.792 -11.091   9.680  1.00  0.00     0.005 A 
HETATM   24  C   UNL     1      42.537 -10.576   9.367  1.00  0.00     0.090 A 
HETATM   25  C   UNL     1      44.338 -10.724  10.920  1.00  0.00     0.015 A 
HETATM   26  O   UNL     1      41.896 -10.908   8.169  1.00  0.00    -0.274 OA
HETATM   27  C   UNL     1      41.842  -9.715  10.218  1.00  0.00     0.038 A 
HETATM   28  C   UNL     1      42.452 -11.816   7.290  1.00  0.00     0.304 C 
HETATM   29  O   UNL     1      41.895 -12.051   6.218  1.00  0.00    -0.259 OA
HETATM   30  C   UNL     1      42.405  -9.358  11.438  1.00  0.00     0.003 A 
HETATM   31  C   UNL     1      43.653  -9.864  11.790  1.00  0.00     0.001 A 
ENDBRANCH   1  20
TORSDOF 3
ENDMDL
MODEL 10
REMARK VINA RESULT:      -8.3      3.689      5.346
REMARK  3 active torsions:
REMARK  status: ('A' for Active; 'I' for Inactive)
REMARK    1  A    between atoms: C_3  and  C_4 
REMARK       I    between atoms: C_4  and  N_5 
REMARK    2  A    between atoms: N_5  and  C_6 
REMARK    3  A    between atoms: C_13  and  C_14 
REMARK       I    between atoms: C_14  and  N_15 
ROOT
HETATM    1  C   UNL     1      42.324 -15.882   2.291  1.00  0.00     0.262 C 
HETATM    2  N   UNL     1      41.304 -15.913   1.363  1.00  0.00    -0.323 N 
HETATM    3  O   UNL     1      42.850 -14.857   2.716  1.00  0.00    -0.267 OA
HETATM    4  H   UNL     1      41.036 -16.834   1.014  1.00  0.00     0.169 HD
ENDROOT
BRANCH   2   5
HETATM    5  C   UNL     1      40.699 -14.824   0.697  1.00  0.00     0.036 A 
HETATM    6  C   UNL     1      41.315 -14.088  -0.324  1.00  0.00     0.046 A 
HETATM    7  C   UNL     1      40.603 -13.046  -0.961  1.00  0.00     0.030 A 
HETATM    8  C   UNL     1      39.308 -12.767  -0.544  1.00  0.00     0.063 A 
HETATM    9  C   UNL     1      40.860 -12.120  -2.017  1.00  0.00     0.156 A 
HETATM   10  N   UNL     1      38.885 -11.739  -1.338  1.00  0.00    -0.277 N 
HETATM   11  C   UNL     1      38.671 -13.464   0.484  1.00  0.00     0.034 A 
HETATM   12  H   UNL     1      37.982 -11.279  -1.316  1.00  0.00     0.189 HD
HETATM   13  N   UNL     1      39.789 -11.323  -2.240  1.00  0.00    -0.168 NA
HETATM   14  C   UNL     1      39.394 -14.497   1.091  1.00  0.00     0.032 A 
BRANCH   9  15
HETATM   15  C   UNL     1      42.085 -11.986  -2.816  1.00  0.00     0.270 C 
HETATM   16  N   UNL     1      42.342 -13.058  -3.627  1.00  0.00    -0.365 N 
HETATM   17  H   UNL     1      41.699 -13.840  -3.614  1.00  0.00     0.159 HD
HETATM   18  H   UNL     1      43.169 -13.063  -4.202  1.00  0.00     0.159 HD
HETATM   19  O   UNL     1      42.839 -11.020  -2.786  1.00  0.00    -0.266 OA
ENDBRANCH   9  15
ENDBRANCH   2   5
BRANCH   1  20
HETATM   20  C   UNL     1      42.842 -17.238   2.730  1.00  0.00     0.114 C 
HETATM   21  C   UNL     1      42.604 -17.685   3.988  1.00  0.00    -0.027 C 
HETATM   22  C   UNL     1      41.631 -17.045   4.952  1.00  0.00     0.050 C 
HETATM   23  C   UNL     1      43.334 -18.876   4.476  1.00  0.00     0.005 A 
HETATM   24  C   UNL     1      44.156 -19.573   3.595  1.00  0.00     0.090 A 
HETATM   25  C   UNL     1      43.302 -19.326   5.806  1.00  0.00     0.015 A 
HETATM   26  O   UNL     1      44.281 -19.181   2.258  1.00  0.00    -0.274 OA
HETATM   27  C   UNL     1      44.906 -20.684   3.983  1.00  0.00     0.038 A 
HETATM   28  C   UNL     1      43.652 -18.048   1.784  1.00  0.00     0.304 C 
HETATM   29  O   UNL     1      43.732 -17.754   0.592  1.00  0.00    -0.259 OA
HETATM   30  C   UNL     1      44.852 -21.119   5.303  1.00  0.00     0.003 A 
HETATM   31  C   UNL     1      44.051 -20.437   6.215  1.00  0.00     0.001 A 
ENDBRANCH   1  20
TORSDOF 3
ENDMDL
