MODEL 1
REMARK VINA RESULT:      -9.0      0.000      0.000
REMARK  3 active torsions:
REMARK  status: ('A' for Active; 'I' for Inactive)
REMARK    1  A    between atoms: C_9  and  C_10 
REMARK       I    between atoms: C_10  and  N_11 
REMARK    2  A    between atoms: N_11  and  C_12 
REMARK    3  A    between atoms: C_14  and  C_15 
ROOT
HETATM    1  C   UNL     1      45.087 -13.239   7.662  1.00  0.00     0.252 C 
HETATM    2  N   UNL     1      43.995 -14.094   7.679  1.00  0.00    -0.325 N 
HETATM    3  O   UNL     1      46.082 -13.351   6.951  1.00  0.00    -0.270 OA
HETATM    4  H   UNL     1      43.342 -13.952   8.444  1.00  0.00     0.169 HD
ENDROOT
BRANCH   2   5
HETATM    5  C   UNL     1      43.742 -15.172   6.805  1.00  0.00     0.035 A 
HETATM    6  C   UNL     1      42.759 -15.142   5.809  1.00  0.00     0.042 A 
HETATM    7  C   UNL     1      42.515 -16.251   4.981  1.00  0.00    -0.021 A 
HETATM    8  C   UNL     1      43.289 -17.404   5.167  1.00  0.00     0.012 A 
HETATM    9  C   UNL     1      44.270 -17.447   6.160  1.00  0.00     0.003 A 
HETATM   10  C   UNL     1      44.492 -16.337   6.978  1.00  0.00     0.029 A 
BRANCH   7  11
HETATM   11  C   UNL     1      41.473 -16.181   3.963  1.00  0.00     0.010 A 
HETATM   12  C   UNL     1      41.200 -17.031   2.862  1.00  0.00     0.152 A 
HETATM   13  N   UNL     1      40.159 -16.621   2.132  1.00  0.00    -0.187 NA
HETATM   14  N   UNL     1      39.760 -15.504   2.759  1.00  0.00    -0.289 N 
HETATM   15  H   UNL     1      38.967 -14.999   2.378  1.00  0.00     0.188 HD
HETATM   16  C   UNL     1      40.512 -15.197   3.856  1.00  0.00     0.123 A 
ENDBRANCH   7  11
ENDBRANCH   2   5
BRANCH   1  17
HETATM   17  C   UNL     1      44.887 -12.018   8.565  1.00  0.00     0.225 C 
HETATM   18  C   UNL     1      45.133 -12.362  10.037  1.00  0.00     0.083 C 
HETATM   19  C   UNL     1      44.267 -11.327  10.642  1.00  0.00    -0.021 A 
HETATM   20  C   UNL     1      43.391 -10.850   9.684  1.00  0.00     0.076 A 
HETATM   21  C   UNL     1      44.221 -10.870  11.945  1.00  0.00     0.017 A 
HETATM   22  C   UNL     1      42.438  -9.900   9.983  1.00  0.00     0.044 A 
HETATM   23  O   UNL     1      43.578 -11.413   8.443  1.00  0.00    -0.336 OA
HETATM   24  C   UNL     1      42.383  -9.392  11.294  1.00  0.00    -0.053 A 
HETATM   25  C   UNL     1      43.273  -9.890  12.285  1.00  0.00    -0.055 A 
HETATM   26  C   UNL     1      41.365  -8.335  11.628  1.00  0.00     0.049 C 
HETATM   27  C   UNL     1      43.250  -9.364  13.696  1.00  0.00     0.049 C 
ENDBRANCH   1  17
TORSDOF 3
ENDMDL
MODEL 2
REMARK VINA RESULT:      -9.0      2.164      2.887
REMARK  3 active torsions:
REMARK  status: ('A' for Active; 'I' for Inactive)
REMARK    1  A    between atoms: C_9  and  C_10 
REMARK       I    between atoms: C_10  and  N_11 
REMARK    2  A    between atoms: N_11  and  C_12 
REMARK    3  A    between atoms: C_14  and  C_15 
ROOT
HETATM    1  C   UNL     1      45.126 -13.211   7.784  1.00  0.00     0.252 C 
HETATM    2  N   UNL     1      44.028 -14.046   7.630  1.00  0.00    -0.325 N 
HETATM    3  O   UNL     1      46.126 -13.193   7.072  1.00  0.00    -0.270 OA
HETATM    4  H   UNL     1      43.370 -14.047   8.403  1.00  0.00     0.169 HD
ENDROOT
BRANCH   2   5
HETATM    5  C   UNL     1      43.776 -14.934   6.564  1.00  0.00     0.035 A 
HETATM    6  C   UNL     1      43.997 -16.313   6.641  1.00  0.00     0.042 A 
HETATM    7  C   UNL     1      43.766 -17.159   5.543  1.00  0.00    -0.021 A 
HETATM    8  C   UNL     1      43.297 -16.592   4.352  1.00  0.00     0.012 A 
HETATM    9  C   UNL     1      43.077 -15.215   4.261  1.00  0.00     0.003 A 
HETATM   10  C   UNL     1      43.320 -14.390   5.361  1.00  0.00     0.029 A 
BRANCH   7  11
HETATM   11  C   UNL     1      44.020 -18.591   5.664  1.00  0.00     0.010 A 
HETATM   12  C   UNL     1      44.651 -19.495   4.772  1.00  0.00     0.152 A 
HETATM   13  N   UNL     1      44.676 -20.749   5.232  1.00  0.00    -0.187 NA
HETATM   14  N   UNL     1      44.060 -20.658   6.420  1.00  0.00    -0.289 N 
HETATM   15  H   UNL     1      43.952 -21.503   6.969  1.00  0.00     0.188 HD
HETATM   16  C   UNL     1      43.648 -19.392   6.724  1.00  0.00     0.123 A 
ENDBRANCH   7  11
ENDBRANCH   2   5
BRANCH   1  17
HETATM   17  C   UNL     1      44.926 -12.184   8.902  1.00  0.00     0.225 C 
HETATM   18  C   UNL     1      44.666 -12.864  10.250  1.00  0.00     0.083 C 
HETATM   19  C   UNL     1      43.890 -11.779  10.887  1.00  0.00    -0.021 A 
HETATM   20  C   UNL     1      43.439 -10.908   9.912  1.00  0.00     0.076 A 
HETATM   21  C   UNL     1      43.566 -11.592  12.217  1.00  0.00     0.017 A 
HETATM   22  C   UNL     1      42.652  -9.819  10.220  1.00  0.00     0.044 A 
HETATM   23  O   UNL     1      43.856 -11.245   8.645  1.00  0.00    -0.336 OA
HETATM   24  C   UNL     1      42.329  -9.584  11.569  1.00  0.00    -0.053 A 
HETATM   25  C   UNL     1      42.779 -10.484  12.573  1.00  0.00    -0.055 A 
HETATM   26  C   UNL     1      41.492  -8.384  11.922  1.00  0.00     0.049 C 
HETATM   27  C   UNL     1      42.460 -10.260  14.027  1.00  0.00     0.049 C 
ENDBRANCH   1  17
TORSDOF 3
ENDMDL
MODEL 3
REMARK VINA RESULT:      -8.8      6.738      9.805
REMARK  3 active torsions:
REMARK  status: ('A' for Active; 'I' for Inactive)
REMARK    1  A    between atoms: C_9  and  C_10 
REMARK       I    between atoms: C_10  and  N_11 
REMARK    2  A    between atoms: N_11  and  C_12 
REMARK    3  A    between atoms: C_14  and  C_15 
ROOT
HETATM    1  C   UNL     1      41.145 -15.664   1.116  1.00  0.00     0.252 C 
HETATM    2  N   UNL     1      42.474 -15.924   1.417  1.00  0.00    -0.325 N 
HETATM    3  O   UNL     1      40.170 -16.239   1.591  1.00  0.00    -0.270 OA
HETATM    4  H   UNL     1      43.154 -15.477   0.809  1.00  0.00     0.169 HD
ENDROOT
BRANCH   2   5
HETATM    5  C   UNL     1      42.968 -16.792   2.413  1.00  0.00     0.035 A 
HETATM    6  C   UNL     1      43.293 -18.132   2.176  1.00  0.00     0.042 A 
HETATM    7  C   UNL     1      43.749 -18.973   3.206  1.00  0.00    -0.021 A 
HETATM    8  C   UNL     1      43.882 -18.437   4.493  1.00  0.00     0.012 A 
HETATM    9  C   UNL     1      43.557 -17.102   4.743  1.00  0.00     0.003 A 
HETATM   10  C   UNL     1      43.098 -16.285   3.708  1.00  0.00     0.029 A 
BRANCH   7  11
HETATM   11  C   UNL     1      44.066 -20.367   2.917  1.00  0.00     0.010 A 
HETATM   12  C   UNL     1      43.824 -21.148   1.759  1.00  0.00     0.152 A 
HETATM   13  N   UNL     1      44.247 -22.409   1.882  1.00  0.00    -0.187 NA
HETATM   14  N   UNL     1      44.760 -22.446   3.120  1.00  0.00    -0.289 N 
HETATM   15  H   UNL     1      45.148 -23.322   3.451  1.00  0.00     0.188 HD
HETATM   16  C   UNL     1      44.675 -21.254   3.781  1.00  0.00     0.123 A 
ENDBRANCH   7  11
ENDBRANCH   2   5
BRANCH   1  17
HETATM   17  C   UNL     1      40.982 -14.461   0.181  1.00  0.00     0.225 C 
HETATM   18  C   UNL     1      41.235 -14.847  -1.280  1.00  0.00     0.083 C 
HETATM   19  C   UNL     1      41.670 -13.523  -1.774  1.00  0.00    -0.021 A 
HETATM   20  C   UNL     1      42.022 -12.728  -0.698  1.00  0.00     0.076 A 
HETATM   21  C   UNL     1      41.793 -13.065  -3.071  1.00  0.00     0.017 A 
HETATM   22  C   UNL     1      42.506 -11.449  -0.869  1.00  0.00     0.044 A 
HETATM   23  O   UNL     1      41.837 -13.343   0.519  1.00  0.00    -0.336 OA
HETATM   24  C   UNL     1      42.614 -10.941  -2.177  1.00  0.00    -0.053 A 
HETATM   25  C   UNL     1      42.267 -11.760  -3.286  1.00  0.00    -0.055 A 
HETATM   26  C   UNL     1      43.116  -9.536  -2.377  1.00  0.00     0.049 C 
HETATM   27  C   UNL     1      42.362 -11.248  -4.699  1.00  0.00     0.049 C 
ENDBRANCH   1  17
TORSDOF 3
ENDMDL
MODEL 4
REMARK VINA RESULT:      -8.7      5.896      9.643
REMARK  3 active torsions:
REMARK  status: ('A' for Active; 'I' for Inactive)
REMARK    1  A    between atoms: C_9  and  C_10 
REMARK       I    between atoms: C_10  and  N_11 
REMARK    2  A    between atoms: N_11  and  C_12 
REMARK    3  A    between atoms: C_14  and  C_15 
ROOT
HETATM    1  C   UNL     1      41.090 -16.147   1.188  1.00  0.00     0.252 C 
HETATM    2  N   UNL     1      42.412 -16.550   1.309  1.00  0.00    -0.325 N 
HETATM    3  O   UNL     1      40.127 -16.644   1.765  1.00  0.00    -0.270 OA
HETATM    4  H   UNL     1      43.054 -16.145   0.634  1.00  0.00     0.169 HD
ENDROOT
BRANCH   2   5
HETATM    5  C   UNL     1      42.934 -17.503   2.208  1.00  0.00     0.035 A 
HETATM    6  C   UNL     1      42.884 -17.358   3.599  1.00  0.00     0.042 A 
HETATM    7  C   UNL     1      43.448 -18.316   4.460  1.00  0.00    -0.021 A 
HETATM    8  C   UNL     1      44.065 -19.439   3.895  1.00  0.00     0.012 A 
HETATM    9  C   UNL     1      44.124 -19.591   2.507  1.00  0.00     0.003 A 
HETATM   10  C   UNL     1      43.565 -18.626   1.668  1.00  0.00     0.029 A 
BRANCH   7  11
HETATM   11  C   UNL     1      43.383 -18.120   5.904  1.00  0.00     0.010 A 
HETATM   12  C   UNL     1      43.003 -16.986   6.666  1.00  0.00     0.152 A 
HETATM   13  N   UNL     1      43.095 -17.188   7.983  1.00  0.00    -0.187 NA
HETATM   14  N   UNL     1      43.537 -18.451   8.075  1.00  0.00    -0.289 N 
HETATM   15  H   UNL     1      43.692 -18.838   8.999  1.00  0.00     0.188 HD
HETATM   16  C   UNL     1      43.726 -19.051   6.863  1.00  0.00     0.123 A 
ENDBRANCH   7  11
ENDBRANCH   2   5
BRANCH   1  17
HETATM   17  C   UNL     1      40.938 -14.895   0.318  1.00  0.00     0.225 C 
HETATM   18  C   UNL     1      41.149 -15.213  -1.166  1.00  0.00     0.083 C 
HETATM   19  C   UNL     1      41.607 -13.877  -1.603  1.00  0.00    -0.021 A 
HETATM   20  C   UNL     1      42.002 -13.146  -0.497  1.00  0.00     0.076 A 
HETATM   21  C   UNL     1      41.713 -13.358  -2.879  1.00  0.00     0.017 A 
HETATM   22  C   UNL     1      42.514 -11.872  -0.616  1.00  0.00     0.044 A 
HETATM   23  O   UNL     1      41.827 -13.817   0.691  1.00  0.00    -0.336 OA
HETATM   24  C   UNL     1      42.607 -11.302  -1.899  1.00  0.00    -0.053 A 
HETATM   25  C   UNL     1      42.216 -12.055  -3.039  1.00  0.00    -0.055 A 
HETATM   26  C   UNL     1      43.140  -9.901  -2.040  1.00  0.00     0.049 C 
HETATM   27  C   UNL     1      42.293 -11.475  -4.427  1.00  0.00     0.049 C 
ENDBRANCH   1  17
TORSDOF 3
ENDMDL
MODEL 5
REMARK VINA RESULT:      -8.5      4.200      9.479
REMARK  3 active torsions:
REMARK  status: ('A' for Active; 'I' for Inactive)
REMARK    1  A    between atoms: C_9  and  C_10 
REMARK       I    between atoms: C_10  and  N_11 
REMARK    2  A    between atoms: N_11  and  C_12 
REMARK    3  A    between atoms: C_14  and  C_15 
ROOT
HETATM    1  C   UNL     1      41.540 -15.568   3.517  1.00  0.00     0.252 C 
HETATM    2  N   UNL     1      40.357 -15.183   4.128  1.00  0.00    -0.325 N 
HETATM    3  O   UNL     1      42.373 -14.818   3.016  1.00  0.00    -0.270 OA
HETATM    4  H   UNL     1      39.706 -15.936   4.333  1.00  0.00     0.169 HD
ENDROOT
BRANCH   2   5
HETATM    5  C   UNL     1      39.937 -13.868   4.420  1.00  0.00     0.035 A 
HETATM    6  C   UNL     1      39.953 -13.322   5.708  1.00  0.00     0.042 A 
HETATM    7  C   UNL     1      39.492 -12.019   5.962  1.00  0.00    -0.021 A 
HETATM    8  C   UNL     1      39.015 -11.260   4.886  1.00  0.00     0.012 A 
HETATM    9  C   UNL     1      38.989 -11.796   3.596  1.00  0.00     0.003 A 
HETATM   10  C   UNL     1      39.444 -13.096   3.366  1.00  0.00     0.029 A 
BRANCH   7  11
HETATM   11  C   UNL     1      39.517 -11.493   7.322  1.00  0.00     0.010 A 
HETATM   12  C   UNL     1      39.995 -10.257   7.826  1.00  0.00     0.152 A 
HETATM   13  N   UNL     1      39.863 -10.146   9.150  1.00  0.00    -0.187 NA
HETATM   14  N   UNL     1      39.301 -11.311   9.505  1.00  0.00    -0.289 N 
HETATM   15  H   UNL     1      39.103 -11.467  10.487  1.00  0.00     0.188 HD
HETATM   16  C   UNL     1      39.076 -12.150   8.452  1.00  0.00     0.123 A 
ENDBRANCH   7  11
ENDBRANCH   2   5
BRANCH   1  17
HETATM   17  C   UNL     1      41.790 -17.076   3.625  1.00  0.00     0.225 C 
HETATM   18  C   UNL     1      42.799 -17.400   4.732  1.00  0.00     0.083 C 
HETATM   19  C   UNL     1      43.317 -18.669   4.179  1.00  0.00    -0.021 A 
HETATM   20  C   UNL     1      42.988 -18.750   2.838  1.00  0.00     0.076 A 
HETATM   21  C   UNL     1      44.060 -19.658   4.794  1.00  0.00     0.017 A 
HETATM   22  C   UNL     1      43.382 -19.815   2.058  1.00  0.00     0.044 A 
HETATM   23  O   UNL     1      42.247 -17.680   2.393  1.00  0.00    -0.336 OA
HETATM   24  C   UNL     1      44.114 -20.855   2.661  1.00  0.00    -0.053 A 
HETATM   25  C   UNL     1      44.466 -20.769   4.035  1.00  0.00    -0.055 A 
HETATM   26  C   UNL     1      44.528 -22.037   1.826  1.00  0.00     0.049 C 
HETATM   27  C   UNL     1      45.241 -21.866   4.716  1.00  0.00     0.049 C 
ENDBRANCH   1  17
TORSDOF 3
ENDMDL
MODEL 6
REMARK VINA RESULT:      -8.5      7.531      9.862
REMARK  3 active torsions:
REMARK  status: ('A' for Active; 'I' for Inactive)
REMARK    1  A    between atoms: C_9  and  C_10 
REMARK       I    between atoms: C_10  and  N_11 
REMARK    2  A    between atoms: N_11  and  C_12 
REMARK    3  A    between atoms: C_14  and  C_15 
ROOT
HETATM    1  C   UNL     1      42.657 -15.573   1.874  1.00  0.00     0.252 C 
HETATM    2  N   UNL     1      41.637 -15.952   1.014  1.00  0.00    -0.325 N 
HETATM    3  O   UNL     1      42.806 -14.461   2.373  1.00  0.00    -0.270 OA
HETATM    4  H   UNL     1      41.760 -16.854   0.563  1.00  0.00     0.169 HD
ENDROOT
BRANCH   2   5
HETATM    5  C   UNL     1      40.504 -15.195   0.650  1.00  0.00     0.035 A 
HETATM    6  C   UNL     1      40.395 -14.508  -0.565  1.00  0.00     0.042 A 
HETATM    7  C   UNL     1      39.263 -13.735  -0.875  1.00  0.00    -0.021 A 
HETATM    8  C   UNL     1      38.225 -13.668   0.063  1.00  0.00     0.012 A 
HETATM    9  C   UNL     1      38.324 -14.346   1.281  1.00  0.00     0.003 A 
HETATM   10  C   UNL     1      39.461 -15.103   1.573  1.00  0.00     0.029 A 
BRANCH   7  11
HETATM   11  C   UNL     1      39.195 -13.026  -2.147  1.00  0.00     0.010 A 
HETATM   12  C   UNL     1      40.166 -12.240  -2.819  1.00  0.00     0.152 A 
HETATM   13  N   UNL     1      39.719 -11.729  -3.969  1.00  0.00    -0.187 NA
HETATM   14  N   UNL     1      38.458 -12.182  -4.042  1.00  0.00    -0.289 N 
HETATM   15  H   UNL     1      37.900 -11.916  -4.846  1.00  0.00     0.188 HD
HETATM   16  C   UNL     1      38.097 -12.958  -2.979  1.00  0.00     0.123 A 
ENDBRANCH   7  11
ENDBRANCH   2   5
BRANCH   1  17
HETATM   17  C   UNL     1      43.561 -16.747   2.262  1.00  0.00     0.225 C 
HETATM   18  C   UNL     1      43.368 -17.940   1.319  1.00  0.00     0.083 C 
HETATM   19  C   UNL     1      43.766 -19.013   2.255  1.00  0.00    -0.021 A 
HETATM   20  C   UNL     1      43.724 -18.528   3.550  1.00  0.00     0.076 A 
HETATM   21  C   UNL     1      44.097 -20.329   1.994  1.00  0.00     0.017 A 
HETATM   22  C   UNL     1      44.011 -19.330   4.633  1.00  0.00     0.044 A 
HETATM   23  O   UNL     1      43.376 -17.199   3.623  1.00  0.00    -0.336 OA
HETATM   24  C   UNL     1      44.381 -20.667   4.401  1.00  0.00    -0.053 A 
HETATM   25  C   UNL     1      44.412 -21.173   3.073  1.00  0.00    -0.055 A 
HETATM   26  C   UNL     1      44.723 -21.547   5.574  1.00  0.00     0.049 C 
HETATM   27  C   UNL     1      44.813 -22.596   2.785  1.00  0.00     0.049 C 
ENDBRANCH   1  17
TORSDOF 3
ENDMDL
MODEL 7
REMARK VINA RESULT:      -8.5      7.371     10.167
REMARK  3 active torsions:
REMARK  status: ('A' for Active; 'I' for Inactive)
REMARK    1  A    between atoms: C_9  and  C_10 
REMARK       I    between atoms: C_10  and  N_11 
REMARK    2  A    between atoms: N_11  and  C_12 
REMARK    3  A    between atoms: C_14  and  C_15 
ROOT
HETATM    1  C   UNL     1      40.197 -15.688   1.542  1.00  0.00     0.252 C 
HETATM    2  N   UNL     1      40.892 -15.331   0.396  1.00  0.00    -0.325 N 
HETATM    3  O   UNL     1      39.194 -15.134   1.982  1.00  0.00    -0.270 OA
HETATM    4  H   UNL     1      41.792 -15.785   0.273  1.00  0.00     0.169 HD
ENDROOT
BRANCH   2   5
HETATM    5  C   UNL     1      40.519 -14.363  -0.560  1.00  0.00     0.035 A 
HETATM    6  C   UNL     1      39.455 -14.533  -1.454  1.00  0.00     0.042 A 
HETATM    7  C   UNL     1      39.139 -13.558  -2.415  1.00  0.00    -0.021 A 
HETATM    8  C   UNL     1      39.913 -12.391  -2.461  1.00  0.00     0.012 A 
HETATM    9  C   UNL     1      40.980 -12.213  -1.577  1.00  0.00     0.003 A 
HETATM   10  C   UNL     1      41.283 -13.197  -0.634  1.00  0.00     0.029 A 
BRANCH   7  11
HETATM   11  C   UNL     1      38.029 -13.780  -3.335  1.00  0.00     0.010 A 
HETATM   12  C   UNL     1      37.485 -14.983  -3.852  1.00  0.00     0.152 A 
HETATM   13  N   UNL     1      36.470 -14.776  -4.696  1.00  0.00    -0.187 NA
HETATM   14  N   UNL     1      36.359 -13.440  -4.728  1.00  0.00    -0.289 N 
HETATM   15  H   UNL     1      35.642 -13.034  -5.319  1.00  0.00     0.188 HD
HETATM   16  C   UNL     1      37.266 -12.799  -3.935  1.00  0.00     0.123 A 
ENDBRANCH   7  11
ENDBRANCH   2   5
BRANCH   1  17
HETATM   17  C   UNL     1      40.746 -16.967   2.183  1.00  0.00     0.225 C 
HETATM   18  C   UNL     1      41.624 -16.654   3.399  1.00  0.00     0.083 C 
HETATM   19  C   UNL     1      42.479 -17.859   3.356  1.00  0.00    -0.021 A 
HETATM   20  C   UNL     1      42.378 -18.445   2.107  1.00  0.00     0.076 A 
HETATM   21  C   UNL     1      43.317 -18.378   4.324  1.00  0.00     0.017 A 
HETATM   22  C   UNL     1      43.104 -19.569   1.773  1.00  0.00     0.044 A 
HETATM   23  O   UNL     1      41.500 -17.798   1.270  1.00  0.00    -0.336 OA
HETATM   24  C   UNL     1      43.944 -20.140   2.746  1.00  0.00    -0.053 A 
HETATM   25  C   UNL     1      44.061 -19.533   4.026  1.00  0.00    -0.055 A 
HETATM   26  C   UNL     1      44.721 -21.382   2.403  1.00  0.00     0.049 C 
HETATM   27  C   UNL     1      44.943 -20.121   5.096  1.00  0.00     0.049 C 
ENDBRANCH   1  17
TORSDOF 3
ENDMDL
MODEL 8
REMARK VINA RESULT:      -8.4      7.568     10.390
REMARK  3 active torsions:
REMARK  status: ('A' for Active; 'I' for Inactive)
REMARK    1  A    between atoms: C_9  and  C_10 
REMARK       I    between atoms: C_10  and  N_11 
REMARK    2  A    between atoms: N_11  and  C_12 
REMARK    3  A    between atoms: C_14  and  C_15 
ROOT
HETATM    1  C   UNL     1      40.920 -15.653   0.923  1.00  0.00     0.252 C 
HETATM    2  N   UNL     1      41.758 -15.490  -0.170  1.00  0.00    -0.325 N 
HETATM    3  O   UNL     1      39.926 -14.980   1.178  1.00  0.00    -0.270 OA
HETATM    4  H   UNL     1      42.625 -16.018  -0.136  1.00  0.00     0.169 HD
ENDROOT
BRANCH   2   5
HETATM    5  C   UNL     1      41.569 -14.625  -1.268  1.00  0.00     0.035 A 
HETATM    6  C   UNL     1      42.045 -13.310  -1.304  1.00  0.00     0.042 A 
HETATM    7  C   UNL     1      41.805 -12.469  -2.404  1.00  0.00    -0.021 A 
HETATM    8  C   UNL     1      41.073 -12.978  -3.484  1.00  0.00     0.012 A 
HETATM    9  C   UNL     1      40.588 -14.288  -3.458  1.00  0.00     0.003 A 
HETATM   10  C   UNL     1      40.831 -15.106  -2.353  1.00  0.00     0.029 A 
BRANCH   7  11
HETATM   11  C   UNL     1      42.311 -11.101  -2.395  1.00  0.00     0.010 A 
HETATM   12  C   UNL     1      42.054 -10.016  -3.271  1.00  0.00     0.152 A 
HETATM   13  N   UNL     1      42.730  -8.911  -2.945  1.00  0.00    -0.187 NA
HETATM   14  N   UNL     1      43.426  -9.280  -1.860  1.00  0.00    -0.289 N 
HETATM   15  H   UNL     1      44.032  -8.594  -1.424  1.00  0.00     0.188 HD
HETATM   16  C   UNL     1      43.212 -10.578  -1.492  1.00  0.00     0.123 A 
ENDBRANCH   7  11
ENDBRANCH   2   5
BRANCH   1  17
HETATM   17  C   UNL     1      41.290 -16.877   1.766  1.00  0.00     0.225 C 
HETATM   18  C   UNL     1      42.288 -16.516   2.872  1.00  0.00     0.083 C 
HETATM   19  C   UNL     1      42.926 -17.841   3.019  1.00  0.00    -0.021 A 
HETATM   20  C   UNL     1      42.647 -18.609   1.903  1.00  0.00     0.076 A 
HETATM   21  C   UNL     1      43.729 -18.323   4.035  1.00  0.00     0.017 A 
HETATM   22  C   UNL     1      43.152 -19.882   1.754  1.00  0.00     0.044 A 
HETATM   23  O   UNL     1      41.833 -17.973   0.993  1.00  0.00    -0.336 OA
HETATM   24  C   UNL     1      43.948 -20.414   2.784  1.00  0.00    -0.053 A 
HETATM   25  C   UNL     1      44.250 -19.624   3.927  1.00  0.00    -0.055 A 
HETATM   26  C   UNL     1      44.485 -21.814   2.646  1.00  0.00     0.049 C 
HETATM   27  C   UNL     1      45.092 -20.162   5.053  1.00  0.00     0.049 C 
ENDBRANCH   1  17
TORSDOF 3
ENDMDL
MODEL 9
REMARK VINA RESULT:      -8.3      6.424      9.613
REMARK  3 active torsions:
REMARK  status: ('A' for Active; 'I' for Inactive)
REMARK    1  A    between atoms: C_9  and  C_10 
REMARK       I    between atoms: C_10  and  N_11 
REMARK    2  A    between atoms: N_11  and  C_12 
REMARK    3  A    between atoms: C_14  and  C_15 
ROOT
HETATM    1  C   UNL     1      41.436 -16.453   2.497  1.00  0.00     0.252 C 
HETATM    2  N   UNL     1      42.783 -16.502   2.822  1.00  0.00    -0.325 N 
HETATM    3  O   UNL     1      40.570 -17.231   2.887  1.00  0.00    -0.270 OA
HETATM    4  H   UNL     1      43.385 -15.889   2.279  1.00  0.00     0.169 HD
ENDROOT
BRANCH   2   5
HETATM    5  C   UNL     1      43.404 -17.355   3.757  1.00  0.00     0.035 A 
HETATM    6  C   UNL     1      43.683 -18.703   3.505  1.00  0.00     0.042 A 
HETATM    7  C   UNL     1      44.271 -19.529   4.479  1.00  0.00    -0.021 A 
HETATM    8  C   UNL     1      44.586 -18.970   5.724  1.00  0.00     0.012 A 
HETATM    9  C   UNL     1      44.308 -17.627   5.989  1.00  0.00     0.003 A 
HETATM   10  C   UNL     1      43.716 -16.825   5.011  1.00  0.00     0.029 A 
BRANCH   7  11
HETATM   11  C   UNL     1      44.534 -20.931   4.177  1.00  0.00     0.010 A 
HETATM   12  C   UNL     1      44.469 -21.640   2.951  1.00  0.00     0.152 A 
HETATM   13  N   UNL     1      44.764 -22.936   3.081  1.00  0.00    -0.187 NA
HETATM   14  N   UNL     1      45.017 -23.068   4.391  1.00  0.00    -0.289 N 
HETATM   15  H   UNL     1      45.265 -23.987   4.740  1.00  0.00     0.188 HD
HETATM   16  C   UNL     1      44.892 -21.902   5.090  1.00  0.00     0.123 A 
ENDBRANCH   7  11
ENDBRANCH   2   5
BRANCH   1  17
HETATM   17  C   UNL     1      41.080 -15.218   1.664  1.00  0.00     0.225 C 
HETATM   18  C   UNL     1      39.565 -14.992   1.614  1.00  0.00     0.083 C 
HETATM   19  C   UNL     1      39.503 -14.277   0.321  1.00  0.00    -0.021 A 
HETATM   20  C   UNL     1      40.675 -14.498  -0.379  1.00  0.00     0.076 A 
HETATM   21  C   UNL     1      38.477 -13.525  -0.220  1.00  0.00     0.017 A 
HETATM   22  C   UNL     1      40.874 -13.981  -1.641  1.00  0.00     0.044 A 
HETATM   23  O   UNL     1      41.585 -15.266   0.309  1.00  0.00    -0.336 OA
HETATM   24  C   UNL     1      39.861 -13.186  -2.209  1.00  0.00    -0.053 A 
HETATM   25  C   UNL     1      38.649 -12.967  -1.499  1.00  0.00    -0.055 A 
HETATM   26  C   UNL     1      40.076 -12.592  -3.576  1.00  0.00     0.049 C 
HETATM   27  C   UNL     1      37.547 -12.115  -2.070  1.00  0.00     0.049 C 
ENDBRANCH   1  17
TORSDOF 3
ENDMDL
MODEL 10
REMARK VINA RESULT:      -8.1      5.805      9.457
REMARK  3 active torsions:
REMARK  status: ('A' for Active; 'I' for Inactive)
REMARK    1  A    between atoms: C_9  and  C_10 
REMARK       I    between atoms: C_10  and  N_11 
REMARK    2  A    between atoms: N_11  and  C_12 
REMARK    3  A    between atoms: C_14  and  C_15 
ROOT
HETATM    1  C   UNL     1      42.031 -16.913   1.534  1.00  0.00     0.252 C 
HETATM    2  N   UNL     1      43.307 -17.280   1.934  1.00  0.00    -0.325 N 
HETATM    3  O   UNL     1      40.978 -17.367   1.972  1.00  0.00    -0.270 OA
HETATM    4  H   UNL     1      44.063 -16.933   1.351  1.00  0.00     0.169 HD
ENDROOT
BRANCH   2   5
HETATM    5  C   UNL     1      43.653 -18.133   3.003  1.00  0.00     0.035 A 
HETATM    6  C   UNL     1      43.548 -17.764   4.348  1.00  0.00     0.042 A 
HETATM    7  C   UNL     1      43.937 -18.632   5.383  1.00  0.00    -0.021 A 
HETATM    8  C   UNL     1      44.435 -19.895   5.041  1.00  0.00     0.012 A 
HETATM    9  C   UNL     1      44.549 -20.273   3.701  1.00  0.00     0.003 A 
HETATM   10  C   UNL     1      44.164 -19.394   2.687  1.00  0.00     0.029 A 
BRANCH   7  11
HETATM   11  C   UNL     1      43.820 -18.202   6.772  1.00  0.00     0.010 A 
HETATM   12  C   UNL     1      43.497 -16.936   7.323  1.00  0.00     0.152 A 
HETATM   13  N   UNL     1      43.511 -16.929   8.659  1.00  0.00    -0.187 NA
HETATM   14  N   UNL     1      43.845 -18.189   8.973  1.00  0.00    -0.289 N 
HETATM   15  H   UNL     1      43.925 -18.433   9.954  1.00  0.00     0.188 HD
HETATM   16  C   UNL     1      44.043 -18.988   7.884  1.00  0.00     0.123 A 
ENDBRANCH   7  11
ENDBRANCH   2   5
BRANCH   1  17
HETATM   17  C   UNL     1      42.043 -15.755   0.532  1.00  0.00     0.225 C 
HETATM   18  C   UNL     1      41.753 -14.416   1.218  1.00  0.00     0.083 C 
HETATM   19  C   UNL     1      41.181 -13.704   0.056  1.00  0.00    -0.021 A 
HETATM   20  C   UNL     1      40.816 -14.626  -0.909  1.00  0.00     0.076 A 
HETATM   21  C   UNL     1      40.956 -12.353  -0.125  1.00  0.00     0.017 A 
HETATM   22  C   UNL     1      40.216 -14.241  -2.089  1.00  0.00     0.044 A 
HETATM   23  O   UNL     1      41.113 -15.924  -0.564  1.00  0.00    -0.336 OA
HETATM   24  C   UNL     1      40.000 -12.870  -2.317  1.00  0.00    -0.053 A 
HETATM   25  C   UNL     1      40.361 -11.920  -1.323  1.00  0.00    -0.055 A 
HETATM   26  C   UNL     1      39.370 -12.434  -3.613  1.00  0.00     0.049 C 
HETATM   27  C   UNL     1      40.153 -10.444  -1.535  1.00  0.00     0.049 C 
ENDBRANCH   1  17
TORSDOF 3
ENDMDL
