MODEL 1
REMARK VINA RESULT:      -9.0      0.000      0.000
REMARK  8 active torsions:
REMARK  status: ('A' for Active; 'I' for Inactive)
REMARK    1  A    between atoms: C_2  and  O_3 
REMARK    2  A    between atoms: O_3  and  C_4 
REMARK    3  A    between atoms: C_4  and  C_5 
REMARK    4  A    between atoms: C_6  and  C_8 
REMARK    5  A    between atoms: C_6  and  O_7 
REMARK    6  A    between atoms: C_16  and  C_17 
REMARK    7  A    between atoms: C_18  and  C_19 
REMARK    8  A    between atoms: N_26  and  C_27 
ROOT
HETATM    1  C   UNL     1      43.399 -17.660   5.598  1.00  0.00     0.177 C 
HETATM    2  C   UNL     1      42.406 -17.012   6.577  1.00  0.00     0.250 C 
HETATM    3  N   UNL     1      42.821 -15.678   6.954  1.00  0.00    -0.303 N 
HETATM    4  C   UNL     1      43.415 -14.819   6.097  1.00  0.00     0.319 C 
HETATM    5  O   UNL     1      43.490 -13.623   6.342  1.00  0.00    -0.247 OA
HETATM    6  N   UNL     1      43.971 -15.347   4.985  1.00  0.00    -0.333 N 
HETATM    7  C   UNL     1      43.802 -16.700   4.480  1.00  0.00     0.142 C 
HETATM    8  H   UNL     1      42.320 -15.219   7.707  1.00  0.00     0.167 HD
HETATM    9  H   UNL     1      44.411 -14.661   4.382  1.00  0.00     0.165 HD
ENDROOT
BRANCH   7  10
HETATM   10  C   UNL     1      42.885 -16.655   3.282  1.00  0.00     0.015 A 
HETATM   11  C   UNL     1      42.610 -17.675   2.316  1.00  0.00     0.097 A 
HETATM   12  N   UNL     1      41.678 -17.275   1.441  1.00  0.00    -0.167 NA
HETATM   13  N   UNL     1      41.351 -16.013   1.792  1.00  0.00    -0.244 N 
HETATM   14  C   UNL     1      42.111 -15.588   2.854  1.00  0.00     0.130 A 
BRANCH  11  15
HETATM   15  C   UNL     1      43.161 -19.024   2.213  1.00  0.00    -0.005 A 
HETATM   16  C   UNL     1      42.351 -20.070   1.743  1.00  0.00     0.014 A 
HETATM   17  C   UNL     1      42.852 -21.370   1.651  1.00  0.00     0.001 A 
HETATM   18  C   UNL     1      44.166 -21.637   2.024  1.00  0.00     0.000 A 
HETATM   19  C   UNL     1      44.984 -20.604   2.481  1.00  0.00     0.001 A 
HETATM   20  C   UNL     1      44.487 -19.300   2.569  1.00  0.00     0.014 A 
ENDBRANCH  11  15
BRANCH  13  21
HETATM   21  C   UNL     1      40.323 -15.300   1.112  1.00  0.00     0.058 A 
HETATM   22  C   UNL     1      39.079 -15.121   1.737  1.00  0.00     0.031 A 
HETATM   23  C   UNL     1      38.068 -14.401   1.097  1.00  0.00     0.002 A 
HETATM   24  C   UNL     1      38.287 -13.859  -0.168  1.00  0.00     0.000 A 
HETATM   25  C   UNL     1      39.518 -14.037  -0.796  1.00  0.00     0.002 A 
HETATM   26  C   UNL     1      40.537 -14.754  -0.162  1.00  0.00     0.031 A 
ENDBRANCH  13  21
ENDBRANCH   7  10
BRANCH   1  27
HETATM   27  C   UNL     1      44.692 -18.141   6.230  1.00  0.00     0.270 C 
HETATM   28  O   UNL     1      45.354 -17.443   6.989  1.00  0.00    -0.265 OA
BRANCH  27  29
HETATM   29  O   UNL     1      44.980 -19.437   5.937  1.00  0.00    -0.321 OA
BRANCH  29  30
HETATM   30  C   UNL     1      43.971 -20.415   6.239  1.00  0.00     0.174 C 
HETATM   31  C   UNL     1      44.464 -21.788   5.828  1.00  0.00     0.034 C 
ENDBRANCH  29  30
ENDBRANCH  27  29
ENDBRANCH   1  27
BRANCH   2  32
HETATM   32  C   UNL     1      40.943 -17.026   5.998  1.00  0.00     0.439 C 
HETATM   33  F   UNL     1      40.775 -17.999   5.073  1.00  0.00    -0.166 F 
HETATM   34  F   UNL     1      40.040 -17.250   6.989  1.00  0.00    -0.166 F 
HETATM   35  F   UNL     1      40.593 -15.853   5.433  1.00  0.00    -0.166 F 
ENDBRANCH   2  32
BRANCH   2  36
HETATM   36  O   UNL     1      42.406 -17.736   7.816  1.00  0.00    -0.363 OA
HETATM   37  H   UNL     1      42.566 -18.665   7.564  1.00  0.00     0.213 HD
ENDBRANCH   2  36
TORSDOF 8
ENDMDL
MODEL 2
REMARK VINA RESULT:      -8.4      2.604      6.551
REMARK  8 active torsions:
REMARK  status: ('A' for Active; 'I' for Inactive)
REMARK    1  A    between atoms: C_2  and  O_3 
REMARK    2  A    between atoms: O_3  and  C_4 
REMARK    3  A    between atoms: C_4  and  C_5 
REMARK    4  A    between atoms: C_6  and  C_8 
REMARK    5  A    between atoms: C_6  and  O_7 
REMARK    6  A    between atoms: C_16  and  C_17 
REMARK    7  A    between atoms: C_18  and  C_19 
REMARK    8  A    between atoms: N_26  and  C_27 
ROOT
HETATM    1  C   UNL     1      41.078 -13.735   2.901  1.00  0.00     0.177 C 
HETATM    2  C   UNL     1      41.979 -13.509   4.126  1.00  0.00     0.250 C 
HETATM    3  N   UNL     1      41.325 -13.913   5.352  1.00  0.00    -0.303 N 
HETATM    4  C   UNL     1      40.512 -14.989   5.437  1.00  0.00     0.319 C 
HETATM    5  O   UNL     1      40.210 -15.477   6.517  1.00  0.00    -0.247 OA
HETATM    6  N   UNL     1      40.004 -15.467   4.280  1.00  0.00    -0.333 N 
HETATM    7  C   UNL     1      40.414 -15.111   2.931  1.00  0.00     0.142 C 
HETATM    8  H   UNL     1      41.770 -13.669   6.231  1.00  0.00     0.167 HD
HETATM    9  H   UNL     1      39.395 -16.268   4.402  1.00  0.00     0.165 HD
ENDROOT
BRANCH   7  10
HETATM   10  C   UNL     1      41.221 -16.249   2.357  1.00  0.00     0.015 A 
HETATM   11  C   UNL     1      41.713 -16.426   1.025  1.00  0.00     0.097 A 
HETATM   12  N   UNL     1      42.455 -17.537   0.926  1.00  0.00    -0.167 NA
HETATM   13  N   UNL     1      42.444 -18.106   2.150  1.00  0.00    -0.244 N 
HETATM   14  C   UNL     1      41.653 -17.391   3.015  1.00  0.00     0.130 A 
BRANCH  11  15
HETATM   15  C   UNL     1      41.545 -15.566  -0.145  1.00  0.00    -0.005 A 
HETATM   16  C   UNL     1      40.920 -16.074  -1.294  1.00  0.00     0.014 A 
HETATM   17  C   UNL     1      40.764 -15.276  -2.429  1.00  0.00     0.001 A 
HETATM   18  C   UNL     1      41.228 -13.963  -2.425  1.00  0.00     0.000 A 
HETATM   19  C   UNL     1      41.840 -13.444  -1.285  1.00  0.00     0.001 A 
HETATM   20  C   UNL     1      41.993 -14.240  -0.145  1.00  0.00     0.014 A 
ENDBRANCH  11  15
BRANCH  13  21
HETATM   21  C   UNL     1      43.203 -19.278   2.427  1.00  0.00     0.058 A 
HETATM   22  C   UNL     1      44.078 -19.290   3.523  1.00  0.00     0.031 A 
HETATM   23  C   UNL     1      44.810 -20.440   3.826  1.00  0.00     0.002 A 
HETATM   24  C   UNL     1      44.679 -21.582   3.039  1.00  0.00     0.000 A 
HETATM   25  C   UNL     1      43.815 -21.576   1.945  1.00  0.00     0.002 A 
HETATM   26  C   UNL     1      43.076 -20.431   1.636  1.00  0.00     0.031 A 
ENDBRANCH  13  21
ENDBRANCH   7  10
BRANCH   1  27
HETATM   27  C   UNL     1      39.954 -12.726   2.743  1.00  0.00     0.270 C 
HETATM   28  O   UNL     1      39.378 -12.226   3.702  1.00  0.00    -0.265 OA
BRANCH  27  29
HETATM   29  O   UNL     1      39.726 -12.380   1.448  1.00  0.00    -0.321 OA
BRANCH  29  30
HETATM   30  C   UNL     1      38.379 -12.513   0.964  1.00  0.00     0.174 C 
HETATM   31  C   UNL     1      38.235 -13.838   0.242  1.00  0.00     0.034 C 
ENDBRANCH  29  30
ENDBRANCH  27  29
ENDBRANCH   1  27
BRANCH   2  32
HETATM   32  C   UNL     1      43.372 -14.217   3.947  1.00  0.00     0.439 C 
HETATM   33  F   UNL     1      43.710 -14.345   2.644  1.00  0.00    -0.166 F 
HETATM   34  F   UNL     1      44.354 -13.497   4.551  1.00  0.00    -0.166 F 
HETATM   35  F   UNL     1      43.412 -15.443   4.507  1.00  0.00    -0.166 F 
ENDBRANCH   2  32
BRANCH   2  36
HETATM   36  O   UNL     1      42.208 -12.104   4.305  1.00  0.00    -0.363 OA
HETATM   37  H   UNL     1      41.317 -11.704   4.323  1.00  0.00     0.213 HD
ENDBRANCH   2  36
TORSDOF 8
ENDMDL
MODEL 3
REMARK VINA RESULT:      -7.8      3.883      6.113
REMARK  8 active torsions:
REMARK  status: ('A' for Active; 'I' for Inactive)
REMARK    1  A    between atoms: C_2  and  O_3 
REMARK    2  A    between atoms: O_3  and  C_4 
REMARK    3  A    between atoms: C_4  and  C_5 
REMARK    4  A    between atoms: C_6  and  C_8 
REMARK    5  A    between atoms: C_6  and  O_7 
REMARK    6  A    between atoms: C_16  and  C_17 
REMARK    7  A    between atoms: C_18  and  C_19 
REMARK    8  A    between atoms: N_26  and  C_27 
ROOT
HETATM    1  C   UNL     1      41.637 -15.726   1.831  1.00  0.00     0.177 C 
HETATM    2  C   UNL     1      41.375 -14.557   0.867  1.00  0.00     0.250 C 
HETATM    3  N   UNL     1      39.987 -14.497   0.464  1.00  0.00    -0.303 N 
HETATM    4  C   UNL     1      38.962 -14.785   1.297  1.00  0.00     0.319 C 
HETATM    5  O   UNL     1      37.815 -14.453   1.035  1.00  0.00    -0.247 OA
HETATM    6  N   UNL     1      39.253 -15.504   2.402  1.00  0.00    -0.333 N 
HETATM    7  C   UNL     1      40.576 -15.805   2.928  1.00  0.00     0.142 C 
HETATM    8  H   UNL     1      39.735 -13.859  -0.284  1.00  0.00     0.167 HD
HETATM    9  H   UNL     1      38.448 -15.700   2.986  1.00  0.00     0.165 HD
ENDROOT
BRANCH   7  10
HETATM   10  C   UNL     1      40.815 -14.946   4.145  1.00  0.00     0.015 A 
HETATM   11  C   UNL     1      41.683 -15.179   5.259  1.00  0.00     0.097 A 
HETATM   12  N   UNL     1      41.673 -14.142   6.107  1.00  0.00    -0.167 NA
HETATM   13  N   UNL     1      40.806 -13.245   5.592  1.00  0.00    -0.244 N 
HETATM   14  C   UNL     1      40.221 -13.731   4.448  1.00  0.00     0.130 A 
BRANCH  11  15
HETATM   15  C   UNL     1      42.552 -16.322   5.531  1.00  0.00    -0.005 A 
HETATM   16  C   UNL     1      43.820 -16.111   6.093  1.00  0.00     0.014 A 
HETATM   17  C   UNL     1      44.673 -17.187   6.347  1.00  0.00     0.001 A 
HETATM   18  C   UNL     1      44.266 -18.483   6.045  1.00  0.00     0.000 A 
HETATM   19  C   UNL     1      43.003 -18.707   5.498  1.00  0.00     0.001 A 
HETATM   20  C   UNL     1      42.145 -17.632   5.247  1.00  0.00     0.014 A 
ENDBRANCH  11  15
BRANCH  13  21
HETATM   21  C   UNL     1      40.603 -11.977   6.206  1.00  0.00     0.058 A 
HETATM   22  C   UNL     1      39.654 -11.852   7.232  1.00  0.00     0.031 A 
HETATM   23  C   UNL     1      39.461 -10.622   7.866  1.00  0.00     0.002 A 
HETATM   24  C   UNL     1      40.206  -9.510   7.479  1.00  0.00     0.000 A 
HETATM   25  C   UNL     1      41.147  -9.625   6.457  1.00  0.00     0.002 A 
HETATM   26  C   UNL     1      41.349 -10.853   5.820  1.00  0.00     0.031 A 
ENDBRANCH  13  21
ENDBRANCH   7  10
BRANCH   1  27
HETATM   27  C   UNL     1      41.671 -17.094   1.177  1.00  0.00     0.270 C 
HETATM   28  O   UNL     1      40.676 -17.803   1.077  1.00  0.00    -0.265 OA
BRANCH  27  29
HETATM   29  O   UNL     1      42.885 -17.401   0.644  1.00  0.00    -0.321 OA
BRANCH  29  30
HETATM   30  C   UNL     1      43.989 -17.511   1.556  1.00  0.00     0.174 C 
HETATM   31  C   UNL     1      44.053 -18.926   2.098  1.00  0.00     0.034 C 
ENDBRANCH  29  30
ENDBRANCH  27  29
ENDBRANCH   1  27
BRANCH   2  32
HETATM   32  C   UNL     1      41.865 -13.193   1.479  1.00  0.00     0.439 C 
HETATM   33  F   UNL     1      42.787 -13.377   2.450  1.00  0.00    -0.166 F 
HETATM   34  F   UNL     1      42.436 -12.417   0.520  1.00  0.00    -0.166 F 
HETATM   35  F   UNL     1      40.858 -12.461   1.998  1.00  0.00    -0.166 F 
ENDBRANCH   2  32
BRANCH   2  36
HETATM   36  O   UNL     1      42.081 -14.778  -0.363  1.00  0.00    -0.363 OA
HETATM   37  H   UNL     1      42.667 -14.003  -0.459  1.00  0.00     0.213 HD
ENDBRANCH   2  36
TORSDOF 8
ENDMDL
MODEL 4
REMARK VINA RESULT:      -7.7      3.600      7.689
REMARK  8 active torsions:
REMARK  status: ('A' for Active; 'I' for Inactive)
REMARK    1  A    between atoms: C_2  and  O_3 
REMARK    2  A    between atoms: O_3  and  C_4 
REMARK    3  A    between atoms: C_4  and  C_5 
REMARK    4  A    between atoms: C_6  and  C_8 
REMARK    5  A    between atoms: C_6  and  O_7 
REMARK    6  A    between atoms: C_16  and  C_17 
REMARK    7  A    between atoms: C_18  and  C_19 
REMARK    8  A    between atoms: N_26  and  C_27 
ROOT
HETATM    1  C   UNL     1      40.655 -13.259   1.395  1.00  0.00     0.177 C 
HETATM    2  C   UNL     1      39.479 -14.093   0.862  1.00  0.00     0.250 C 
HETATM    3  N   UNL     1      39.736 -14.586  -0.475  1.00  0.00    -0.303 N 
HETATM    4  C   UNL     1      40.955 -14.994  -0.890  1.00  0.00     0.319 C 
HETATM    5  O   UNL     1      41.092 -15.667  -1.902  1.00  0.00    -0.247 OA
HETATM    6  N   UNL     1      42.020 -14.580  -0.170  1.00  0.00    -0.333 N 
HETATM    7  C   UNL     1      41.998 -13.941   1.137  1.00  0.00     0.142 C 
HETATM    8  H   UNL     1      38.969 -15.019  -0.978  1.00  0.00     0.167 HD
HETATM    9  H   UNL     1      42.909 -14.906  -0.530  1.00  0.00     0.165 HD
ENDROOT
BRANCH   7  10
HETATM   10  C   UNL     1      42.440 -14.948   2.171  1.00  0.00     0.015 A 
HETATM   11  C   UNL     1      42.324 -14.889   3.596  1.00  0.00     0.097 A 
HETATM   12  N   UNL     1      42.770 -16.017   4.166  1.00  0.00    -0.167 NA
HETATM   13  N   UNL     1      43.197 -16.804   3.155  1.00  0.00    -0.244 N 
HETATM   14  C   UNL     1      43.075 -16.160   1.948  1.00  0.00     0.130 A 
BRANCH  11  15
HETATM   15  C   UNL     1      41.770 -13.829   4.436  1.00  0.00    -0.005 A 
HETATM   16  C   UNL     1      40.752 -14.132   5.353  1.00  0.00     0.014 A 
HETATM   17  C   UNL     1      40.197 -13.133   6.155  1.00  0.00     0.001 A 
HETATM   18  C   UNL     1      40.657 -11.823   6.050  1.00  0.00     0.000 A 
HETATM   19  C   UNL     1      41.677 -11.512   5.151  1.00  0.00     0.001 A 
HETATM   20  C   UNL     1      42.237 -12.512   4.351  1.00  0.00     0.014 A 
ENDBRANCH  11  15
BRANCH  13  21
HETATM   21  C   UNL     1      43.671 -18.124   3.397  1.00  0.00     0.058 A 
HETATM   22  C   UNL     1      43.718 -19.044   2.339  1.00  0.00     0.031 A 
HETATM   23  C   UNL     1      44.206 -20.336   2.550  1.00  0.00     0.002 A 
HETATM   24  C   UNL     1      44.646 -20.719   3.815  1.00  0.00     0.000 A 
HETATM   25  C   UNL     1      44.598 -19.813   4.872  1.00  0.00     0.002 A 
HETATM   26  C   UNL     1      44.114 -18.517   4.669  1.00  0.00     0.031 A 
ENDBRANCH  13  21
ENDBRANCH   7  10
BRANCH   1  27
HETATM   27  C   UNL     1      40.767 -11.866   0.803  1.00  0.00     0.270 C 
HETATM   28  O   UNL     1      40.956 -10.870   1.492  1.00  0.00    -0.265 OA
BRANCH  27  29
HETATM   29  O   UNL     1      40.726 -11.859  -0.556  1.00  0.00    -0.321 OA
BRANCH  29  30
HETATM   30  C   UNL     1      41.493 -10.847  -1.228  1.00  0.00     0.174 C 
HETATM   31  C   UNL     1      42.861 -11.401  -1.574  1.00  0.00     0.034 C 
ENDBRANCH  29  30
ENDBRANCH  27  29
ENDBRANCH   1  27
BRANCH   2  32
HETATM   32  C   UNL     1      39.110 -15.258   1.852  1.00  0.00     0.439 C 
HETATM   33  F   UNL     1      39.242 -14.883   3.145  1.00  0.00    -0.166 F 
HETATM   34  F   UNL     1      37.820 -15.646   1.673  1.00  0.00    -0.166 F 
HETATM   35  F   UNL     1      39.860 -16.362   1.663  1.00  0.00    -0.166 F 
ENDBRANCH   2  32
BRANCH   2  36
HETATM   36  O   UNL     1      38.325 -13.255   0.703  1.00  0.00    -0.363 OA
HETATM   37  H   UNL     1      37.639 -13.839   0.328  1.00  0.00     0.213 HD
ENDBRANCH   2  36
TORSDOF 8
ENDMDL
MODEL 5
REMARK VINA RESULT:      -7.6      2.201      3.162
REMARK  8 active torsions:
REMARK  status: ('A' for Active; 'I' for Inactive)
REMARK    1  A    between atoms: C_2  and  O_3 
REMARK    2  A    between atoms: O_3  and  C_4 
REMARK    3  A    between atoms: C_4  and  C_5 
REMARK    4  A    between atoms: C_6  and  C_8 
REMARK    5  A    between atoms: C_6  and  O_7 
REMARK    6  A    between atoms: C_16  and  C_17 
REMARK    7  A    between atoms: C_18  and  C_19 
REMARK    8  A    between atoms: N_26  and  C_27 
ROOT
HETATM    1  C   UNL     1      42.443 -14.738   4.652  1.00  0.00     0.177 C 
HETATM    2  C   UNL     1      41.145 -14.055   5.112  1.00  0.00     0.250 C 
HETATM    3  N   UNL     1      41.242 -12.614   5.031  1.00  0.00    -0.303 N 
HETATM    4  C   UNL     1      41.899 -11.971   4.041  1.00  0.00     0.319 C 
HETATM    5  O   UNL     1      41.726 -10.780   3.828  1.00  0.00    -0.247 OA
HETATM    6  N   UNL     1      42.797 -12.691   3.333  1.00  0.00    -0.333 N 
HETATM    7  C   UNL     1      42.971 -14.134   3.352  1.00  0.00     0.142 C 
HETATM    8  H   UNL     1      40.499 -12.063   5.450  1.00  0.00     0.167 HD
HETATM    9  H   UNL     1      43.268 -12.159   2.610  1.00  0.00     0.165 HD
ENDROOT
BRANCH   7  10
HETATM   10  C   UNL     1      42.399 -14.704   2.076  1.00  0.00     0.015 A 
HETATM   11  C   UNL     1      42.389 -16.059   1.617  1.00  0.00     0.097 A 
HETATM   12  N   UNL     1      41.717 -16.175   0.463  1.00  0.00    -0.167 NA
HETATM   13  N   UNL     1      41.306 -14.930   0.142  1.00  0.00    -0.244 N 
HETATM   14  C   UNL     1      41.761 -14.013   1.058  1.00  0.00     0.130 A 
BRANCH  11  15
HETATM   15  C   UNL     1      42.951 -17.253   2.244  1.00  0.00    -0.005 A 
HETATM   16  C   UNL     1      43.971 -17.963   1.593  1.00  0.00     0.014 A 
HETATM   17  C   UNL     1      44.512 -19.116   2.166  1.00  0.00     0.001 A 
HETATM   18  C   UNL     1      44.041 -19.568   3.396  1.00  0.00     0.000 A 
HETATM   19  C   UNL     1      43.036 -18.863   4.058  1.00  0.00     0.001 A 
HETATM   20  C   UNL     1      42.496 -17.706   3.489  1.00  0.00     0.014 A 
ENDBRANCH  11  15
BRANCH  13  21
HETATM   21  C   UNL     1      40.490 -14.693  -1.000  1.00  0.00     0.058 A 
HETATM   22  C   UNL     1      39.318 -13.932  -0.864  1.00  0.00     0.031 A 
HETATM   23  C   UNL     1      38.519 -13.666  -1.979  1.00  0.00     0.002 A 
HETATM   24  C   UNL     1      38.879 -14.159  -3.231  1.00  0.00     0.000 A 
HETATM   25  C   UNL     1      40.037 -14.919  -3.373  1.00  0.00     0.002 A 
HETATM   26  C   UNL     1      40.845 -15.188  -2.264  1.00  0.00     0.031 A 
ENDBRANCH  13  21
ENDBRANCH   7  10
BRANCH   1  27
HETATM   27  C   UNL     1      43.587 -14.665   5.647  1.00  0.00     0.270 C 
HETATM   28  O   UNL     1      44.005 -13.604   6.094  1.00  0.00    -0.265 OA
BRANCH  27  29
HETATM   29  O   UNL     1      44.025 -15.889   6.046  1.00  0.00    -0.321 OA
BRANCH  29  30
HETATM   30  C   UNL     1      43.734 -16.279   7.398  1.00  0.00     0.174 C 
HETATM   31  C   UNL     1      42.624 -17.312   7.394  1.00  0.00     0.034 C 
ENDBRANCH  29  30
ENDBRANCH  27  29
ENDBRANCH   1  27
BRANCH   2  32
HETATM   32  C   UNL     1      39.901 -14.603   4.320  1.00  0.00     0.439 C 
HETATM   33  F   UNL     1      40.103 -15.862   3.870  1.00  0.00    -0.166 F 
HETATM   34  F   UNL     1      38.801 -14.629   5.118  1.00  0.00    -0.166 F 
HETATM   35  F   UNL     1      39.574 -13.832   3.262  1.00  0.00    -0.166 F 
ENDBRANCH   2  32
BRANCH   2  36
HETATM   36  O   UNL     1      40.935 -14.308   6.509  1.00  0.00    -0.363 OA
HETATM   37  H   UNL     1      41.829 -14.448   6.877  1.00  0.00     0.213 HD
ENDBRANCH   2  36
TORSDOF 8
ENDMDL
MODEL 6
REMARK VINA RESULT:      -7.5      3.828      7.905
REMARK  8 active torsions:
REMARK  status: ('A' for Active; 'I' for Inactive)
REMARK    1  A    between atoms: C_2  and  O_3 
REMARK    2  A    between atoms: O_3  and  C_4 
REMARK    3  A    between atoms: C_4  and  C_5 
REMARK    4  A    between atoms: C_6  and  C_8 
REMARK    5  A    between atoms: C_6  and  O_7 
REMARK    6  A    between atoms: C_16  and  C_17 
REMARK    7  A    between atoms: C_18  and  C_19 
REMARK    8  A    between atoms: N_26  and  C_27 
ROOT
HETATM    1  C   UNL     1      40.201 -12.455   2.054  1.00  0.00     0.177 C 
HETATM    2  C   UNL     1      39.358 -13.305   1.090  1.00  0.00     0.250 C 
HETATM    3  N   UNL     1      39.979 -13.408  -0.213  1.00  0.00    -0.303 N 
HETATM    4  C   UNL     1      41.315 -13.508  -0.390  1.00  0.00     0.319 C 
HETATM    5  O   UNL     1      41.791 -13.882  -1.452  1.00  0.00    -0.247 OA
HETATM    6  N   UNL     1      42.100 -13.122   0.638  1.00  0.00    -0.333 N 
HETATM    7  C   UNL     1      41.680 -12.835   2.001  1.00  0.00     0.142 C 
HETATM    8  H   UNL     1      39.437 -13.819  -0.967  1.00  0.00     0.167 HD
HETATM    9  H   UNL     1      43.092 -13.208   0.449  1.00  0.00     0.165 HD
ENDROOT
BRANCH   7  10
HETATM   10  C   UNL     1      42.101 -13.983   2.885  1.00  0.00     0.015 A 
HETATM   11  C   UNL     1      41.891 -14.167   4.289  1.00  0.00     0.097 A 
HETATM   12  N   UNL     1      42.352 -15.357   4.697  1.00  0.00    -0.167 NA
HETATM   13  N   UNL     1      42.879 -15.949   3.604  1.00  0.00    -0.244 N 
HETATM   14  C   UNL     1      42.806 -15.118   2.514  1.00  0.00     0.130 A 
BRANCH  11  15
HETATM   15  C   UNL     1      41.236 -13.282   5.250  1.00  0.00    -0.005 A 
HETATM   16  C   UNL     1      41.863 -12.085   5.630  1.00  0.00     0.014 A 
HETATM   17  C   UNL     1      41.263 -11.232   6.558  1.00  0.00     0.001 A 
HETATM   18  C   UNL     1      40.030 -11.566   7.113  1.00  0.00     0.000 A 
HETATM   19  C   UNL     1      39.392 -12.746   6.734  1.00  0.00     0.001 A 
HETATM   20  C   UNL     1      39.988 -13.599   5.800  1.00  0.00     0.014 A 
ENDBRANCH  11  15
BRANCH  13  21
HETATM   21  C   UNL     1      43.399 -17.274   3.660  1.00  0.00     0.058 A 
HETATM   22  C   UNL     1      43.552 -18.004   2.472  1.00  0.00     0.031 A 
HETATM   23  C   UNL     1      44.086 -19.295   2.504  1.00  0.00     0.002 A 
HETATM   24  C   UNL     1      44.464 -19.866   3.717  1.00  0.00     0.000 A 
HETATM   25  C   UNL     1      44.309 -19.149   4.902  1.00  0.00     0.002 A 
HETATM   26  C   UNL     1      43.779 -17.855   4.879  1.00  0.00     0.031 A 
ENDBRANCH  13  21
ENDBRANCH   7  10
BRANCH   1  27
HETATM   27  C   UNL     1      40.140 -10.959   1.803  1.00  0.00     0.270 C 
HETATM   28  O   UNL     1      40.202 -10.477   0.679  1.00  0.00    -0.265 OA
BRANCH  27  29
HETATM   29  O   UNL     1      39.924 -10.237   2.935  1.00  0.00    -0.321 OA
BRANCH  29  30
HETATM   30  C   UNL     1      38.765 -10.575   3.714  1.00  0.00     0.174 C 
HETATM   31  C   UNL     1      38.373  -9.389   4.573  1.00  0.00     0.034 C 
ENDBRANCH  29  30
ENDBRANCH  27  29
ENDBRANCH   1  27
BRANCH   2  32
HETATM   32  C   UNL     1      39.045 -14.719   1.702  1.00  0.00     0.439 C 
HETATM   33  F   UNL     1      39.133 -14.717   3.051  1.00  0.00    -0.166 F 
HETATM   34  F   UNL     1      37.784 -15.111   1.378  1.00  0.00    -0.166 F 
HETATM   35  F   UNL     1      39.864 -15.684   1.235  1.00  0.00    -0.166 F 
ENDBRANCH   2  32
BRANCH   2  36
HETATM   36  O   UNL     1      38.112 -12.643   0.826  1.00  0.00    -0.363 OA
HETATM   37  H   UNL     1      37.658 -13.212   0.176  1.00  0.00     0.213 HD
ENDBRANCH   2  36
TORSDOF 8
ENDMDL
MODEL 7
REMARK VINA RESULT:      -6.9      2.962      6.791
REMARK  8 active torsions:
REMARK  status: ('A' for Active; 'I' for Inactive)
REMARK    1  A    between atoms: C_2  and  O_3 
REMARK    2  A    between atoms: O_3  and  C_4 
REMARK    3  A    between atoms: C_4  and  C_5 
REMARK    4  A    between atoms: C_6  and  C_8 
REMARK    5  A    between atoms: C_6  and  O_7 
REMARK    6  A    between atoms: C_16  and  C_17 
REMARK    7  A    between atoms: C_18  and  C_19 
REMARK    8  A    between atoms: N_26  and  C_27 
ROOT
HETATM    1  C   UNL     1      41.065 -14.706   2.532  1.00  0.00     0.177 C 
HETATM    2  C   UNL     1      39.986 -15.461   1.739  1.00  0.00     0.250 C 
HETATM    3  N   UNL     1      40.238 -15.414   0.315  1.00  0.00    -0.303 N 
HETATM    4  C   UNL     1      41.477 -15.471  -0.219  1.00  0.00     0.319 C 
HETATM    5  O   UNL     1      41.651 -15.721  -1.404  1.00  0.00    -0.247 OA
HETATM    6  N   UNL     1      42.512 -15.185   0.600  1.00  0.00    -0.333 N 
HETATM    7  C   UNL     1      42.472 -15.054   2.048  1.00  0.00     0.142 C 
HETATM    8  H   UNL     1      39.511 -15.750  -0.308  1.00  0.00     0.167 HD
HETATM    9  H   UNL     1      43.418 -15.234   0.147  1.00  0.00     0.165 HD
ENDROOT
BRANCH   7  10
HETATM   10  C   UNL     1      43.099 -16.283   2.659  1.00  0.00     0.015 A 
HETATM   11  C   UNL     1      43.627 -16.467   3.976  1.00  0.00     0.097 A 
HETATM   12  N   UNL     1      44.031 -17.731   4.165  1.00  0.00    -0.167 NA
HETATM   13  N   UNL     1      43.802 -18.374   3.000  1.00  0.00    -0.244 N 
HETATM   14  C   UNL     1      43.307 -17.512   2.053  1.00  0.00     0.130 A 
BRANCH  11  15
HETATM   15  C   UNL     1      43.727 -15.509   5.076  1.00  0.00    -0.005 A 
HETATM   16  C   UNL     1      43.920 -15.975   6.385  1.00  0.00     0.014 A 
HETATM   17  C   UNL     1      44.003 -15.079   7.453  1.00  0.00     0.001 A 
HETATM   18  C   UNL     1      43.896 -13.710   7.222  1.00  0.00     0.000 A 
HETATM   19  C   UNL     1      43.716 -13.235   5.923  1.00  0.00     0.001 A 
HETATM   20  C   UNL     1      43.638 -14.130   4.852  1.00  0.00     0.014 A 
ENDBRANCH  11  15
BRANCH  13  21
HETATM   21  C   UNL     1      44.049 -19.770   2.867  1.00  0.00     0.058 A 
HETATM   22  C   UNL     1      44.631 -20.472   3.934  1.00  0.00     0.031 A 
HETATM   23  C   UNL     1      44.855 -21.847   3.833  1.00  0.00     0.002 A 
HETATM   24  C   UNL     1      44.506 -22.529   2.669  1.00  0.00     0.000 A 
HETATM   25  C   UNL     1      43.932 -21.839   1.604  1.00  0.00     0.002 A 
HETATM   26  C   UNL     1      43.701 -20.463   1.698  1.00  0.00     0.031 A 
ENDBRANCH  13  21
ENDBRANCH   7  10
BRANCH   1  27
HETATM   27  C   UNL     1      40.958 -13.193   2.469  1.00  0.00     0.270 C 
HETATM   28  O   UNL     1      40.757 -12.590   1.422  1.00  0.00    -0.265 OA
BRANCH  27  29
HETATM   29  O   UNL     1      41.020 -12.603   3.693  1.00  0.00    -0.321 OA
BRANCH  29  30
HETATM   30  C   UNL     1      39.814 -12.594   4.475  1.00  0.00     0.174 C 
HETATM   31  C   UNL     1      40.015 -13.440   5.716  1.00  0.00     0.034 C 
ENDBRANCH  29  30
ENDBRANCH  27  29
ENDBRANCH   1  27
BRANCH   2  32
HETATM   32  C   UNL     1      39.829 -16.939   2.255  1.00  0.00     0.439 C 
HETATM   33  F   UNL     1      38.531 -17.303   2.359  1.00  0.00    -0.166 F 
HETATM   34  F   UNL     1      40.427 -17.809   1.400  1.00  0.00    -0.166 F 
HETATM   35  F   UNL     1      40.412 -17.138   3.455  1.00  0.00    -0.166 F 
ENDBRANCH   2  32
BRANCH   2  36
HETATM   36  O   UNL     1      38.723 -14.796   1.888  1.00  0.00    -0.363 OA
HETATM   37  H   UNL     1      38.815 -13.965   1.384  1.00  0.00     0.213 HD
ENDBRANCH   2  36
TORSDOF 8
ENDMDL
MODEL 8
REMARK VINA RESULT:      -6.8      3.468      5.659
REMARK  8 active torsions:
REMARK  status: ('A' for Active; 'I' for Inactive)
REMARK    1  A    between atoms: C_2  and  O_3 
REMARK    2  A    between atoms: O_3  and  C_4 
REMARK    3  A    between atoms: C_4  and  C_5 
REMARK    4  A    between atoms: C_6  and  C_8 
REMARK    5  A    between atoms: C_6  and  O_7 
REMARK    6  A    between atoms: C_16  and  C_17 
REMARK    7  A    between atoms: C_18  and  C_19 
REMARK    8  A    between atoms: N_26  and  C_27 
ROOT
HETATM    1  C   UNL     1      42.441 -15.824   4.055  1.00  0.00     0.177 C 
HETATM    2  C   UNL     1      41.935 -16.471   5.354  1.00  0.00     0.250 C 
HETATM    3  N   UNL     1      42.946 -16.453   6.389  1.00  0.00    -0.303 N 
HETATM    4  C   UNL     1      43.805 -15.425   6.566  1.00  0.00     0.319 C 
HETATM    5  O   UNL     1      44.442 -15.296   7.601  1.00  0.00    -0.247 OA
HETATM    6  N   UNL     1      43.971 -14.579   5.526  1.00  0.00    -0.333 N 
HETATM    7  C   UNL     1      43.160 -14.502   4.322  1.00  0.00     0.142 C 
HETATM    8  H   UNL     1      42.770 -16.985   7.235  1.00  0.00     0.167 HD
HETATM    9  H   UNL     1      44.633 -13.833   5.708  1.00  0.00     0.165 HD
ENDROOT
BRANCH   7  10
HETATM   10  C   UNL     1      42.282 -13.277   4.411  1.00  0.00     0.015 A 
HETATM   11  C   UNL     1      41.329 -12.778   3.467  1.00  0.00     0.097 A 
HETATM   12  N   UNL     1      40.693 -11.699   3.945  1.00  0.00    -0.167 NA
HETATM   13  N   UNL     1      41.219 -11.464   5.166  1.00  0.00    -0.244 N 
HETATM   14  C   UNL     1      42.227 -12.355   5.445  1.00  0.00     0.130 A 
BRANCH  11  15
HETATM   15  C   UNL     1      40.966 -13.303   2.153  1.00  0.00    -0.005 A 
HETATM   16  C   UNL     1      41.914 -13.297   1.118  1.00  0.00     0.014 A 
HETATM   17  C   UNL     1      41.584 -13.779  -0.150  1.00  0.00     0.001 A 
HETATM   18  C   UNL     1      40.306 -14.274  -0.395  1.00  0.00     0.000 A 
HETATM   19  C   UNL     1      39.360 -14.297   0.629  1.00  0.00     0.001 A 
HETATM   20  C   UNL     1      39.689 -13.819   1.901  1.00  0.00     0.014 A 
ENDBRANCH  11  15
BRANCH  13  21
HETATM   21  C   UNL     1      40.718 -10.423   5.998  1.00  0.00     0.058 A 
HETATM   22  C   UNL     1      41.483  -9.985   7.089  1.00  0.00     0.031 A 
HETATM   23  C   UNL     1      41.021  -8.946   7.901  1.00  0.00     0.002 A 
HETATM   24  C   UNL     1      39.794  -8.342   7.633  1.00  0.00     0.000 A 
HETATM   25  C   UNL     1      39.027  -8.775   6.555  1.00  0.00     0.002 A 
HETATM   26  C   UNL     1      39.483  -9.812   5.735  1.00  0.00     0.031 A 
ENDBRANCH  13  21
ENDBRANCH   7  10
BRANCH   1  27
HETATM   27  C   UNL     1      43.408 -16.677   3.255  1.00  0.00     0.270 C 
HETATM   28  O   UNL     1      44.074 -17.571   3.763  1.00  0.00    -0.265 OA
BRANCH  27  29
HETATM   29  O   UNL     1      43.386 -16.402   1.923  1.00  0.00    -0.321 OA
BRANCH  29  30
HETATM   30  C   UNL     1      42.897 -17.434   1.051  1.00  0.00     0.174 C 
HETATM   31  C   UNL     1      41.383 -17.470   1.117  1.00  0.00     0.034 C 
ENDBRANCH  29  30
ENDBRANCH  27  29
ENDBRANCH   1  27
BRANCH   2  32
HETATM   32  C   UNL     1      40.593 -15.807   5.837  1.00  0.00     0.439 C 
HETATM   33  F   UNL     1      39.856 -15.347   4.800  1.00  0.00    -0.166 F 
HETATM   34  F   UNL     1      39.829 -16.708   6.509  1.00  0.00    -0.166 F 
HETATM   35  F   UNL     1      40.794 -14.781   6.689  1.00  0.00    -0.166 F 
ENDBRANCH   2  32
BRANCH   2  36
HETATM   36  O   UNL     1      41.692 -17.868   5.135  1.00  0.00    -0.363 OA
HETATM   37  H   UNL     1      42.170 -18.323   5.854  1.00  0.00     0.213 HD
ENDBRANCH   2  36
TORSDOF 8
ENDMDL
MODEL 9
REMARK VINA RESULT:      -6.7      3.513      5.174
REMARK  8 active torsions:
REMARK  status: ('A' for Active; 'I' for Inactive)
REMARK    1  A    between atoms: C_2  and  O_3 
REMARK    2  A    between atoms: O_3  and  C_4 
REMARK    3  A    between atoms: C_4  and  C_5 
REMARK    4  A    between atoms: C_6  and  C_8 
REMARK    5  A    between atoms: C_6  and  O_7 
REMARK    6  A    between atoms: C_16  and  C_17 
REMARK    7  A    between atoms: C_18  and  C_19 
REMARK    8  A    between atoms: N_26  and  C_27 
ROOT
HETATM    1  C   UNL     1      41.733 -13.470   4.054  1.00  0.00     0.177 C 
HETATM    2  C   UNL     1      41.168 -13.121   5.441  1.00  0.00     0.250 C 
HETATM    3  N   UNL     1      41.524 -11.777   5.840  1.00  0.00    -0.303 N 
HETATM    4  C   UNL     1      41.584 -10.740   4.976  1.00  0.00     0.319 C 
HETATM    5  O   UNL     1      41.598  -9.582   5.369  1.00  0.00    -0.247 OA
HETATM    6  N   UNL     1      41.685 -11.041   3.663  1.00  0.00    -0.333 N 
HETATM    7  C   UNL     1      41.499 -12.345   3.047  1.00  0.00     0.142 C 
HETATM    8  H   UNL     1      41.331 -11.498   6.797  1.00  0.00     0.167 HD
HETATM    9  H   UNL     1      41.737 -10.227   3.060  1.00  0.00     0.165 HD
ENDROOT
BRANCH   7  10
HETATM   10  C   UNL     1      40.166 -12.355   2.339  1.00  0.00     0.015 A 
HETATM   11  C   UNL     1      39.547 -13.409   1.595  1.00  0.00     0.097 A 
HETATM   12  N   UNL     1      38.323 -13.056   1.179  1.00  0.00    -0.167 NA
HETATM   13  N   UNL     1      38.132 -11.791   1.611  1.00  0.00    -0.244 N 
HETATM   14  C   UNL     1      39.251 -11.318   2.251  1.00  0.00     0.130 A 
BRANCH  11  15
HETATM   15  C   UNL     1      40.048 -14.750   1.297  1.00  0.00    -0.005 A 
HETATM   16  C   UNL     1      40.863 -14.952   0.174  1.00  0.00     0.014 A 
HETATM   17  C   UNL     1      41.340 -16.227  -0.139  1.00  0.00     0.001 A 
HETATM   18  C   UNL     1      41.008 -17.310   0.670  1.00  0.00     0.000 A 
HETATM   19  C   UNL     1      40.208 -17.120   1.796  1.00  0.00     0.001 A 
HETATM   20  C   UNL     1      39.734 -15.843   2.114  1.00  0.00     0.014 A 
ENDBRANCH  11  15
BRANCH  13  21
HETATM   21  C   UNL     1      36.893 -11.120   1.406  1.00  0.00     0.058 A 
HETATM   22  C   UNL     1      35.973 -11.639   0.483  1.00  0.00     0.031 A 
HETATM   23  C   UNL     1      34.740 -11.011   0.289  1.00  0.00     0.002 A 
HETATM   24  C   UNL     1      34.420  -9.861   1.008  1.00  0.00     0.000 A 
HETATM   25  C   UNL     1      35.331  -9.337   1.922  1.00  0.00     0.002 A 
HETATM   26  C   UNL     1      36.565  -9.961   2.126  1.00  0.00     0.031 A 
ENDBRANCH  13  21
ENDBRANCH   7  10
BRANCH   1  27
HETATM   27  C   UNL     1      43.223 -13.757   4.029  1.00  0.00     0.270 C 
HETATM   28  O   UNL     1      43.994 -13.315   4.872  1.00  0.00    -0.265 OA
BRANCH  27  29
HETATM   29  O   UNL     1      43.583 -14.617   3.038  1.00  0.00    -0.321 OA
BRANCH  29  30
HETATM   30  C   UNL     1      43.342 -16.015   3.266  1.00  0.00     0.174 C 
HETATM   31  C   UNL     1      44.055 -16.827   2.203  1.00  0.00     0.034 C 
ENDBRANCH  29  30
ENDBRANCH  27  29
ENDBRANCH   1  27
BRANCH   2  32
HETATM   32  C   UNL     1      39.613 -13.355   5.498  1.00  0.00     0.439 C 
HETATM   33  F   UNL     1      39.236 -14.428   4.768  1.00  0.00    -0.166 F 
HETATM   34  F   UNL     1      39.210 -13.573   6.778  1.00  0.00    -0.166 F 
HETATM   35  F   UNL     1      38.908 -12.290   5.063  1.00  0.00    -0.166 F 
ENDBRANCH   2  32
BRANCH   2  36
HETATM   36  O   UNL     1      41.784 -13.951   6.436  1.00  0.00    -0.363 OA
HETATM   37  H   UNL     1      42.501 -14.418   5.966  1.00  0.00     0.213 HD
ENDBRANCH   2  36
TORSDOF 8
ENDMDL
MODEL 10
REMARK VINA RESULT:      -6.5      5.436      9.049
REMARK  8 active torsions:
REMARK  status: ('A' for Active; 'I' for Inactive)
REMARK    1  A    between atoms: C_2  and  O_3 
REMARK    2  A    between atoms: O_3  and  C_4 
REMARK    3  A    between atoms: C_4  and  C_5 
REMARK    4  A    between atoms: C_6  and  C_8 
REMARK    5  A    between atoms: C_6  and  O_7 
REMARK    6  A    between atoms: C_16  and  C_17 
REMARK    7  A    between atoms: C_18  and  C_19 
REMARK    8  A    between atoms: N_26  and  C_27 
ROOT
HETATM    1  C   UNL     1      41.063 -13.358  -1.753  1.00  0.00     0.177 C 
HETATM    2  C   UNL     1      39.860 -14.303  -1.596  1.00  0.00     0.250 C 
HETATM    3  N   UNL     1      40.274 -15.633  -1.204  1.00  0.00    -0.303 N 
HETATM    4  C   UNL     1      41.294 -15.868  -0.350  1.00  0.00     0.319 C 
HETATM    5  O   UNL     1      41.438 -16.957   0.188  1.00  0.00    -0.247 OA
HETATM    6  N   UNL     1      42.180 -14.866  -0.162  1.00  0.00    -0.333 N 
HETATM    7  C   UNL     1      42.037 -13.482  -0.583  1.00  0.00     0.142 C 
HETATM    8  H   UNL     1      39.577 -16.371  -1.218  1.00  0.00     0.167 HD
HETATM    9  H   UNL     1      42.930 -15.098   0.480  1.00  0.00     0.165 HD
ENDROOT
BRANCH   7  10
HETATM   10  C   UNL     1      41.727 -12.639   0.630  1.00  0.00     0.015 A 
HETATM   11  C   UNL     1      41.679 -11.214   0.753  1.00  0.00     0.097 A 
HETATM   12  N   UNL     1      41.293 -10.846   1.982  1.00  0.00    -0.167 NA
HETATM   13  N   UNL     1      41.108 -11.989   2.675  1.00  0.00    -0.244 N 
HETATM   14  C   UNL     1      41.429 -13.083   1.909  1.00  0.00     0.130 A 
BRANCH  11  15
HETATM   15  C   UNL     1      41.943 -10.190  -0.256  1.00  0.00    -0.005 A 
HETATM   16  C   UNL     1      40.885  -9.404  -0.738  1.00  0.00     0.014 A 
HETATM   17  C   UNL     1      41.111  -8.430  -1.713  1.00  0.00     0.001 A 
HETATM   18  C   UNL     1      42.395  -8.230  -2.212  1.00  0.00     0.000 A 
HETATM   19  C   UNL     1      43.456  -8.997  -1.732  1.00  0.00     0.001 A 
HETATM   20  C   UNL     1      43.233  -9.969  -0.752  1.00  0.00     0.014 A 
ENDBRANCH  11  15
BRANCH  13  21
HETATM   21  C   UNL     1      40.619 -11.972   4.012  1.00  0.00     0.058 A 
HETATM   22  C   UNL     1      40.916 -10.879   4.840  1.00  0.00     0.031 A 
HETATM   23  C   UNL     1      40.422 -10.830   6.146  1.00  0.00     0.002 A 
HETATM   24  C   UNL     1      39.634 -11.870   6.635  1.00  0.00     0.000 A 
HETATM   25  C   UNL     1      39.339 -12.961   5.820  1.00  0.00     0.002 A 
HETATM   26  C   UNL     1      39.827 -13.016   4.511  1.00  0.00     0.031 A 
ENDBRANCH  13  21
ENDBRANCH   7  10
BRANCH   1  27
HETATM   27  C   UNL     1      41.882 -13.575  -3.011  1.00  0.00     0.270 C 
HETATM   28  O   UNL     1      41.927 -14.654  -3.591  1.00  0.00    -0.265 OA
BRANCH  27  29
HETATM   29  O   UNL     1      42.476 -12.439  -3.464  1.00  0.00    -0.321 OA
BRANCH  29  30
HETATM   30  C   UNL     1      41.614 -11.412  -3.980  1.00  0.00     0.174 C 
HETATM   31  C   UNL     1      42.369 -10.591  -5.007  1.00  0.00     0.034 C 
ENDBRANCH  29  30
ENDBRANCH  27  29
ENDBRANCH   1  27
BRANCH   2  32
HETATM   32  C   UNL     1      38.792 -13.708  -0.606  1.00  0.00     0.439 C 
HETATM   33  F   UNL     1      37.529 -13.948  -1.022  1.00  0.00    -0.166 F 
HETATM   34  F   UNL     1      38.925 -14.261   0.628  1.00  0.00    -0.166 F 
HETATM   35  F   UNL     1      38.925 -12.377  -0.433  1.00  0.00    -0.166 F 
ENDBRANCH   2  32
BRANCH   2  36
HETATM   36  O   UNL     1      39.231 -14.500  -2.871  1.00  0.00    -0.363 OA
HETATM   37  H   UNL     1      39.830 -14.077  -3.515  1.00  0.00     0.213 HD
ENDBRANCH   2  36
TORSDOF 8
ENDMDL
