MODEL 1
REMARK VINA RESULT:      -8.4      0.000      0.000
REMARK  3 active torsions:
REMARK  status: ('A' for Active; 'I' for Inactive)
REMARK    1  A    between atoms: C_9  and  C_10 
REMARK       I    between atoms: C_10  and  N_11 
REMARK    2  A    between atoms: N_11  and  C_12 
REMARK    3  A    between atoms: C_14  and  C_15 
ROOT
HETATM    1  C   UNL     1      42.662 -17.400   1.262  1.00  0.00     0.252 C 
HETATM    2  N   UNL     1      42.386 -18.391   2.187  1.00  0.00    -0.325 N 
HETATM    3  O   UNL     1      43.774 -16.957   0.983  1.00  0.00    -0.270 OA
HETATM    4  H   UNL     1      41.435 -18.747   2.163  1.00  0.00     0.169 HD
ENDROOT
BRANCH   2   5
HETATM    5  C   UNL     1      43.202 -18.850   3.235  1.00  0.00     0.035 A 
HETATM    6  C   UNL     1      43.158 -18.337   4.533  1.00  0.00     0.042 A 
HETATM    7  C   UNL     1      43.925 -18.909   5.562  1.00  0.00    -0.021 A 
HETATM    8  C   UNL     1      44.753 -20.001   5.264  1.00  0.00     0.012 A 
HETATM    9  C   UNL     1      44.812 -20.509   3.967  1.00  0.00     0.003 A 
HETATM   10  C   UNL     1      44.038 -19.938   2.958  1.00  0.00     0.029 A 
BRANCH   7  11
HETATM   11  C   UNL     1      43.841 -18.411   6.925  1.00  0.00     0.010 A 
HETATM   12  C   UNL     1      43.464 -17.142   7.426  1.00  0.00     0.152 A 
HETATM   13  N   UNL     1      43.516 -17.073   8.759  1.00  0.00    -0.187 NA
HETATM   14  N   UNL     1      43.931 -18.299   9.118  1.00  0.00    -0.289 N 
HETATM   15  H   UNL     1      44.053 -18.496  10.106  1.00  0.00     0.188 HD
HETATM   16  C   UNL     1      44.137 -19.135   8.061  1.00  0.00     0.123 A 
ENDBRANCH   7  11
ENDBRANCH   2   5
BRANCH   1  17
HETATM   17  C   UNL     1      41.386 -16.788   0.634  1.00  0.00     0.225 C 
HETATM   18  C   UNL     1      41.710 -15.374   0.130  1.00  0.00     0.083 C 
HETATM   19  C   UNL     1      41.237 -14.609   1.309  1.00  0.00    -0.021 A 
HETATM   20  C   UNL     1      40.381 -15.402   2.049  1.00  0.00     0.076 A 
HETATM   21  C   UNL     1      41.537 -13.323   1.714  1.00  0.00     0.017 A 
HETATM   22  C   UNL     1      39.773 -14.955   3.202  1.00  0.00     0.044 A 
HETATM   23  O   UNL     1      40.285 -16.690   1.574  1.00  0.00    -0.336 OA
HETATM   24  C   UNL     1      40.072 -13.658   3.651  1.00  0.00    -0.053 A 
HETATM   25  C   UNL     1      40.970 -12.842   2.908  1.00  0.00    -0.055 A 
HETATM   26  C   UNL     1      39.466 -13.176   4.941  1.00  0.00     0.049 C 
HETATM   27  C   UNL     1      41.360 -11.471   3.397  1.00  0.00     0.049 C 
ENDBRANCH   1  17
TORSDOF 3
ENDMDL
MODEL 2
REMARK VINA RESULT:      -8.4      2.536      4.541
REMARK  3 active torsions:
REMARK  status: ('A' for Active; 'I' for Inactive)
REMARK    1  A    between atoms: C_9  and  C_10 
REMARK       I    between atoms: C_10  and  N_11 
REMARK    2  A    between atoms: N_11  and  C_12 
REMARK    3  A    between atoms: C_14  and  C_15 
ROOT
HETATM    1  C   UNL     1      42.794 -15.031   3.077  1.00  0.00     0.252 C 
HETATM    2  N   UNL     1      42.417 -16.325   3.388  1.00  0.00    -0.325 N 
HETATM    3  O   UNL     1      43.938 -14.581   3.106  1.00  0.00    -0.270 OA
HETATM    4  H   UNL     1      41.460 -16.563   3.146  1.00  0.00     0.169 HD
ENDROOT
BRANCH   2   5
HETATM    5  C   UNL     1      43.137 -17.285   4.121  1.00  0.00     0.035 A 
HETATM    6  C   UNL     1      43.344 -18.596   3.687  1.00  0.00     0.042 A 
HETATM    7  C   UNL     1      44.162 -19.477   4.415  1.00  0.00    -0.021 A 
HETATM    8  C   UNL     1      44.759 -19.025   5.600  1.00  0.00     0.012 A 
HETATM    9  C   UNL     1      44.545 -17.721   6.046  1.00  0.00     0.003 A 
HETATM   10  C   UNL     1      43.740 -16.855   5.308  1.00  0.00     0.029 A 
BRANCH   7  11
HETATM   11  C   UNL     1      44.422 -20.824   3.937  1.00  0.00     0.010 A 
HETATM   12  C   UNL     1      44.372 -21.372   2.633  1.00  0.00     0.152 A 
HETATM   13  N   UNL     1      44.682 -22.671   2.602  1.00  0.00    -0.187 NA
HETATM   14  N   UNL     1      44.928 -22.963   3.890  1.00  0.00    -0.289 N 
HETATM   15  H   UNL     1      45.187 -23.915   4.127  1.00  0.00     0.188 HD
HETATM   16  C   UNL     1      44.788 -21.895   4.727  1.00  0.00     0.123 A 
ENDBRANCH   7  11
ENDBRANCH   2   5
BRANCH   1  17
HETATM   17  C   UNL     1      41.590 -14.111   2.762  1.00  0.00     0.225 C 
HETATM   18  C   UNL     1      40.568 -14.896   1.927  1.00  0.00     0.083 C 
HETATM   19  C   UNL     1      40.994 -14.444   0.580  1.00  0.00    -0.021 A 
HETATM   20  C   UNL     1      41.732 -13.282   0.706  1.00  0.00     0.076 A 
HETATM   21  C   UNL     1      40.765 -15.004  -0.661  1.00  0.00     0.017 A 
HETATM   22  C   UNL     1      42.255 -12.619  -0.383  1.00  0.00     0.044 A 
HETATM   23  O   UNL     1      41.967 -12.925   2.014  1.00  0.00    -0.336 OA
HETATM   24  C   UNL     1      42.055 -13.175  -1.658  1.00  0.00    -0.053 A 
HETATM   25  C   UNL     1      41.316 -14.382  -1.796  1.00  0.00    -0.055 A 
HETATM   26  C   UNL     1      42.672 -12.497  -2.852  1.00  0.00     0.049 C 
HETATM   27  C   UNL     1      41.140 -15.036  -3.141  1.00  0.00     0.049 C 
ENDBRANCH   1  17
TORSDOF 3
ENDMDL
MODEL 3
REMARK VINA RESULT:      -8.3      4.449      7.046
REMARK  3 active torsions:
REMARK  status: ('A' for Active; 'I' for Inactive)
REMARK    1  A    between atoms: C_9  and  C_10 
REMARK       I    between atoms: C_10  and  N_11 
REMARK    2  A    between atoms: N_11  and  C_12 
REMARK    3  A    between atoms: C_14  and  C_15 
ROOT
HETATM    1  C   UNL     1      43.388 -14.371   5.282  1.00  0.00     0.252 C 
HETATM    2  N   UNL     1      43.708 -14.438   6.625  1.00  0.00    -0.325 N 
HETATM    3  O   UNL     1      43.938 -13.666   4.438  1.00  0.00    -0.270 OA
HETATM    4  H   UNL     1      43.265 -15.196   7.135  1.00  0.00     0.169 HD
ENDROOT
BRANCH   2   5
HETATM    5  C   UNL     1      44.441 -13.512   7.388  1.00  0.00     0.035 A 
HETATM    6  C   UNL     1      43.926 -12.845   8.502  1.00  0.00     0.042 A 
HETATM    7  C   UNL     1      44.742 -12.012   9.286  1.00  0.00    -0.021 A 
HETATM    8  C   UNL     1      46.086 -11.844   8.924  1.00  0.00     0.012 A 
HETATM    9  C   UNL     1      46.603 -12.496   7.805  1.00  0.00     0.003 A 
HETATM   10  C   UNL     1      45.785 -13.329   7.043  1.00  0.00     0.029 A 
BRANCH   7  11
HETATM   11  C   UNL     1      44.221 -11.359  10.475  1.00  0.00     0.010 A 
HETATM   12  C   UNL     1      43.993  -9.991  10.757  1.00  0.00     0.152 A 
HETATM   13  N   UNL     1      43.498  -9.787  11.981  1.00  0.00    -0.187 NA
HETATM   14  N   UNL     1      43.411 -11.027  12.491  1.00  0.00    -0.289 N 
HETATM   15  H   UNL     1      43.056 -11.135  13.435  1.00  0.00     0.188 HD
HETATM   16  C   UNL     1      43.828 -12.000  11.632  1.00  0.00     0.123 A 
ENDBRANCH   7  11
ENDBRANCH   2   5
BRANCH   1  17
HETATM   17  C   UNL     1      42.154 -15.229   4.912  1.00  0.00     0.225 C 
HETATM   18  C   UNL     1      41.958 -16.309   5.987  1.00  0.00     0.083 C 
HETATM   19  C   UNL     1      42.668 -17.422   5.311  1.00  0.00    -0.021 A 
HETATM   20  C   UNL     1      42.764 -17.142   3.961  1.00  0.00     0.076 A 
HETATM   21  C   UNL     1      43.200 -18.585   5.832  1.00  0.00     0.017 A 
HETATM   22  C   UNL     1      43.368 -18.004   3.071  1.00  0.00     0.044 A 
HETATM   23  O   UNL     1      42.293 -15.893   3.628  1.00  0.00    -0.336 OA
HETATM   24  C   UNL     1      43.935 -19.187   3.573  1.00  0.00    -0.053 A 
HETATM   25  C   UNL     1      43.861 -19.473   4.964  1.00  0.00    -0.055 A 
HETATM   26  C   UNL     1      44.653 -20.110   2.625  1.00  0.00     0.049 C 
HETATM   27  C   UNL     1      44.515 -20.701   5.542  1.00  0.00     0.049 C 
ENDBRANCH   1  17
TORSDOF 3
ENDMDL
MODEL 4
REMARK VINA RESULT:      -8.2      2.411      3.931
REMARK  3 active torsions:
REMARK  status: ('A' for Active; 'I' for Inactive)
REMARK    1  A    between atoms: C_9  and  C_10 
REMARK       I    between atoms: C_10  and  N_11 
REMARK    2  A    between atoms: N_11  and  C_12 
REMARK    3  A    between atoms: C_14  and  C_15 
ROOT
HETATM    1  C   UNL     1      43.013 -14.298   2.638  1.00  0.00     0.252 C 
HETATM    2  N   UNL     1      42.664 -15.581   2.257  1.00  0.00    -0.325 N 
HETATM    3  O   UNL     1      44.056 -13.965   3.197  1.00  0.00    -0.270 OA
HETATM    4  H   UNL     1      41.846 -15.643   1.659  1.00  0.00     0.169 HD
ENDROOT
BRANCH   2   5
HETATM    5  C   UNL     1      43.203 -16.797   2.712  1.00  0.00     0.035 A 
HETATM    6  C   UNL     1      43.240 -17.174   4.056  1.00  0.00     0.042 A 
HETATM    7  C   UNL     1      43.697 -18.447   4.437  1.00  0.00    -0.021 A 
HETATM    8  C   UNL     1      44.132 -19.336   3.444  1.00  0.00     0.012 A 
HETATM    9  C   UNL     1      44.111 -18.961   2.101  1.00  0.00     0.003 A 
HETATM   10  C   UNL     1      43.646 -17.698   1.737  1.00  0.00     0.029 A 
BRANCH   7  11
HETATM   11  C   UNL     1      43.686 -18.861   5.830  1.00  0.00     0.010 A 
HETATM   12  C   UNL     1      43.843 -20.138   6.419  1.00  0.00     0.152 A 
HETATM   13  N   UNL     1      43.771 -20.108   7.753  1.00  0.00    -0.187 NA
HETATM   14  N   UNL     1      43.563 -18.808   8.024  1.00  0.00    -0.289 N 
HETATM   15  H   UNL     1      43.469 -18.528   8.994  1.00  0.00     0.188 HD
HETATM   16  C   UNL     1      43.507 -18.022   6.911  1.00  0.00     0.123 A 
ENDBRANCH   7  11
ENDBRANCH   2   5
BRANCH   1  17
HETATM   17  C   UNL     1      41.891 -13.264   2.377  1.00  0.00     0.225 C 
HETATM   18  C   UNL     1      40.709 -13.974   1.700  1.00  0.00     0.083 C 
HETATM   19  C   UNL     1      41.039 -13.651   0.290  1.00  0.00    -0.021 A 
HETATM   20  C   UNL     1      41.909 -12.577   0.265  1.00  0.00     0.076 A 
HETATM   21  C   UNL     1      40.623 -14.253  -0.881  1.00  0.00     0.017 A 
HETATM   22  C   UNL     1      42.386 -12.043  -0.913  1.00  0.00     0.044 A 
HETATM   23  O   UNL     1      42.316 -12.175   1.516  1.00  0.00    -0.336 OA
HETATM   24  C   UNL     1      41.996 -12.645  -2.121  1.00  0.00    -0.053 A 
HETATM   25  C   UNL     1      41.119 -13.765  -2.104  1.00  0.00    -0.055 A 
HETATM   26  C   UNL     1      42.556 -12.113  -3.413  1.00  0.00     0.049 C 
HETATM   27  C   UNL     1      40.735 -14.471  -3.378  1.00  0.00     0.049 C 
ENDBRANCH   1  17
TORSDOF 3
ENDMDL
MODEL 5
REMARK VINA RESULT:      -8.2      2.627      4.210
REMARK  3 active torsions:
REMARK  status: ('A' for Active; 'I' for Inactive)
REMARK    1  A    between atoms: C_9  and  C_10 
REMARK       I    between atoms: C_10  and  N_11 
REMARK    2  A    between atoms: N_11  and  C_12 
REMARK    3  A    between atoms: C_14  and  C_15 
ROOT
HETATM    1  C   UNL     1      41.733 -16.060   5.109  1.00  0.00     0.252 C 
HETATM    2  N   UNL     1      42.917 -16.159   4.401  1.00  0.00    -0.325 N 
HETATM    3  O   UNL     1      40.989 -16.990   5.415  1.00  0.00    -0.270 OA
HETATM    4  H   UNL     1      43.481 -15.315   4.388  1.00  0.00     0.169 HD
ENDROOT
BRANCH   2   5
HETATM    5  C   UNL     1      43.353 -17.218   3.587  1.00  0.00     0.035 A 
HETATM    6  C   UNL     1      43.748 -18.464   4.082  1.00  0.00     0.042 A 
HETATM    7  C   UNL     1      44.073 -19.516   3.210  1.00  0.00    -0.021 A 
HETATM    8  C   UNL     1      44.011 -19.296   1.827  1.00  0.00     0.012 A 
HETATM    9  C   UNL     1      43.630 -18.051   1.326  1.00  0.00     0.003 A 
HETATM   10  C   UNL     1      43.300 -17.018   2.203  1.00  0.00     0.029 A 
BRANCH   7  11
HETATM   11  C   UNL     1      44.434 -20.828   3.721  1.00  0.00     0.010 A 
HETATM   12  C   UNL     1      44.840 -21.239   5.013  1.00  0.00     0.152 A 
HETATM   13  N   UNL     1      45.087 -22.550   5.088  1.00  0.00    -0.187 NA
HETATM   14  N   UNL     1      44.844 -22.984   3.840  1.00  0.00    -0.289 N 
HETATM   15  H   UNL     1      44.968 -23.971   3.640  1.00  0.00     0.188 HD
HETATM   16  C   UNL     1      44.449 -21.996   2.987  1.00  0.00     0.123 A 
ENDBRANCH   7  11
ENDBRANCH   2   5
BRANCH   1  17
HETATM   17  C   UNL     1      41.340 -14.597   5.428  1.00  0.00     0.225 C 
HETATM   18  C   UNL     1      39.903 -14.351   4.946  1.00  0.00     0.083 C 
HETATM   19  C   UNL     1      40.214 -13.755   3.624  1.00  0.00    -0.021 A 
HETATM   20  C   UNL     1      41.523 -13.308   3.627  1.00  0.00     0.076 A 
HETATM   21  C   UNL     1      39.424 -13.620   2.500  1.00  0.00     0.017 A 
HETATM   22  C   UNL     1      42.095 -12.695   2.533  1.00  0.00     0.044 A 
HETATM   23  O   UNL     1      42.204 -13.626   4.779  1.00  0.00    -0.336 OA
HETATM   24  C   UNL     1      41.322 -12.560   1.368  1.00  0.00    -0.053 A 
HETATM   25  C   UNL     1      39.983 -13.037   1.347  1.00  0.00    -0.055 A 
HETATM   26  C   UNL     1      41.951 -11.949   0.145  1.00  0.00     0.049 C 
HETATM   27  C   UNL     1      39.151 -12.964   0.094  1.00  0.00     0.049 C 
ENDBRANCH   1  17
TORSDOF 3
ENDMDL
MODEL 6
REMARK VINA RESULT:      -7.9      3.024      4.985
REMARK  3 active torsions:
REMARK  status: ('A' for Active; 'I' for Inactive)
REMARK    1  A    between atoms: C_9  and  C_10 
REMARK       I    between atoms: C_10  and  N_11 
REMARK    2  A    between atoms: N_11  and  C_12 
REMARK    3  A    between atoms: C_14  and  C_15 
ROOT
HETATM    1  C   UNL     1      41.421 -15.229   5.370  1.00  0.00     0.252 C 
HETATM    2  N   UNL     1      42.782 -15.450   5.266  1.00  0.00    -0.325 N 
HETATM    3  O   UNL     1      40.600 -15.983   5.889  1.00  0.00    -0.270 OA
HETATM    4  H   UNL     1      43.325 -14.648   4.961  1.00  0.00     0.169 HD
ENDROOT
BRANCH   2   5
HETATM    5  C   UNL     1      43.474 -16.668   5.385  1.00  0.00     0.035 A 
HETATM    6  C   UNL     1      43.396 -17.699   4.446  1.00  0.00     0.042 A 
HETATM    7  C   UNL     1      44.194 -18.849   4.569  1.00  0.00    -0.021 A 
HETATM    8  C   UNL     1      45.064 -18.957   5.662  1.00  0.00     0.012 A 
HETATM    9  C   UNL     1      45.138 -17.937   6.611  1.00  0.00     0.003 A 
HETATM   10  C   UNL     1      44.348 -16.797   6.471  1.00  0.00     0.029 A 
BRANCH   7  11
HETATM   11  C   UNL     1      44.152 -19.899   3.565  1.00  0.00     0.010 A 
HETATM   12  C   UNL     1      43.504 -19.955   2.308  1.00  0.00     0.152 A 
HETATM   13  N   UNL     1      43.708 -21.110   1.669  1.00  0.00    -0.187 NA
HETATM   14  N   UNL     1      44.486 -21.802   2.517  1.00  0.00    -0.289 N 
HETATM   15  H   UNL     1      44.780 -22.736   2.249  1.00  0.00     0.188 HD
HETATM   16  C   UNL     1      44.782 -21.123   3.663  1.00  0.00     0.123 A 
ENDBRANCH   7  11
ENDBRANCH   2   5
BRANCH   1  17
HETATM   17  C   UNL     1      40.964 -13.932   4.660  1.00  0.00     0.225 C 
HETATM   18  C   UNL     1      42.050 -12.860   4.835  1.00  0.00     0.083 C 
HETATM   19  C   UNL     1      41.481 -12.162   6.013  1.00  0.00    -0.021 A 
HETATM   20  C   UNL     1      40.137 -12.471   6.115  1.00  0.00     0.076 A 
HETATM   21  C   UNL     1      42.087 -11.330   6.934  1.00  0.00     0.017 A 
HETATM   22  C   UNL     1      39.337 -11.958   7.113  1.00  0.00     0.044 A 
HETATM   23  O   UNL     1      39.721 -13.404   5.194  1.00  0.00    -0.336 OA
HETATM   24  C   UNL     1      39.928 -11.123   8.076  1.00  0.00    -0.053 A 
HETATM   25  C   UNL     1      41.315 -10.818   7.992  1.00  0.00    -0.055 A 
HETATM   26  C   UNL     1      39.082 -10.604   9.207  1.00  0.00     0.049 C 
HETATM   27  C   UNL     1      41.991  -9.978   9.045  1.00  0.00     0.049 C 
ENDBRANCH   1  17
TORSDOF 3
ENDMDL
MODEL 7
REMARK VINA RESULT:      -7.9      2.450      4.054
REMARK  3 active torsions:
REMARK  status: ('A' for Active; 'I' for Inactive)
REMARK    1  A    between atoms: C_9  and  C_10 
REMARK       I    between atoms: C_10  and  N_11 
REMARK    2  A    between atoms: N_11  and  C_12 
REMARK    3  A    between atoms: C_14  and  C_15 
ROOT
HETATM    1  C   UNL     1      40.297 -15.836   2.466  1.00  0.00     0.252 C 
HETATM    2  N   UNL     1      41.578 -15.831   2.987  1.00  0.00    -0.325 N 
HETATM    3  O   UNL     1      39.687 -16.817   2.046  1.00  0.00    -0.270 OA
HETATM    4  H   UNL     1      41.854 -14.965   3.439  1.00  0.00     0.169 HD
ENDROOT
BRANCH   2   5
HETATM    5  C   UNL     1      42.577 -16.808   2.838  1.00  0.00     0.035 A 
HETATM    6  C   UNL     1      42.872 -17.770   3.807  1.00  0.00     0.042 A 
HETATM    7  C   UNL     1      43.811 -18.785   3.554  1.00  0.00    -0.021 A 
HETATM    8  C   UNL     1      44.464 -18.812   2.314  1.00  0.00     0.012 A 
HETATM    9  C   UNL     1      44.184 -17.846   1.347  1.00  0.00     0.003 A 
HETATM   10  C   UNL     1      43.243 -16.851   1.608  1.00  0.00     0.029 A 
BRANCH   7  11
HETATM   11  C   UNL     1      44.080 -19.817   4.541  1.00  0.00     0.010 A 
HETATM   12  C   UNL     1      44.759 -21.054   4.427  1.00  0.00     0.152 A 
HETATM   13  N   UNL     1      44.799 -21.733   5.577  1.00  0.00    -0.187 NA
HETATM   14  N   UNL     1      44.140 -20.935   6.433  1.00  0.00    -0.289 N 
HETATM   15  H   UNL     1      44.033 -21.243   7.394  1.00  0.00     0.188 HD
HETATM   16  C   UNL     1      43.693 -19.778   5.865  1.00  0.00     0.123 A 
ENDBRANCH   7  11
ENDBRANCH   2   5
BRANCH   1  17
HETATM   17  C   UNL     1      39.684 -14.419   2.357  1.00  0.00     0.225 C 
HETATM   18  C   UNL     1      38.715 -14.386   1.166  1.00  0.00     0.083 C 
HETATM   19  C   UNL     1      39.639 -13.832   0.147  1.00  0.00    -0.021 A 
HETATM   20  C   UNL     1      40.703 -13.223   0.787  1.00  0.00     0.076 A 
HETATM   21  C   UNL     1      39.567 -13.863  -1.231  1.00  0.00     0.017 A 
HETATM   22  C   UNL     1      41.723 -12.607   0.095  1.00  0.00     0.044 A 
HETATM   23  O   UNL     1      40.684 -13.386   2.153  1.00  0.00    -0.336 OA
HETATM   24  C   UNL     1      41.688 -12.638  -1.309  1.00  0.00    -0.053 A 
HETATM   25  C   UNL     1      40.609 -13.282  -1.976  1.00  0.00    -0.055 A 
HETATM   26  C   UNL     1      42.825 -12.024  -2.080  1.00  0.00     0.049 C 
HETATM   27  C   UNL     1      40.576 -13.388  -3.478  1.00  0.00     0.049 C 
ENDBRANCH   1  17
TORSDOF 3
ENDMDL
MODEL 8
REMARK VINA RESULT:      -7.8      2.221      4.517
REMARK  3 active torsions:
REMARK  status: ('A' for Active; 'I' for Inactive)
REMARK    1  A    between atoms: C_9  and  C_10 
REMARK       I    between atoms: C_10  and  N_11 
REMARK    2  A    between atoms: N_11  and  C_12 
REMARK    3  A    between atoms: C_14  and  C_15 
ROOT
HETATM    1  C   UNL     1      42.318 -15.183   5.098  1.00  0.00     0.252 C 
HETATM    2  N   UNL     1      43.518 -15.850   5.264  1.00  0.00    -0.325 N 
HETATM    3  O   UNL     1      41.200 -15.621   5.362  1.00  0.00    -0.270 OA
HETATM    4  H   UNL     1      44.347 -15.275   5.154  1.00  0.00     0.169 HD
ENDROOT
BRANCH   2   5
HETATM    5  C   UNL     1      43.727 -17.232   5.414  1.00  0.00     0.035 A 
HETATM    6  C   UNL     1      43.728 -18.136   4.349  1.00  0.00     0.042 A 
HETATM    7  C   UNL     1      44.048 -19.489   4.551  1.00  0.00    -0.021 A 
HETATM    8  C   UNL     1      44.353 -19.928   5.847  1.00  0.00     0.012 A 
HETATM    9  C   UNL     1      44.340 -19.033   6.917  1.00  0.00     0.003 A 
HETATM   10  C   UNL     1      44.031 -17.691   6.700  1.00  0.00     0.029 A 
BRANCH   7  11
HETATM   11  C   UNL     1      44.101 -20.420   3.437  1.00  0.00     0.010 A 
HETATM   12  C   UNL     1      44.616 -21.736   3.351  1.00  0.00     0.152 A 
HETATM   13  N   UNL     1      44.478 -22.271   2.135  1.00  0.00    -0.187 NA
HETATM   14  N   UNL     1      43.875 -21.296   1.433  1.00  0.00    -0.289 N 
HETATM   15  H   UNL     1      43.662 -21.468   0.456  1.00  0.00     0.188 HD
HETATM   16  C   UNL     1      43.627 -20.172   2.165  1.00  0.00     0.123 A 
ENDBRANCH   7  11
ENDBRANCH   2   5
BRANCH   1  17
HETATM   17  C   UNL     1      42.485 -13.796   4.430  1.00  0.00     0.225 C 
HETATM   18  C   UNL     1      41.117 -13.100   4.378  1.00  0.00     0.083 C 
HETATM   19  C   UNL     1      40.731 -13.481   2.998  1.00  0.00    -0.021 A 
HETATM   20  C   UNL     1      41.864 -13.853   2.298  1.00  0.00     0.076 A 
HETATM   21  C   UNL     1      39.487 -13.512   2.398  1.00  0.00     0.017 A 
HETATM   22  C   UNL     1      41.818 -14.250   0.979  1.00  0.00     0.044 A 
HETATM   23  O   UNL     1      42.999 -13.881   3.075  1.00  0.00    -0.336 OA
HETATM   24  C   UNL     1      40.565 -14.309   0.346  1.00  0.00    -0.053 A 
HETATM   25  C   UNL     1      39.391 -13.950   1.064  1.00  0.00    -0.055 A 
HETATM   26  C   UNL     1      40.490 -14.799  -1.075  1.00  0.00     0.049 C 
HETATM   27  C   UNL     1      38.028 -14.065   0.433  1.00  0.00     0.049 C 
ENDBRANCH   1  17
TORSDOF 3
ENDMDL
MODEL 9
REMARK VINA RESULT:      -7.6      2.438      3.789
REMARK  3 active torsions:
REMARK  status: ('A' for Active; 'I' for Inactive)
REMARK    1  A    between atoms: C_9  and  C_10 
REMARK       I    between atoms: C_10  and  N_11 
REMARK    2  A    between atoms: N_11  and  C_12 
REMARK    3  A    between atoms: C_14  and  C_15 
ROOT
HETATM    1  C   UNL     1      42.678 -15.124   3.058  1.00  0.00     0.252 C 
HETATM    2  N   UNL     1      42.393 -16.452   3.318  1.00  0.00    -0.325 N 
HETATM    3  O   UNL     1      43.760 -14.566   3.229  1.00  0.00    -0.270 OA
HETATM    4  H   UNL     1      41.501 -16.778   2.959  1.00  0.00     0.169 HD
ENDROOT
BRANCH   2   5
HETATM    5  C   UNL     1      43.108 -17.348   4.132  1.00  0.00     0.035 A 
HETATM    6  C   UNL     1      43.345 -18.682   3.796  1.00  0.00     0.042 A 
HETATM    7  C   UNL     1      44.156 -19.497   4.603  1.00  0.00    -0.021 A 
HETATM    8  C   UNL     1      44.717 -18.956   5.767  1.00  0.00     0.012 A 
HETATM    9  C   UNL     1      44.473 -17.628   6.117  1.00  0.00     0.003 A 
HETATM   10  C   UNL     1      43.675 -16.827   5.301  1.00  0.00     0.029 A 
BRANCH   7  11
HETATM   11  C   UNL     1      44.446 -20.871   4.226  1.00  0.00     0.010 A 
HETATM   12  C   UNL     1      44.439 -21.507   2.962  1.00  0.00     0.152 A 
HETATM   13  N   UNL     1      44.767 -22.801   3.029  1.00  0.00    -0.187 NA
HETATM   14  N   UNL     1      44.982 -23.000   4.340  1.00  0.00    -0.289 N 
HETATM   15  H   UNL     1      45.247 -23.929   4.649  1.00  0.00     0.188 HD
HETATM   16  C   UNL     1      44.806 -21.879   5.097  1.00  0.00     0.123 A 
ENDBRANCH   7  11
ENDBRANCH   2   5
BRANCH   1  17
HETATM   17  C   UNL     1      41.438 -14.320   2.598  1.00  0.00     0.225 C 
HETATM   18  C   UNL     1      41.795 -12.826   2.571  1.00  0.00     0.083 C 
HETATM   19  C   UNL     1      41.274 -12.453   3.909  1.00  0.00    -0.021 A 
HETATM   20  C   UNL     1      40.378 -13.418   4.330  1.00  0.00     0.076 A 
HETATM   21  C   UNL     1      41.565 -11.363   4.705  1.00  0.00     0.017 A 
HETATM   22  C   UNL     1      39.722 -13.337   5.539  1.00  0.00     0.044 A 
HETATM   23  O   UNL     1      40.294 -14.494   3.476  1.00  0.00    -0.336 OA
HETATM   24  C   UNL     1      40.010 -12.249   6.380  1.00  0.00    -0.053 A 
HETATM   25  C   UNL     1      40.947 -11.263   5.965  1.00  0.00    -0.055 A 
HETATM   26  C   UNL     1      39.348 -12.177   7.729  1.00  0.00     0.049 C 
HETATM   27  C   UNL     1      41.325 -10.120   6.871  1.00  0.00     0.049 C 
ENDBRANCH   1  17
TORSDOF 3
ENDMDL
MODEL 10
REMARK VINA RESULT:      -7.6      3.719      7.891
REMARK  3 active torsions:
REMARK  status: ('A' for Active; 'I' for Inactive)
REMARK    1  A    between atoms: C_9  and  C_10 
REMARK       I    between atoms: C_10  and  N_11 
REMARK    2  A    between atoms: N_11  and  C_12 
REMARK    3  A    between atoms: C_14  and  C_15 
ROOT
HETATM    1  C   UNL     1      41.915 -16.540   0.880  1.00  0.00     0.252 C 
HETATM    2  N   UNL     1      40.951 -15.876   0.144  1.00  0.00    -0.325 N 
HETATM    3  O   UNL     1      43.124 -16.314   0.865  1.00  0.00    -0.270 OA
HETATM    4  H   UNL     1      39.992 -16.080   0.409  1.00  0.00     0.169 HD
ENDROOT
BRANCH   2   5
HETATM    5  C   UNL     1      41.130 -15.082  -1.002  1.00  0.00     0.035 A 
HETATM    6  C   UNL     1      41.593 -13.765  -0.969  1.00  0.00     0.042 A 
HETATM    7  C   UNL     1      41.851 -13.060  -2.157  1.00  0.00    -0.021 A 
HETATM    8  C   UNL     1      41.622 -13.695  -3.385  1.00  0.00     0.012 A 
HETATM    9  C   UNL     1      41.147 -15.006  -3.426  1.00  0.00     0.003 A 
HETATM   10  C   UNL     1      40.905 -15.696  -2.239  1.00  0.00     0.029 A 
BRANCH   7  11
HETATM   11  C   UNL     1      42.382 -11.708  -2.124  1.00  0.00     0.010 A 
HETATM   12  C   UNL     1      42.186 -10.614  -3.000  1.00  0.00     0.152 A 
HETATM   13  N   UNL     1      42.858  -9.521  -2.626  1.00  0.00    -0.187 NA
HETATM   14  N   UNL     1      43.492  -9.913  -1.508  1.00  0.00    -0.289 N 
HETATM   15  H   UNL     1      44.083  -9.242  -1.029  1.00  0.00     0.188 HD
HETATM   16  C   UNL     1      43.240 -11.209  -1.165  1.00  0.00     0.123 A 
ENDBRANCH   7  11
ENDBRANCH   2   5
BRANCH   1  17
HETATM   17  C   UNL     1      41.341 -17.719   1.702  1.00  0.00     0.225 C 
HETATM   18  C   UNL     1      40.631 -17.161   2.944  1.00  0.00     0.083 C 
HETATM   19  C   UNL     1      41.743 -17.304   3.915  1.00  0.00    -0.021 A 
HETATM   20  C   UNL     1      42.659 -18.214   3.421  1.00  0.00     0.076 A 
HETATM   21  C   UNL     1      41.948 -16.684   5.131  1.00  0.00     0.017 A 
HETATM   22  C   UNL     1      43.799 -18.561   4.113  1.00  0.00     0.044 A 
HETATM   23  O   UNL     1      42.365 -18.647   2.148  1.00  0.00    -0.336 OA
HETATM   24  C   UNL     1      44.046 -17.933   5.345  1.00  0.00    -0.053 A 
HETATM   25  C   UNL     1      43.120 -16.979   5.851  1.00  0.00    -0.055 A 
HETATM   26  C   UNL     1      45.317 -18.255   6.084  1.00  0.00     0.049 C 
HETATM   27  C   UNL     1      43.389 -16.242   7.137  1.00  0.00     0.049 C 
ENDBRANCH   1  17
TORSDOF 3
ENDMDL
