MODEL 1
REMARK VINA RESULT:      -8.0      0.000      0.000
REMARK  5 active torsions:
REMARK  status: ('A' for Active; 'I' for Inactive)
REMARK    1  A    between atoms: C_8  and  C_9 
REMARK    2  A    between atoms: C_9  and  N_10 
REMARK    3  A    between atoms: N_10  and  C_13 
REMARK    4  A    between atoms: C_13  and  C_14 
REMARK    5  A    between atoms: C_13  and  C_19 
ROOT
HETATM    1  N   UNL     1      43.105 -18.140   5.486  1.00  0.00    -0.056 N 
HETATM    2  H   UNL     1      42.462 -18.910   5.269  1.00  0.00     0.278 HD
HETATM    3  H   UNL     1      43.404 -18.257   6.462  1.00  0.00     0.278 HD
ENDROOT
BRANCH   1   4
HETATM    4  C   UNL     1      44.296 -18.264   4.606  1.00  0.00     0.275 C 
BRANCH   4   5
HETATM    5  C   UNL     1      44.173 -19.443   3.695  1.00  0.00     0.004 A 
HETATM    6  C   UNL     1      44.497 -20.717   4.136  1.00  0.00     0.113 A 
HETATM    7  C   UNL     1      44.400 -21.823   3.325  1.00  0.00     0.105 A 
HETATM    8  O   UNL     1      44.911 -21.034   5.397  1.00  0.00    -0.322 OA
HETATM    9  C   UNL     1      43.966 -21.727   2.023  1.00  0.00     0.040 A 
HETATM   10  O   UNL     1      44.764 -22.967   3.961  1.00  0.00    -0.323 OA
HETATM   11  C   UNL     1      43.626 -20.460   1.543  1.00  0.00     0.003 A 
HETATM   12  C   UNL     1      43.729 -19.325   2.370  1.00  0.00     0.012 A 
HETATM   13  C   UNL     1      45.156 -22.460   5.249  1.00  0.00     0.352 A 
ENDBRANCH   4   5
ENDBRANCH   1   4
BRANCH   1  14
HETATM   14  C   UNL     1      42.346 -16.854   5.354  1.00  0.00     0.292 C 
BRANCH  14  15
HETATM   15  C   UNL     1      43.075 -15.666   5.913  1.00  0.00     0.190 A 
HETATM   16  N   UNL     1      42.576 -14.425   5.896  1.00  0.00    -0.109 NA
HETATM   17  O   UNL     1      43.557 -13.680   6.558  1.00  0.00    -0.205 OA
HETATM   18  C   UNL     1      44.519 -14.561   6.939  1.00  0.00     0.288 A 
HETATM   19  N   UNL     1      44.262 -15.806   6.604  1.00  0.00    -0.215 NA
ENDBRANCH  14  15
BRANCH  14  20
HETATM   20  C   UNL     1      42.081 -16.533   3.892  1.00  0.00    -0.020 A 
HETATM   21  C   UNL     1      40.943 -17.070   3.259  1.00  0.00     0.011 A 
HETATM   22  C   UNL     1      40.689 -16.811   1.908  1.00  0.00     0.024 A 
HETATM   23  C   UNL     1      41.564 -16.017   1.173  1.00  0.00     0.034 A 
HETATM   24 CL   UNL     1      41.249 -15.702  -0.486  1.00  0.00    -0.084 Cl
HETATM   25  C   UNL     1      42.694 -15.475   1.779  1.00  0.00     0.024 A 
HETATM   26  C   UNL     1      42.954 -15.732   3.129  1.00  0.00     0.011 A 
ENDBRANCH  14  20
ENDBRANCH   1  14
TORSDOF 5
ENDMDL
MODEL 2
REMARK VINA RESULT:      -7.9      3.077      6.349
REMARK  5 active torsions:
REMARK  status: ('A' for Active; 'I' for Inactive)
REMARK    1  A    between atoms: C_8  and  C_9 
REMARK    2  A    between atoms: C_9  and  N_10 
REMARK    3  A    between atoms: N_10  and  C_13 
REMARK    4  A    between atoms: C_13  and  C_14 
REMARK    5  A    between atoms: C_13  and  C_19 
ROOT
HETATM    1  N   UNL     1      44.255 -18.251   1.973  1.00  0.00    -0.056 N 
HETATM    2  H   UNL     1      44.951 -18.831   1.491  1.00  0.00     0.278 HD
HETATM    3  H   UNL     1      44.769 -17.588   2.567  1.00  0.00     0.278 HD
ENDROOT
BRANCH   1   4
HETATM    4  C   UNL     1      43.498 -17.484   0.950  1.00  0.00     0.275 C 
BRANCH   4   5
HETATM    5  C   UNL     1      42.368 -16.726   1.570  1.00  0.00     0.004 A 
HETATM    6  C   UNL     1      42.612 -15.648   2.406  1.00  0.00     0.113 A 
HETATM    7  C   UNL     1      41.599 -14.931   2.998  1.00  0.00     0.105 A 
HETATM    8  O   UNL     1      43.845 -15.153   2.717  1.00  0.00    -0.322 OA
HETATM    9  C   UNL     1      40.275 -15.244   2.785  1.00  0.00     0.040 A 
HETATM   10  O   UNL     1      42.063 -13.917   3.772  1.00  0.00    -0.323 OA
HETATM   11  C   UNL     1      39.989 -16.323   1.945  1.00  0.00     0.003 A 
HETATM   12  C   UNL     1      41.025 -17.060   1.342  1.00  0.00     0.012 A 
HETATM   13  C   UNL     1      43.485 -14.101   3.654  1.00  0.00     0.352 A 
ENDBRANCH   4   5
ENDBRANCH   1   4
BRANCH   1  14
HETATM   14  C   UNL     1      43.426 -19.149   2.841  1.00  0.00     0.292 C 
BRANCH  14  15
HETATM   15  C   UNL     1      43.903 -20.573   2.860  1.00  0.00     0.190 A 
HETATM   16  N   UNL     1      43.987 -21.333   1.762  1.00  0.00    -0.109 NA
HETATM   17  O   UNL     1      44.520 -22.531   2.246  1.00  0.00    -0.205 OA
HETATM   18  C   UNL     1      44.740 -22.347   3.575  1.00  0.00     0.288 A 
HETATM   19  N   UNL     1      44.415 -21.148   4.005  1.00  0.00    -0.215 NA
ENDBRANCH  14  15
BRANCH  14  20
HETATM   20  C   UNL     1      43.458 -18.677   4.286  1.00  0.00    -0.020 A 
HETATM   21  C   UNL     1      42.254 -18.326   4.927  1.00  0.00     0.011 A 
HETATM   22  C   UNL     1      42.257 -17.865   6.248  1.00  0.00     0.024 A 
HETATM   23  C   UNL     1      43.456 -17.750   6.944  1.00  0.00     0.034 A 
HETATM   24 CL   UNL     1      43.456 -17.183   8.566  1.00  0.00    -0.084 Cl
HETATM   25  C   UNL     1      44.658 -18.094   6.330  1.00  0.00     0.024 A 
HETATM   26  C   UNL     1      44.661 -18.553   5.009  1.00  0.00     0.011 A 
ENDBRANCH  14  20
ENDBRANCH   1  14
TORSDOF 5
ENDMDL
MODEL 3
REMARK VINA RESULT:      -7.9      2.029      5.747
REMARK  5 active torsions:
REMARK  status: ('A' for Active; 'I' for Inactive)
REMARK    1  A    between atoms: C_8  and  C_9 
REMARK    2  A    between atoms: C_9  and  N_10 
REMARK    3  A    between atoms: N_10  and  C_13 
REMARK    4  A    between atoms: C_13  and  C_14 
REMARK    5  A    between atoms: C_13  and  C_19 
ROOT
HETATM    1  N   UNL     1      43.799 -18.941   5.652  1.00  0.00    -0.056 N 
HETATM    2  H   UNL     1      43.714 -19.836   6.147  1.00  0.00     0.278 HD
HETATM    3  H   UNL     1      42.846 -18.587   5.497  1.00  0.00     0.278 HD
ENDROOT
BRANCH   1   4
HETATM    4  C   UNL     1      44.524 -17.987   6.530  1.00  0.00     0.275 C 
BRANCH   4   5
HETATM    5  C   UNL     1      43.994 -16.598   6.372  1.00  0.00     0.004 A 
HETATM    6  C   UNL     1      42.629 -16.363   6.306  1.00  0.00     0.113 A 
HETATM    7  C   UNL     1      42.106 -15.101   6.156  1.00  0.00     0.105 A 
HETATM    8  O   UNL     1      41.658 -17.317   6.407  1.00  0.00    -0.322 OA
HETATM    9  C   UNL     1      42.915 -13.991   6.070  1.00  0.00     0.040 A 
HETATM   10  O   UNL     1      40.749 -15.102   6.118  1.00  0.00    -0.323 OA
HETATM   11  C   UNL     1      44.297 -14.186   6.136  1.00  0.00     0.003 A 
HETATM   12  C   UNL     1      44.835 -15.479   6.286  1.00  0.00     0.012 A 
HETATM   13  C   UNL     1      40.466 -16.510   6.204  1.00  0.00     0.352 A 
ENDBRANCH   4   5
ENDBRANCH   1   4
BRANCH   1  14
HETATM   14  C   UNL     1      44.446 -19.207   4.326  1.00  0.00     0.292 C 
BRANCH  14  15
HETATM   15  C   UNL     1      44.489 -20.663   3.961  1.00  0.00     0.190 A 
HETATM   16  N   UNL     1      44.396 -21.107   2.702  1.00  0.00    -0.109 NA
HETATM   17  O   UNL     1      44.538 -22.491   2.842  1.00  0.00    -0.205 OA
HETATM   18  C   UNL     1      44.746 -22.725   4.165  1.00  0.00     0.288 A 
HETATM   19  N   UNL     1      44.764 -21.636   4.901  1.00  0.00    -0.215 NA
ENDBRANCH  14  15
BRANCH  14  20
HETATM   20  C   UNL     1      43.681 -18.518   3.207  1.00  0.00    -0.020 A 
HETATM   21  C   UNL     1      44.374 -18.082   2.060  1.00  0.00     0.011 A 
HETATM   22  C   UNL     1      43.700 -17.423   1.027  1.00  0.00     0.024 A 
HETATM   23  C   UNL     1      42.331 -17.190   1.124  1.00  0.00     0.034 A 
HETATM   24 CL   UNL     1      41.507 -16.380  -0.147  1.00  0.00    -0.084 Cl
HETATM   25  C   UNL     1      41.627 -17.614   2.248  1.00  0.00     0.024 A 
HETATM   26  C   UNL     1      42.296 -18.272   3.285  1.00  0.00     0.011 A 
ENDBRANCH  14  20
ENDBRANCH   1  14
TORSDOF 5
ENDMDL
MODEL 4
REMARK VINA RESULT:      -7.9      3.021      4.262
REMARK  5 active torsions:
REMARK  status: ('A' for Active; 'I' for Inactive)
REMARK    1  A    between atoms: C_8  and  C_9 
REMARK    2  A    between atoms: C_9  and  N_10 
REMARK    3  A    between atoms: N_10  and  C_13 
REMARK    4  A    between atoms: C_13  and  C_14 
REMARK    5  A    between atoms: C_13  and  C_19 
ROOT
HETATM    1  N   UNL     1      42.322 -17.589   2.020  1.00  0.00    -0.056 N 
HETATM    2  H   UNL     1      41.593 -17.972   1.407  1.00  0.00     0.278 HD
HETATM    3  H   UNL     1      42.125 -17.921   2.973  1.00  0.00     0.278 HD
ENDROOT
BRANCH   1   4
HETATM    4  C   UNL     1      43.633 -18.137   1.586  1.00  0.00     0.275 C 
BRANCH   4   5
HETATM    5  C   UNL     1      43.917 -19.446   2.249  1.00  0.00     0.004 A 
HETATM    6  C   UNL     1      44.270 -19.500   3.589  1.00  0.00     0.113 A 
HETATM    7  C   UNL     1      44.543 -20.685   4.230  1.00  0.00     0.105 A 
HETATM    8  O   UNL     1      44.362 -18.426   4.425  1.00  0.00    -0.322 OA
HETATM    9  C   UNL     1      44.472 -21.893   3.574  1.00  0.00     0.040 A 
HETATM   10  O   UNL     1      44.864 -20.506   5.537  1.00  0.00    -0.323 OA
HETATM   11  C   UNL     1      44.115 -21.880   2.224  1.00  0.00     0.003 A 
HETATM   12  C   UNL     1      43.840 -20.667   1.563  1.00  0.00     0.012 A 
HETATM   13  C   UNL     1      44.821 -19.072   5.644  1.00  0.00     0.352 A 
ENDBRANCH   4   5
ENDBRANCH   1   4
BRANCH   1  14
HETATM   14  C   UNL     1      42.211 -16.095   1.988  1.00  0.00     0.292 C 
BRANCH  14  15
HETATM   15  C   UNL     1      40.806 -15.600   1.799  1.00  0.00     0.190 A 
HETATM   16  N   UNL     1      39.725 -16.334   2.090  1.00  0.00    -0.109 NA
HETATM   17  O   UNL     1      38.667 -15.463   1.812  1.00  0.00    -0.205 OA
HETATM   18  C   UNL     1      39.227 -14.286   1.425  1.00  0.00     0.288 A 
HETATM   19  N   UNL     1      40.541 -14.296   1.432  1.00  0.00    -0.215 NA
ENDBRANCH  14  15
BRANCH  14  20
HETATM   20  C   UNL     1      42.694 -15.492   3.298  1.00  0.00    -0.020 A 
HETATM   21  C   UNL     1      43.587 -14.403   3.273  1.00  0.00     0.011 A 
HETATM   22  C   UNL     1      44.066 -13.846   4.463  1.00  0.00     0.024 A 
HETATM   23  C   UNL     1      43.663 -14.365   5.689  1.00  0.00     0.034 A 
HETATM   24 CL   UNL     1      44.254 -13.679   7.149  1.00  0.00    -0.084 Cl
HETATM   25  C   UNL     1      42.779 -15.441   5.737  1.00  0.00     0.024 A 
HETATM   26  C   UNL     1      42.298 -16.003   4.550  1.00  0.00     0.011 A 
ENDBRANCH  14  20
ENDBRANCH   1  14
TORSDOF 5
ENDMDL
MODEL 5
REMARK VINA RESULT:      -7.7      1.826      2.847
REMARK  5 active torsions:
REMARK  status: ('A' for Active; 'I' for Inactive)
REMARK    1  A    between atoms: C_8  and  C_9 
REMARK    2  A    between atoms: C_9  and  N_10 
REMARK    3  A    between atoms: N_10  and  C_13 
REMARK    4  A    between atoms: C_13  and  C_14 
REMARK    5  A    between atoms: C_13  and  C_19 
ROOT
HETATM    1  N   UNL     1      42.566 -18.045   2.291  1.00  0.00    -0.056 N 
HETATM    2  H   UNL     1      42.779 -17.646   1.369  1.00  0.00     0.278 HD
HETATM    3  H   UNL     1      42.349 -19.040   2.150  1.00  0.00     0.278 HD
ENDROOT
BRANCH   1   4
HETATM    4  C   UNL     1      43.783 -17.939   3.138  1.00  0.00     0.275 C 
BRANCH   4   5
HETATM    5  C   UNL     1      44.096 -19.244   3.796  1.00  0.00     0.004 A 
HETATM    6  C   UNL     1      44.191 -20.409   3.052  1.00  0.00     0.113 A 
HETATM    7  C   UNL     1      44.473 -21.627   3.624  1.00  0.00     0.105 A 
HETATM    8  O   UNL     1      44.052 -20.494   1.697  1.00  0.00    -0.322 OA
HETATM    9  C   UNL     1      44.686 -21.755   4.978  1.00  0.00     0.040 A 
HETATM   10  O   UNL     1      44.521 -22.631   2.712  1.00  0.00    -0.323 OA
HETATM   11  C   UNL     1      44.602 -20.602   5.762  1.00  0.00     0.003 A 
HETATM   12  C   UNL     1      44.309 -19.355   5.179  1.00  0.00     0.012 A 
HETATM   13  C   UNL     1      44.183 -21.929   1.502  1.00  0.00     0.352 A 
ENDBRANCH   4   5
ENDBRANCH   1   4
BRANCH   1  14
HETATM   14  C   UNL     1      41.352 -17.348   2.826  1.00  0.00     0.292 C 
BRANCH  14  15
HETATM   15  C   UNL     1      41.599 -16.618   4.116  1.00  0.00     0.190 A 
HETATM   16  N   UNL     1      42.144 -15.397   4.174  1.00  0.00    -0.109 NA
HETATM   17  O   UNL     1      42.126 -15.108   5.542  1.00  0.00    -0.205 OA
HETATM   18  C   UNL     1      41.532 -16.167   6.153  1.00  0.00     0.288 A 
HETATM   19  N   UNL     1      41.151 -17.113   5.324  1.00  0.00    -0.215 NA
ENDBRANCH  14  15
BRANCH  14  20
HETATM   20  C   UNL     1      40.855 -16.301   1.841  1.00  0.00    -0.020 A 
HETATM   21  C   UNL     1      41.624 -16.003   0.699  1.00  0.00     0.011 A 
HETATM   22  C   UNL     1      41.203 -15.028  -0.210  1.00  0.00     0.024 A 
HETATM   23  C   UNL     1      40.014 -14.338   0.007  1.00  0.00     0.034 A 
HETATM   24 CL   UNL     1      39.500 -13.140  -1.111  1.00  0.00    -0.084 Cl
HETATM   25  C   UNL     1      39.238 -14.618   1.129  1.00  0.00     0.024 A 
HETATM   26  C   UNL     1      39.655 -15.591   2.042  1.00  0.00     0.011 A 
ENDBRANCH  14  20
ENDBRANCH   1  14
TORSDOF 5
ENDMDL
MODEL 6
REMARK VINA RESULT:      -7.7      3.138      6.313
REMARK  5 active torsions:
REMARK  status: ('A' for Active; 'I' for Inactive)
REMARK    1  A    between atoms: C_8  and  C_9 
REMARK    2  A    between atoms: C_9  and  N_10 
REMARK    3  A    between atoms: N_10  and  C_13 
REMARK    4  A    between atoms: C_13  and  C_14 
REMARK    5  A    between atoms: C_13  and  C_19 
ROOT
HETATM    1  N   UNL     1      41.990 -16.176   3.422  1.00  0.00    -0.056 N 
HETATM    2  H   UNL     1      41.242 -16.255   4.119  1.00  0.00     0.278 HD
HETATM    3  H   UNL     1      41.739 -16.788   2.634  1.00  0.00     0.278 HD
ENDROOT
BRANCH   1   4
HETATM    4  C   UNL     1      42.032 -14.772   2.938  1.00  0.00     0.275 C 
BRANCH   4   5
HETATM    5  C   UNL     1      41.771 -14.699   1.468  1.00  0.00     0.004 A 
HETATM    6  C   UNL     1      41.912 -13.503   0.781  1.00  0.00     0.113 A 
HETATM    7  C   UNL     1      41.676 -13.399  -0.569  1.00  0.00     0.105 A 
HETATM    8  O   UNL     1      42.318 -12.322   1.329  1.00  0.00    -0.322 OA
HETATM    9  C   UNL     1      41.290 -14.486  -1.321  1.00  0.00     0.040 A 
HETATM   10  O   UNL     1      41.877 -12.139  -1.035  1.00  0.00    -0.323 OA
HETATM   11  C   UNL     1      41.141 -15.710  -0.664  1.00  0.00     0.003 A 
HETATM   12  C   UNL     1      41.378 -15.819   0.719  1.00  0.00     0.012 A 
HETATM   13  C   UNL     1      42.213 -11.441   0.177  1.00  0.00     0.352 A 
ENDBRANCH   4   5
ENDBRANCH   1   4
BRANCH   1  14
HETATM   14  C   UNL     1      43.257 -16.675   4.047  1.00  0.00     0.292 C 
BRANCH  14  15
HETATM   15  C   UNL     1      43.184 -16.792   5.542  1.00  0.00     0.190 A 
HETATM   16  N   UNL     1      44.064 -16.212   6.367  1.00  0.00    -0.109 NA
HETATM   17  O   UNL     1      43.575 -16.542   7.635  1.00  0.00    -0.205 OA
HETATM   18  C   UNL     1      42.429 -17.247   7.435  1.00  0.00     0.288 A 
HETATM   19  N   UNL     1      42.115 -17.402   6.168  1.00  0.00    -0.215 NA
ENDBRANCH  14  15
BRANCH  14  20
HETATM   20  C   UNL     1      43.598 -18.066   3.534  1.00  0.00    -0.020 A 
HETATM   21  C   UNL     1      43.070 -18.500   2.303  1.00  0.00     0.011 A 
HETATM   22  C   UNL     1      43.347 -19.783   1.820  1.00  0.00     0.024 A 
HETATM   23  C   UNL     1      44.151 -20.648   2.558  1.00  0.00     0.034 A 
HETATM   24 CL   UNL     1      44.488 -22.223   1.962  1.00  0.00    -0.084 Cl
HETATM   25  C   UNL     1      44.684 -20.238   3.777  1.00  0.00     0.024 A 
HETATM   26  C   UNL     1      44.409 -18.957   4.265  1.00  0.00     0.011 A 
ENDBRANCH  14  20
ENDBRANCH   1  14
TORSDOF 5
ENDMDL
MODEL 7
REMARK VINA RESULT:      -7.7      3.797      6.899
REMARK  5 active torsions:
REMARK  status: ('A' for Active; 'I' for Inactive)
REMARK    1  A    between atoms: C_8  and  C_9 
REMARK    2  A    between atoms: C_9  and  N_10 
REMARK    3  A    between atoms: N_10  and  C_13 
REMARK    4  A    between atoms: C_13  and  C_14 
REMARK    5  A    between atoms: C_13  and  C_19 
ROOT
HETATM    1  N   UNL     1      42.136 -17.274   1.518  1.00  0.00    -0.056 N 
HETATM    2  H   UNL     1      41.189 -17.381   1.901  1.00  0.00     0.278 HD
HETATM    3  H   UNL     1      42.307 -18.077   0.899  1.00  0.00     0.278 HD
ENDROOT
BRANCH   1   4
HETATM    4  C   UNL     1      42.173 -16.030   0.706  1.00  0.00     0.275 C 
BRANCH   4   5
HETATM    5  C   UNL     1      40.836 -15.362   0.681  1.00  0.00     0.004 A 
HETATM    6  C   UNL     1      40.456 -14.579  -0.398  1.00  0.00     0.113 A 
HETATM    7  C   UNL     1      39.236 -13.946  -0.453  1.00  0.00     0.105 A 
HETATM    8  O   UNL     1      41.201 -14.365  -1.521  1.00  0.00    -0.322 OA
HETATM    9  C   UNL     1      38.317 -14.061   0.564  1.00  0.00     0.040 A 
HETATM   10  O   UNL     1      39.071 -13.236  -1.599  1.00  0.00    -0.323 OA
HETATM   11  C   UNL     1      38.663 -14.845   1.667  1.00  0.00     0.003 A 
HETATM   12  C   UNL     1      39.912 -15.491   1.728  1.00  0.00     0.012 A 
HETATM   13  C   UNL     1      40.341 -13.441  -2.243  1.00  0.00     0.352 A 
ENDBRANCH   4   5
ENDBRANCH   1   4
BRANCH   1  14
HETATM   14  C   UNL     1      43.103 -17.320   2.662  1.00  0.00     0.292 C 
BRANCH  14  15
HETATM   15  C   UNL     1      42.510 -16.874   3.968  1.00  0.00     0.190 A 
HETATM   16  N   UNL     1      43.001 -15.857   4.686  1.00  0.00    -0.109 NA
HETATM   17  O   UNL     1      42.115 -15.775   5.765  1.00  0.00    -0.205 OA
HETATM   18  C   UNL     1      41.163 -16.724   5.556  1.00  0.00     0.288 A 
HETATM   19  N   UNL     1      41.331 -17.408   4.446  1.00  0.00    -0.215 NA
ENDBRANCH  14  15
BRANCH  14  20
HETATM   20  C   UNL     1      43.598 -18.740   2.890  1.00  0.00    -0.020 A 
HETATM   21  C   UNL     1      43.362 -19.723   1.909  1.00  0.00     0.011 A 
HETATM   22  C   UNL     1      43.784 -21.042   2.104  1.00  0.00     0.024 A 
HETATM   23  C   UNL     1      44.445 -21.397   3.277  1.00  0.00     0.034 A 
HETATM   24 CL   UNL     1      44.962 -23.018   3.513  1.00  0.00    -0.084 Cl
HETATM   25  C   UNL     1      44.690 -20.440   4.259  1.00  0.00     0.024 A 
HETATM   26  C   UNL     1      44.269 -19.120   4.069  1.00  0.00     0.011 A 
ENDBRANCH  14  20
ENDBRANCH   1  14
TORSDOF 5
ENDMDL
MODEL 8
REMARK VINA RESULT:      -7.6      2.294      3.121
REMARK  5 active torsions:
REMARK  status: ('A' for Active; 'I' for Inactive)
REMARK    1  A    between atoms: C_8  and  C_9 
REMARK    2  A    between atoms: C_9  and  N_10 
REMARK    3  A    between atoms: N_10  and  C_13 
REMARK    4  A    between atoms: C_13  and  C_14 
REMARK    5  A    between atoms: C_13  and  C_19 
ROOT
HETATM    1  N   UNL     1      42.499 -16.857   2.003  1.00  0.00    -0.056 N 
HETATM    2  H   UNL     1      43.388 -16.842   2.516  1.00  0.00     0.278 HD
HETATM    3  H   UNL     1      42.688 -16.509   1.054  1.00  0.00     0.278 HD
ENDROOT
BRANCH   1   4
HETATM    4  C   UNL     1      42.039 -18.266   1.909  1.00  0.00     0.275 C 
BRANCH   4   5
HETATM    5  C   UNL     1      43.040 -19.202   2.506  1.00  0.00     0.004 A 
HETATM    6  C   UNL     1      43.578 -18.959   3.760  1.00  0.00     0.113 A 
HETATM    7  C   UNL     1      44.505 -19.795   4.337  1.00  0.00     0.105 A 
HETATM    8  O   UNL     1      43.249 -17.913   4.571  1.00  0.00    -0.322 OA
HETATM    9  C   UNL     1      44.947 -20.932   3.699  1.00  0.00     0.040 A 
HETATM   10  O   UNL     1      44.893 -19.369   5.567  1.00  0.00    -0.323 OA
HETATM   11  C   UNL     1      44.425 -21.212   2.435  1.00  0.00     0.003 A 
HETATM   12  C   UNL     1      43.480 -20.356   1.839  1.00  0.00     0.012 A 
HETATM   13  C   UNL     1      44.154 -18.141   5.686  1.00  0.00     0.352 A 
ENDBRANCH   4   5
ENDBRANCH   1   4
BRANCH   1  14
HETATM   14  C   UNL     1      41.554 -15.920   2.692  1.00  0.00     0.292 C 
BRANCH  14  15
HETATM   15  C   UNL     1      42.243 -14.823   3.452  1.00  0.00     0.190 A 
HETATM   16  N   UNL     1      43.363 -14.227   3.027  1.00  0.00    -0.109 NA
HETATM   17  O   UNL     1      43.598 -13.258   4.007  1.00  0.00    -0.205 OA
HETATM   18  C   UNL     1      42.569 -13.347   4.892  1.00  0.00     0.288 A 
HETATM   19  N   UNL     1      41.683 -14.267   4.585  1.00  0.00    -0.215 NA
ENDBRANCH  14  15
BRANCH  14  20
HETATM   20  C   UNL     1      40.653 -15.226   1.681  1.00  0.00    -0.020 A 
HETATM   21  C   UNL     1      39.323 -14.924   2.031  1.00  0.00     0.011 A 
HETATM   22  C   UNL     1      38.466 -14.309   1.113  1.00  0.00     0.024 A 
HETATM   23  C   UNL     1      38.923 -13.990  -0.163  1.00  0.00     0.034 A 
HETATM   24 CL   UNL     1      37.867 -13.235  -1.288  1.00  0.00    -0.084 Cl
HETATM   25  C   UNL     1      40.235 -14.279  -0.529  1.00  0.00     0.024 A 
HETATM   26  C   UNL     1      41.096 -14.894   0.385  1.00  0.00     0.011 A 
ENDBRANCH  14  20
ENDBRANCH   1  14
TORSDOF 5
ENDMDL
MODEL 9
REMARK VINA RESULT:      -7.5      3.524      6.769
REMARK  5 active torsions:
REMARK  status: ('A' for Active; 'I' for Inactive)
REMARK    1  A    between atoms: C_8  and  C_9 
REMARK    2  A    between atoms: C_9  and  N_10 
REMARK    3  A    between atoms: N_10  and  C_13 
REMARK    4  A    between atoms: C_13  and  C_14 
REMARK    5  A    between atoms: C_13  and  C_19 
ROOT
HETATM    1  N   UNL     1      42.283 -16.423   2.039  1.00  0.00    -0.056 N 
HETATM    2  H   UNL     1      41.389 -16.918   2.130  1.00  0.00     0.278 HD
HETATM    3  H   UNL     1      42.732 -16.761   1.179  1.00  0.00     0.278 HD
ENDROOT
BRANCH   1   4
HETATM    4  C   UNL     1      42.000 -14.972   1.888  1.00  0.00     0.275 C 
BRANCH   4   5
HETATM    5  C   UNL     1      41.705 -14.625   0.464  1.00  0.00     0.004 A 
HETATM    6  C   UNL     1      41.913 -13.339  -0.010  1.00  0.00     0.113 A 
HETATM    7  C   UNL     1      41.649 -12.983  -1.312  1.00  0.00     0.105 A 
HETATM    8  O   UNL     1      42.418 -12.301   0.718  1.00  0.00    -0.322 OA
HETATM    9  C   UNL     1      41.167 -13.893  -2.224  1.00  0.00     0.040 A 
HETATM   10  O   UNL     1      41.928 -11.677  -1.559  1.00  0.00    -0.323 OA
HETATM   11  C   UNL     1      40.948 -15.201  -1.785  1.00  0.00     0.003 A 
HETATM   12  C   UNL     1      41.213 -15.567  -0.452  1.00  0.00     0.012 A 
HETATM   13  C   UNL     1      42.345 -11.226  -0.259  1.00  0.00     0.352 A 
ENDBRANCH   4   5
ENDBRANCH   1   4
BRANCH   1  14
HETATM   14  C   UNL     1      43.135 -16.789   3.216  1.00  0.00     0.292 C 
BRANCH  14  15
HETATM   15  C   UNL     1      42.437 -16.627   4.536  1.00  0.00     0.190 A 
HETATM   16  N   UNL     1      42.895 -15.840   5.516  1.00  0.00    -0.109 NA
HETATM   17  O   UNL     1      41.913 -15.961   6.504  1.00  0.00    -0.205 OA
HETATM   18  C   UNL     1      40.949 -16.773   5.994  1.00  0.00     0.288 A 
HETATM   19  N   UNL     1      41.197 -17.186   4.771  1.00  0.00    -0.215 NA
ENDBRANCH  14  15
BRANCH  14  20
HETATM   20  C   UNL     1      43.557 -18.248   3.141  1.00  0.00    -0.020 A 
HETATM   21  C   UNL     1      43.200 -19.016   2.016  1.00  0.00     0.011 A 
HETATM   22  C   UNL     1      43.554 -20.367   1.932  1.00  0.00     0.024 A 
HETATM   23  C   UNL     1      44.265 -20.967   2.967  1.00  0.00     0.034 A 
HETATM   24 CL   UNL     1      44.696 -22.626   2.862  1.00  0.00    -0.084 Cl
HETATM   25  C   UNL     1      44.628 -20.225   4.088  1.00  0.00     0.024 A 
HETATM   26  C   UNL     1      44.276 -18.875   4.178  1.00  0.00     0.011 A 
ENDBRANCH  14  20
ENDBRANCH   1  14
TORSDOF 5
ENDMDL
MODEL 10
REMARK VINA RESULT:      -7.4      3.331      6.230
REMARK  5 active torsions:
REMARK  status: ('A' for Active; 'I' for Inactive)
REMARK    1  A    between atoms: C_8  and  C_9 
REMARK    2  A    between atoms: C_9  and  N_10 
REMARK    3  A    between atoms: N_10  and  C_13 
REMARK    4  A    between atoms: C_13  and  C_14 
REMARK    5  A    between atoms: C_13  and  C_19 
ROOT
HETATM    1  N   UNL     1      42.659 -15.732   3.475  1.00  0.00    -0.056 N 
HETATM    2  H   UNL     1      41.848 -15.532   4.072  1.00  0.00     0.278 HD
HETATM    3  H   UNL     1      42.318 -16.271   2.669  1.00  0.00     0.278 HD
ENDROOT
BRANCH   1   4
HETATM    4  C   UNL     1      43.210 -14.441   2.987  1.00  0.00     0.275 C 
BRANCH   4   5
HETATM    5  C   UNL     1      42.192 -13.686   2.194  1.00  0.00     0.004 A 
HETATM    6  C   UNL     1      41.664 -14.219   1.028  1.00  0.00     0.113 A 
HETATM    7  C   UNL     1      40.731 -13.551   0.271  1.00  0.00     0.105 A 
HETATM    8  O   UNL     1      41.967 -15.445   0.513  1.00  0.00    -0.322 OA
HETATM    9  C   UNL     1      40.260 -12.310   0.636  1.00  0.00     0.040 A 
HETATM   10  O   UNL     1      40.349 -14.257  -0.824  1.00  0.00    -0.323 OA
HETATM   11  C   UNL     1      40.766 -11.742   1.807  1.00  0.00     0.003 A 
HETATM   12  C   UNL     1      41.725 -12.422   2.582  1.00  0.00     0.012 A 
HETATM   13  C   UNL     1      41.184 -15.423  -0.712  1.00  0.00     0.352 A 
ENDBRANCH   4   5
ENDBRANCH   1   4
BRANCH   1  14
HETATM   14  C   UNL     1      43.614 -16.577   4.263  1.00  0.00     0.292 C 
BRANCH  14  15
HETATM   15  C   UNL     1      43.169 -16.827   5.676  1.00  0.00     0.190 A 
HETATM   16  N   UNL     1      41.953 -17.285   5.992  1.00  0.00    -0.109 NA
HETATM   17  O   UNL     1      42.013 -17.411   7.383  1.00  0.00    -0.205 OA
HETATM   18  C   UNL     1      43.273 -17.057   7.748  1.00  0.00     0.288 A 
HETATM   19  N   UNL     1      44.045 -16.723   6.738  1.00  0.00    -0.215 NA
ENDBRANCH  14  15
BRANCH  14  20
HETATM   20  C   UNL     1      43.770 -17.949   3.625  1.00  0.00    -0.020 A 
HETATM   21  C   UNL     1      43.217 -18.188   2.352  1.00  0.00     0.011 A 
HETATM   22  C   UNL     1      43.325 -19.447   1.752  1.00  0.00     0.024 A 
HETATM   23  C   UNL     1      43.981 -20.481   2.413  1.00  0.00     0.034 A 
HETATM   24 CL   UNL     1      44.111 -22.026   1.674  1.00  0.00    -0.084 Cl
HETATM   25  C   UNL     1      44.536 -20.266   3.672  1.00  0.00     0.024 A 
HETATM   26  C   UNL     1      44.431 -19.009   4.276  1.00  0.00     0.011 A 
ENDBRANCH  14  20
ENDBRANCH   1  14
TORSDOF 5
ENDMDL
