MODEL 1
REMARK VINA RESULT:      -9.4      0.000      0.000
REMARK  4 active torsions:
REMARK  status: ('A' for Active; 'I' for Inactive)
REMARK       I    between atoms: N_10  and  C_11 
REMARK    1  A    between atoms: C_11  and  C_12 
REMARK    2  A    between atoms: C_12  and  O_13 
REMARK    3  A    between atoms: O_13  and  C_14 
REMARK    4  A    between atoms: C_15  and  C_16 
ROOT
HETATM    1  C   UNL     1      44.321 -21.990   2.136  1.00  0.00     0.001 A 
HETATM    2  C   UNL     1      43.890 -20.734   1.694  1.00  0.00     0.014 A 
HETATM    3  C   UNL     1      43.831 -19.662   2.607  1.00  0.00     0.000 A 
HETATM    4  C   UNL     1      44.206 -19.892   3.935  1.00  0.00     0.043 A 
HETATM    5  N   UNL     1      44.062 -18.703   4.618  1.00  0.00    -0.358 N 
HETATM    6  H   UNL     1      44.257 -18.580   5.601  1.00  0.00     0.166 HD
HETATM    7  C   UNL     1      43.626 -17.738   3.760  1.00  0.00     0.020 A 
HETATM    8  C   UNL     1      43.459 -18.290   2.507  1.00  0.00    -0.005 A 
HETATM    9  C   UNL     1      42.992 -17.517   1.320  1.00  0.00     0.167 C 
HETATM   10  N   UNL     1      42.658 -16.122   1.681  1.00  0.00    -0.346 N 
HETATM   11  C   UNL     1      41.998 -15.272   0.794  1.00  0.00     0.244 C 
HETATM   12  O   UNL     1      41.973 -14.048   0.956  1.00  0.00    -0.271 OA
HETATM   13  C   UNL     1      43.410 -15.497   2.790  1.00  0.00     0.132 C 
HETATM   14  C   UNL     1      43.359 -16.318   4.093  1.00  0.00     0.077 C 
HETATM   15  C   UNL     1      44.636 -21.145   4.391  1.00  0.00     0.030 A 
HETATM   16  C   UNL     1      44.687 -22.190   3.464  1.00  0.00     0.002 A 
ENDROOT
BRANCH  11  17
HETATM   17  C   UNL     1      41.304 -15.888  -0.423  1.00  0.00     0.278 C 
BRANCH  17  18
HETATM   18  O   UNL     1      41.150 -14.899  -1.433  1.00  0.00    -0.341 OA
BRANCH  18  19
HETATM   19  C   UNL     1      40.097 -15.054  -2.295  1.00  0.00     0.077 A 
HETATM   20  C   UNL     1      38.972 -14.237  -2.067  1.00  0.00    -0.001 A 
HETATM   21  C   UNL     1      37.867 -14.361  -2.936  1.00  0.00     0.012 A 
HETATM   22  C   UNL     1      37.871 -15.282  -3.982  1.00  0.00     0.001 A 
HETATM   23  C   UNL     1      38.979 -16.099  -4.181  1.00  0.00     0.003 A 
HETATM   24  C   UNL     1      40.087 -15.988  -3.339  1.00  0.00     0.037 A 
BRANCH  20  25
HETATM   25  C   UNL     1      38.959 -13.226  -0.935  1.00  0.00     0.144 C 
HETATM   26  S   UNL     1      38.387 -11.581  -1.487  1.00  0.00    -0.148 SA
HETATM   27  C   UNL     1      37.649 -11.110   0.091  1.00  0.00     0.085 C 
HETATM   28  C   UNL     1      36.875 -12.313   0.591  1.00  0.00     0.085 C 
HETATM   29  S   UNL     1      37.945 -13.774   0.492  1.00  0.00    -0.148 SA
ENDBRANCH  20  25
ENDBRANCH  18  19
ENDBRANCH  17  18
ENDBRANCH  11  17
TORSDOF 4
ENDMDL
MODEL 2
REMARK VINA RESULT:      -8.8      2.258      3.107
REMARK  4 active torsions:
REMARK  status: ('A' for Active; 'I' for Inactive)
REMARK       I    between atoms: N_10  and  C_11 
REMARK    1  A    between atoms: C_11  and  C_12 
REMARK    2  A    between atoms: C_12  and  O_13 
REMARK    3  A    between atoms: O_13  and  C_14 
REMARK    4  A    between atoms: C_15  and  C_16 
ROOT
HETATM    1  C   UNL     1      43.814 -21.498   1.743  1.00  0.00     0.001 A 
HETATM    2  C   UNL     1      43.167 -20.260   1.813  1.00  0.00     0.014 A 
HETATM    3  C   UNL     1      43.419 -19.407   2.907  1.00  0.00     0.000 A 
HETATM    4  C   UNL     1      44.313 -19.833   3.895  1.00  0.00     0.043 A 
HETATM    5  N   UNL     1      44.386 -18.836   4.844  1.00  0.00    -0.358 N 
HETATM    6  H   UNL     1      44.956 -18.878   5.677  1.00  0.00     0.166 HD
HETATM    7  C   UNL     1      43.584 -17.798   4.474  1.00  0.00     0.020 A 
HETATM    8  C   UNL     1      42.957 -18.114   3.287  1.00  0.00    -0.005 A 
HETATM    9  C   UNL     1      42.003 -17.203   2.589  1.00  0.00     0.167 C 
HETATM   10  N   UNL     1      41.761 -15.972   3.373  1.00  0.00    -0.346 N 
HETATM   11  C   UNL     1      40.748 -15.075   3.035  1.00  0.00     0.244 C 
HETATM   12  O   UNL     1      40.717 -13.924   3.482  1.00  0.00    -0.271 OA
HETATM   13  C   UNL     1      42.859 -15.470   4.225  1.00  0.00     0.132 C 
HETATM   14  C   UNL     1      43.389 -16.528   5.213  1.00  0.00     0.077 C 
HETATM   15  C   UNL     1      44.965 -21.072   3.839  1.00  0.00     0.030 A 
HETATM   16  C   UNL     1      44.699 -21.896   2.742  1.00  0.00     0.002 A 
ENDROOT
BRANCH  11  17
HETATM   17  C   UNL     1      39.659 -15.539   2.065  1.00  0.00     0.278 C 
BRANCH  17  18
HETATM   18  O   UNL     1      39.896 -14.976   0.781  1.00  0.00    -0.341 OA
BRANCH  18  19
HETATM   19  C   UNL     1      39.043 -13.982   0.375  1.00  0.00     0.077 A 
HETATM   20  C   UNL     1      39.522 -13.111  -0.624  1.00  0.00    -0.001 A 
HETATM   21  C   UNL     1      38.674 -12.078  -1.074  1.00  0.00     0.012 A 
HETATM   22  C   UNL     1      37.401 -11.902  -0.535  1.00  0.00     0.001 A 
HETATM   23  C   UNL     1      36.950 -12.754   0.467  1.00  0.00     0.003 A 
HETATM   24  C   UNL     1      37.769 -13.789   0.923  1.00  0.00     0.037 A 
BRANCH  20  25
HETATM   25  C   UNL     1      40.904 -13.298  -1.223  1.00  0.00     0.144 C 
HETATM   26  S   UNL     1      40.905 -13.072  -3.036  1.00  0.00    -0.148 SA
HETATM   27  C   UNL     1      42.592 -12.436  -3.136  1.00  0.00     0.085 C 
HETATM   28  C   UNL     1      42.751 -11.434  -2.011  1.00  0.00     0.085 C 
HETATM   29  S   UNL     1      42.157 -12.188  -0.472  1.00  0.00    -0.148 SA
ENDBRANCH  20  25
ENDBRANCH  18  19
ENDBRANCH  17  18
ENDBRANCH  11  17
TORSDOF 4
ENDMDL
MODEL 3
REMARK VINA RESULT:      -8.8      2.079      3.070
REMARK  4 active torsions:
REMARK  status: ('A' for Active; 'I' for Inactive)
REMARK       I    between atoms: N_10  and  C_11 
REMARK    1  A    between atoms: C_11  and  C_12 
REMARK    2  A    between atoms: C_12  and  O_13 
REMARK    3  A    between atoms: O_13  and  C_14 
REMARK    4  A    between atoms: C_15  and  C_16 
ROOT
HETATM    1  C   UNL     1      44.445 -21.061   2.489  1.00  0.00     0.001 A 
HETATM    2  C   UNL     1      44.049 -19.747   2.217  1.00  0.00     0.014 A 
HETATM    3  C   UNL     1      43.914 -18.830   3.280  1.00  0.00     0.000 A 
HETATM    4  C   UNL     1      44.181 -19.270   4.580  1.00  0.00     0.043 A 
HETATM    5  N   UNL     1      43.979 -18.201   5.428  1.00  0.00    -0.358 N 
HETATM    6  H   UNL     1      44.094 -18.235   6.431  1.00  0.00     0.166 HD
HETATM    7  C   UNL     1      43.612 -17.109   4.700  1.00  0.00     0.020 A 
HETATM    8  C   UNL     1      43.547 -17.456   3.367  1.00  0.00    -0.005 A 
HETATM    9  C   UNL     1      43.176 -16.501   2.282  1.00  0.00     0.167 C 
HETATM   10  N   UNL     1      42.810 -15.177   2.830  1.00  0.00    -0.346 N 
HETATM   11  C   UNL     1      42.221 -14.192   2.038  1.00  0.00     0.244 C 
HETATM   12  O   UNL     1      42.180 -13.008   2.388  1.00  0.00    -0.271 OA
HETATM   13  C   UNL     1      43.469 -14.742   4.080  1.00  0.00     0.132 C 
HETATM   14  C   UNL     1      43.314 -15.756   5.230  1.00  0.00     0.077 C 
HETATM   15  C   UNL     1      44.576 -20.583   4.867  1.00  0.00     0.030 A 
HETATM   16  C   UNL     1      44.704 -21.470   3.795  1.00  0.00     0.002 A 
ENDROOT
BRANCH  11  17
HETATM   17  C   UNL     1      41.629 -14.603   0.688  1.00  0.00     0.278 C 
BRANCH  17  18
HETATM   18  O   UNL     1      40.904 -13.511   0.136  1.00  0.00    -0.341 OA
BRANCH  18  19
HETATM   19  C   UNL     1      41.410 -12.948  -1.007  1.00  0.00     0.077 A 
HETATM   20  C   UNL     1      40.868 -13.402  -2.225  1.00  0.00    -0.001 A 
HETATM   21  C   UNL     1      41.357 -12.845  -3.426  1.00  0.00     0.012 A 
HETATM   22  C   UNL     1      42.366 -11.883  -3.416  1.00  0.00     0.001 A 
HETATM   23  C   UNL     1      42.909 -11.462  -2.207  1.00  0.00     0.003 A 
HETATM   24  C   UNL     1      42.436 -11.993  -1.007  1.00  0.00     0.037 A 
BRANCH  20  25
HETATM   25  C   UNL     1      39.764 -14.443  -2.247  1.00  0.00     0.144 C 
HETATM   26  S   UNL     1      38.196 -13.771  -2.901  1.00  0.00    -0.148 SA
HETATM   27  C   UNL     1      37.618 -15.327  -3.613  1.00  0.00     0.085 C 
HETATM   28  C   UNL     1      38.802 -15.952  -4.321  1.00  0.00     0.085 C 
HETATM   29  S   UNL     1      40.224 -15.944  -3.196  1.00  0.00    -0.148 SA
ENDBRANCH  20  25
ENDBRANCH  18  19
ENDBRANCH  17  18
ENDBRANCH  11  17
TORSDOF 4
ENDMDL
MODEL 4
REMARK VINA RESULT:      -8.6      4.024      6.016
REMARK  4 active torsions:
REMARK  status: ('A' for Active; 'I' for Inactive)
REMARK       I    between atoms: N_10  and  C_11 
REMARK    1  A    between atoms: C_11  and  C_12 
REMARK    2  A    between atoms: C_12  and  O_13 
REMARK    3  A    between atoms: O_13  and  C_14 
REMARK    4  A    between atoms: C_15  and  C_16 
ROOT
HETATM    1  C   UNL     1      44.609 -20.856   1.775  1.00  0.00     0.001 A 
HETATM    2  C   UNL     1      44.439 -19.867   2.750  1.00  0.00     0.014 A 
HETATM    3  C   UNL     1      44.325 -20.242   4.104  1.00  0.00     0.000 A 
HETATM    4  C   UNL     1      44.384 -21.600   4.430  1.00  0.00     0.043 A 
HETATM    5  N   UNL     1      44.250 -21.705   5.798  1.00  0.00    -0.358 N 
HETATM    6  H   UNL     1      44.251 -22.576   6.310  1.00  0.00     0.166 HD
HETATM    7  C   UNL     1      44.125 -20.459   6.337  1.00  0.00     0.020 A 
HETATM    8  C   UNL     1      44.154 -19.524   5.324  1.00  0.00    -0.005 A 
HETATM    9  C   UNL     1      44.043 -18.054   5.553  1.00  0.00     0.167 C 
HETATM   10  N   UNL     1      43.816 -17.746   6.982  1.00  0.00    -0.346 N 
HETATM   11  C   UNL     1      43.464 -16.466   7.410  1.00  0.00     0.244 C 
HETATM   12  O   UNL     1      43.558 -16.123   8.593  1.00  0.00    -0.271 OA
HETATM   13  C   UNL     1      44.393 -18.665   7.986  1.00  0.00     0.132 C 
HETATM   14  C   UNL     1      43.971 -20.132   7.775  1.00  0.00     0.077 C 
HETATM   15  C   UNL     1      44.552 -22.601   3.464  1.00  0.00     0.030 A 
HETATM   16  C   UNL     1      44.665 -22.201   2.129  1.00  0.00     0.002 A 
ENDROOT
BRANCH  11  17
HETATM   17  C   UNL     1      42.967 -15.462   6.368  1.00  0.00     0.278 C 
BRANCH  17  18
HETATM   18  O   UNL     1      41.592 -15.703   6.095  1.00  0.00    -0.341 OA
BRANCH  18  19
HETATM   19  C   UNL     1      40.917 -14.725   5.412  1.00  0.00     0.077 A 
HETATM   20  C   UNL     1      40.784 -14.907   4.021  1.00  0.00    -0.001 A 
HETATM   21  C   UNL     1      40.091 -13.926   3.281  1.00  0.00     0.012 A 
HETATM   22  C   UNL     1      39.567 -12.791   3.899  1.00  0.00     0.001 A 
HETATM   23  C   UNL     1      39.727 -12.613   5.269  1.00  0.00     0.003 A 
HETATM   24  C   UNL     1      40.402 -13.575   6.023  1.00  0.00     0.037 A 
BRANCH  20  25
HETATM   25  C   UNL     1      41.343 -16.142   3.339  1.00  0.00     0.144 C 
HETATM   26  S   UNL     1      40.223 -16.782   2.047  1.00  0.00    -0.148 SA
HETATM   27  C   UNL     1      41.529 -17.449   0.993  1.00  0.00     0.085 C 
HETATM   28  C   UNL     1      42.620 -16.400   0.930  1.00  0.00     0.085 C 
HETATM   29  S   UNL     1      43.006 -15.859   2.617  1.00  0.00    -0.148 SA
ENDBRANCH  20  25
ENDBRANCH  18  19
ENDBRANCH  17  18
ENDBRANCH  11  17
TORSDOF 4
ENDMDL
MODEL 5
REMARK VINA RESULT:      -8.6      2.527      3.490
REMARK  4 active torsions:
REMARK  status: ('A' for Active; 'I' for Inactive)
REMARK       I    between atoms: N_10  and  C_11 
REMARK    1  A    between atoms: C_11  and  C_12 
REMARK    2  A    between atoms: C_12  and  O_13 
REMARK    3  A    between atoms: O_13  and  C_14 
REMARK    4  A    between atoms: C_15  and  C_16 
ROOT
HETATM    1  C   UNL     1      43.971 -21.296   1.744  1.00  0.00     0.001 A 
HETATM    2  C   UNL     1      43.712 -20.004   2.215  1.00  0.00     0.014 A 
HETATM    3  C   UNL     1      43.971 -19.694   3.565  1.00  0.00     0.000 A 
HETATM    4  C   UNL     1      44.479 -20.697   4.396  1.00  0.00     0.043 A 
HETATM    5  N   UNL     1      44.643 -20.151   5.652  1.00  0.00    -0.358 N 
HETATM    6  H   UNL     1      44.991 -20.655   6.455  1.00  0.00     0.166 HD
HETATM    7  C   UNL     1      44.270 -18.840   5.628  1.00  0.00     0.020 A 
HETATM    8  C   UNL     1      43.836 -18.518   4.359  1.00  0.00    -0.005 A 
HETATM    9  C   UNL     1      43.353 -17.161   3.971  1.00  0.00     0.167 C 
HETATM   10  N   UNL     1      43.324 -16.246   5.133  1.00  0.00    -0.346 N 
HETATM   11  C   UNL     1      42.707 -14.996   5.068  1.00  0.00     0.244 C 
HETATM   12  O   UNL     1      42.921 -14.116   5.908  1.00  0.00    -0.271 OA
HETATM   13  C   UNL     1      44.321 -16.458   6.204  1.00  0.00     0.132 C 
HETATM   14  C   UNL     1      44.306 -17.892   6.768  1.00  0.00     0.077 C 
HETATM   15  C   UNL     1      44.740 -21.995   3.940  1.00  0.00     0.030 A 
HETATM   16  C   UNL     1      44.477 -22.275   2.596  1.00  0.00     0.002 A 
ENDROOT
BRANCH  11  17
HETATM   17  C   UNL     1      41.754 -14.716   3.905  1.00  0.00     0.278 C 
BRANCH  17  18
HETATM   18  O   UNL     1      42.494 -14.234   2.790  1.00  0.00    -0.341 OA
BRANCH  18  19
HETATM   19  C   UNL     1      42.032 -14.576   1.546  1.00  0.00     0.077 A 
HETATM   20  C   UNL     1      41.696 -13.511   0.686  1.00  0.00    -0.001 A 
HETATM   21  C   UNL     1      41.220 -13.819  -0.606  1.00  0.00     0.012 A 
HETATM   22  C   UNL     1      41.063 -15.141  -1.022  1.00  0.00     0.001 A 
HETATM   23  C   UNL     1      41.376 -16.181  -0.153  1.00  0.00     0.003 A 
HETATM   24  C   UNL     1      41.855 -15.900   1.127  1.00  0.00     0.037 A 
BRANCH  20  25
HETATM   25  C   UNL     1      41.870 -12.069   1.125  1.00  0.00     0.144 C 
HETATM   26  S   UNL     1      42.375 -10.985  -0.255  1.00  0.00    -0.148 SA
HETATM   27  C   UNL     1      41.559  -9.502   0.375  1.00  0.00     0.085 C 
HETATM   28  C   UNL     1      40.185  -9.927   0.852  1.00  0.00     0.085 C 
HETATM   29  S   UNL     1      40.363 -11.383   1.916  1.00  0.00    -0.148 SA
ENDBRANCH  20  25
ENDBRANCH  18  19
ENDBRANCH  17  18
ENDBRANCH  11  17
TORSDOF 4
ENDMDL
MODEL 6
REMARK VINA RESULT:      -8.4      2.940      3.762
REMARK  4 active torsions:
REMARK  status: ('A' for Active; 'I' for Inactive)
REMARK       I    between atoms: N_10  and  C_11 
REMARK    1  A    between atoms: C_11  and  C_12 
REMARK    2  A    between atoms: C_12  and  O_13 
REMARK    3  A    between atoms: O_13  and  C_14 
REMARK    4  A    between atoms: C_15  and  C_16 
ROOT
HETATM    1  C   UNL     1      43.696 -21.066   1.902  1.00  0.00     0.001 A 
HETATM    2  C   UNL     1      43.215 -19.798   2.247  1.00  0.00     0.014 A 
HETATM    3  C   UNL     1      43.596 -19.223   3.476  1.00  0.00     0.000 A 
HETATM    4  C   UNL     1      44.447 -19.947   4.318  1.00  0.00     0.043 A 
HETATM    5  N   UNL     1      44.667 -19.179   5.443  1.00  0.00    -0.358 N 
HETATM    6  H   UNL     1      45.242 -19.459   6.224  1.00  0.00     0.166 HD
HETATM    7  C   UNL     1      43.997 -17.998   5.323  1.00  0.00     0.020 A 
HETATM    8  C   UNL     1      43.311 -17.988   4.127  1.00  0.00    -0.005 A 
HETATM    9  C   UNL     1      42.468 -16.845   3.668  1.00  0.00     0.167 C 
HETATM   10  N   UNL     1      42.401 -15.779   4.691  1.00  0.00    -0.346 N 
HETATM   11  C   UNL     1      41.506 -14.715   4.585  1.00  0.00     0.244 C 
HETATM   12  O   UNL     1      41.632 -13.684   5.253  1.00  0.00    -0.271 OA
HETATM   13  C   UNL     1      43.572 -15.598   5.576  1.00  0.00     0.132 C 
HETATM   14  C   UNL     1      43.981 -16.891   6.309  1.00  0.00     0.077 C 
HETATM   15  C   UNL     1      44.934 -21.218   3.987  1.00  0.00     0.030 A 
HETATM   16  C   UNL     1      44.542 -21.763   2.761  1.00  0.00     0.002 A 
ENDROOT
BRANCH  11  17
HETATM   17  C   UNL     1      40.347 -14.837   3.593  1.00  0.00     0.278 C 
BRANCH  17  18
HETATM   18  O   UNL     1      40.482 -13.845   2.582  1.00  0.00    -0.341 OA
BRANCH  18  19
HETATM   19  C   UNL     1      39.332 -13.437   1.959  1.00  0.00     0.077 A 
HETATM   20  C   UNL     1      38.927 -12.108   2.192  1.00  0.00    -0.001 A 
HETATM   21  C   UNL     1      37.751 -11.646   1.565  1.00  0.00     0.012 A 
HETATM   22  C   UNL     1      36.991 -12.484   0.750  1.00  0.00     0.001 A 
HETATM   23  C   UNL     1      37.389 -13.800   0.548  1.00  0.00     0.003 A 
HETATM   24  C   UNL     1      38.554 -14.277   1.152  1.00  0.00     0.037 A 
BRANCH  20  25
HETATM   25  C   UNL     1      39.752 -11.186   3.071  1.00  0.00     0.144 C 
HETATM   26  S   UNL     1      39.855  -9.495   2.388  1.00  0.00    -0.148 SA
HETATM   27  C   UNL     1      39.978  -8.664   3.987  1.00  0.00     0.085 C 
HETATM   28  C   UNL     1      38.949  -9.305   4.895  1.00  0.00     0.085 C 
HETATM   29  S   UNL     1      39.129 -11.107   4.795  1.00  0.00    -0.148 SA
ENDBRANCH  20  25
ENDBRANCH  18  19
ENDBRANCH  17  18
ENDBRANCH  11  17
TORSDOF 4
ENDMDL
MODEL 7
REMARK VINA RESULT:      -8.4      2.793      4.746
REMARK  4 active torsions:
REMARK  status: ('A' for Active; 'I' for Inactive)
REMARK       I    between atoms: N_10  and  C_11 
REMARK    1  A    between atoms: C_11  and  C_12 
REMARK    2  A    between atoms: C_12  and  O_13 
REMARK    3  A    between atoms: O_13  and  C_14 
REMARK    4  A    between atoms: C_15  and  C_16 
ROOT
HETATM    1  C   UNL     1      44.398 -21.604   2.204  1.00  0.00     0.001 A 
HETATM    2  C   UNL     1      44.156 -20.287   2.611  1.00  0.00     0.014 A 
HETATM    3  C   UNL     1      44.197 -19.968   3.983  1.00  0.00     0.000 A 
HETATM    4  C   UNL     1      44.478 -20.986   4.899  1.00  0.00     0.043 A 
HETATM    5  N   UNL     1      44.460 -20.426   6.159  1.00  0.00    -0.358 N 
HETATM    6  H   UNL     1      44.626 -20.936   7.015  1.00  0.00     0.166 HD
HETATM    7  C   UNL     1      44.194 -19.093   6.058  1.00  0.00     0.020 A 
HETATM    8  C   UNL     1      44.013 -18.769   4.730  1.00  0.00    -0.005 A 
HETATM    9  C   UNL     1      43.705 -17.389   4.252  1.00  0.00     0.167 C 
HETATM   10  N   UNL     1      43.540 -16.450   5.383  1.00  0.00    -0.346 N 
HETATM   11  C   UNL     1      43.038 -15.162   5.200  1.00  0.00     0.244 C 
HETATM   12  O   UNL     1      43.166 -14.281   6.057  1.00  0.00    -0.271 OA
HETATM   13  C   UNL     1      44.317 -16.709   6.614  1.00  0.00     0.132 C 
HETATM   14  C   UNL     1      44.100 -18.126   7.179  1.00  0.00     0.077 C 
HETATM   15  C   UNL     1      44.720 -22.309   4.506  1.00  0.00     0.030 A 
HETATM   16  C   UNL     1      44.675 -22.598   3.139  1.00  0.00     0.002 A 
ENDROOT
BRANCH  11  17
HETATM   17  C   UNL     1      42.325 -14.840   3.885  1.00  0.00     0.278 C 
BRANCH  17  18
HETATM   18  O   UNL     1      40.921 -14.989   4.057  1.00  0.00    -0.341 OA
BRANCH  18  19
HETATM   19  C   UNL     1      40.195 -13.841   4.239  1.00  0.00     0.077 A 
HETATM   20  C   UNL     1      39.627 -13.267   3.084  1.00  0.00    -0.001 A 
HETATM   21  C   UNL     1      38.867 -12.087   3.227  1.00  0.00     0.012 A 
HETATM   22  C   UNL     1      38.695 -11.486   4.473  1.00  0.00     0.001 A 
HETATM   23  C   UNL     1      39.281 -12.050   5.601  1.00  0.00     0.003 A 
HETATM   24  C   UNL     1      40.031 -13.222   5.485  1.00  0.00     0.037 A 
BRANCH  20  25
HETATM   25  C   UNL     1      39.802 -13.917   1.724  1.00  0.00     0.144 C 
HETATM   26  S   UNL     1      38.223 -14.048   0.815  1.00  0.00    -0.148 SA
HETATM   27  C   UNL     1      38.951 -13.905  -0.831  1.00  0.00     0.085 C 
HETATM   28  C   UNL     1      39.968 -12.784  -0.764  1.00  0.00     0.085 C 
HETATM   29  S   UNL     1      41.034 -13.050   0.678  1.00  0.00    -0.148 SA
ENDBRANCH  20  25
ENDBRANCH  18  19
ENDBRANCH  17  18
ENDBRANCH  11  17
TORSDOF 4
ENDMDL
MODEL 8
REMARK VINA RESULT:      -8.4      1.378      1.624
REMARK  4 active torsions:
REMARK  status: ('A' for Active; 'I' for Inactive)
REMARK       I    between atoms: N_10  and  C_11 
REMARK    1  A    between atoms: C_11  and  C_12 
REMARK    2  A    between atoms: C_12  and  O_13 
REMARK    3  A    between atoms: O_13  and  C_14 
REMARK    4  A    between atoms: C_15  and  C_16 
ROOT
HETATM    1  C   UNL     1      44.086 -21.745   1.768  1.00  0.00     0.001 A 
HETATM    2  C   UNL     1      43.581 -20.440   1.726  1.00  0.00     0.014 A 
HETATM    3  C   UNL     1      43.683 -19.621   2.868  1.00  0.00     0.000 A 
HETATM    4  C   UNL     1      44.289 -20.145   4.015  1.00  0.00     0.043 A 
HETATM    5  N   UNL     1      44.265 -19.161   4.981  1.00  0.00    -0.358 N 
HETATM    6  H   UNL     1      44.632 -19.267   5.916  1.00  0.00     0.166 HD
HETATM    7  C   UNL     1      43.682 -18.039   4.472  1.00  0.00     0.020 A 
HETATM    8  C   UNL     1      43.296 -18.284   3.170  1.00  0.00    -0.005 A 
HETATM    9  C   UNL     1      42.624 -17.271   2.305  1.00  0.00     0.167 C 
HETATM   10  N   UNL     1      42.356 -16.019   3.047  1.00  0.00    -0.346 N 
HETATM   11  C   UNL     1      41.546 -15.013   2.520  1.00  0.00     0.244 C 
HETATM   12  O   UNL     1      41.548 -13.866   2.977  1.00  0.00    -0.271 OA
HETATM   13  C   UNL     1      43.292 -15.644   4.127  1.00  0.00     0.132 C 
HETATM   14  C   UNL     1      43.475 -16.754   5.181  1.00  0.00     0.077 C 
HETATM   15  C   UNL     1      44.796 -21.449   4.072  1.00  0.00     0.030 A 
HETATM   16  C   UNL     1      44.684 -22.239   2.924  1.00  0.00     0.002 A 
ENDROOT
BRANCH  11  17
HETATM   17  C   UNL     1      40.648 -15.352   1.328  1.00  0.00     0.278 C 
BRANCH  17  18
HETATM   18  O   UNL     1      40.544 -14.217   0.476  1.00  0.00    -0.341 OA
BRANCH  18  19
HETATM   19  C   UNL     1      40.410 -14.462  -0.866  1.00  0.00     0.077 A 
HETATM   20  C   UNL     1      39.595 -13.570  -1.590  1.00  0.00    -0.001 A 
HETATM   21  C   UNL     1      39.436 -13.783  -2.976  1.00  0.00     0.012 A 
HETATM   22  C   UNL     1      40.048 -14.859  -3.616  1.00  0.00     0.001 A 
HETATM   23  C   UNL     1      40.831 -15.746  -2.883  1.00  0.00     0.003 A 
HETATM   24  C   UNL     1      41.009 -15.551  -1.513  1.00  0.00     0.037 A 
BRANCH  20  25
HETATM   25  C   UNL     1      38.929 -12.391  -0.905  1.00  0.00     0.144 C 
HETATM   26  S   UNL     1      40.003 -10.913  -0.880  1.00  0.00    -0.148 SA
HETATM   27  C   UNL     1      38.655  -9.713  -0.938  1.00  0.00     0.085 C 
HETATM   28  C   UNL     1      37.671 -10.208  -1.978  1.00  0.00     0.085 C 
HETATM   29  S   UNL     1      37.313 -11.955  -1.656  1.00  0.00    -0.148 SA
ENDBRANCH  20  25
ENDBRANCH  18  19
ENDBRANCH  17  18
ENDBRANCH  11  17
TORSDOF 4
ENDMDL
MODEL 9
REMARK VINA RESULT:      -8.3      1.613      2.210
REMARK  4 active torsions:
REMARK  status: ('A' for Active; 'I' for Inactive)
REMARK       I    between atoms: N_10  and  C_11 
REMARK    1  A    between atoms: C_11  and  C_12 
REMARK    2  A    between atoms: C_12  and  O_13 
REMARK    3  A    between atoms: O_13  and  C_14 
REMARK    4  A    between atoms: C_15  and  C_16 
ROOT
HETATM    1  C   UNL     1      43.894 -21.472   1.822  1.00  0.00     0.001 A 
HETATM    2  C   UNL     1      43.385 -20.187   2.039  1.00  0.00     0.014 A 
HETATM    3  C   UNL     1      43.658 -19.530   3.255  1.00  0.00     0.000 A 
HETATM    4  C   UNL     1      44.433 -20.191   4.213  1.00  0.00     0.043 A 
HETATM    5  N   UNL     1      44.555 -19.350   5.299  1.00  0.00    -0.358 N 
HETATM    6  H   UNL     1      45.061 -19.574   6.144  1.00  0.00     0.166 HD
HETATM    7  C   UNL     1      43.898 -18.183   5.045  1.00  0.00     0.020 A 
HETATM    8  C   UNL     1      43.318 -18.256   3.795  1.00  0.00    -0.005 A 
HETATM    9  C   UNL     1      42.519 -17.150   3.191  1.00  0.00     0.167 C 
HETATM   10  N   UNL     1      42.364 -16.019   4.131  1.00  0.00    -0.346 N 
HETATM   11  C   UNL     1      41.481 -14.969   3.878  1.00  0.00     0.244 C 
HETATM   12  O   UNL     1      41.550 -13.896   4.484  1.00  0.00    -0.271 OA
HETATM   13  C   UNL     1      43.454 -15.773   5.099  1.00  0.00     0.132 C 
HETATM   14  C   UNL     1      43.798 -17.012   5.949  1.00  0.00     0.077 C 
HETATM   15  C   UNL     1      44.947 -21.478   4.011  1.00  0.00     0.030 A 
HETATM   16  C   UNL     1      44.662 -22.106   2.795  1.00  0.00     0.002 A 
ENDROOT
BRANCH  11  17
HETATM   17  C   UNL     1      40.413 -15.163   2.799  1.00  0.00     0.278 C 
BRANCH  17  18
HETATM   18  O   UNL     1      40.459 -14.074   1.885  1.00  0.00    -0.341 OA
BRANCH  18  19
HETATM   19  C   UNL     1      40.510 -14.389   0.552  1.00  0.00     0.077 A 
HETATM   20  C   UNL     1      39.815 -13.532  -0.324  1.00  0.00    -0.001 A 
HETATM   21  C   UNL     1      39.847 -13.816  -1.705  1.00  0.00     0.012 A 
HETATM   22  C   UNL     1      40.528 -14.928  -2.198  1.00  0.00     0.001 A 
HETATM   23  C   UNL     1      41.190 -15.779  -1.319  1.00  0.00     0.003 A 
HETATM   24  C   UNL     1      41.179 -15.513   0.051  1.00  0.00     0.037 A 
BRANCH  20  25
HETATM   25  C   UNL     1      39.076 -12.314   0.201  1.00  0.00     0.144 C 
HETATM   26  S   UNL     1      39.167 -10.902  -0.954  1.00  0.00    -0.148 SA
HETATM   27  C   UNL     1      37.564 -10.201  -0.506  1.00  0.00     0.085 C 
HETATM   28  C   UNL     1      36.587 -11.356  -0.426  1.00  0.00     0.085 C 
HETATM   29  S   UNL     1      37.319 -12.667   0.592  1.00  0.00    -0.148 SA
ENDBRANCH  20  25
ENDBRANCH  18  19
ENDBRANCH  17  18
ENDBRANCH  11  17
TORSDOF 4
ENDMDL
MODEL 10
REMARK VINA RESULT:      -8.3      3.631      8.739
REMARK  4 active torsions:
REMARK  status: ('A' for Active; 'I' for Inactive)
REMARK       I    between atoms: N_10  and  C_11 
REMARK    1  A    between atoms: C_11  and  C_12 
REMARK    2  A    between atoms: C_12  and  O_13 
REMARK    3  A    between atoms: O_13  and  C_14 
REMARK    4  A    between atoms: C_15  and  C_16 
ROOT
HETATM    1  C   UNL     1      42.603 -11.916  -3.546  1.00  0.00     0.001 A 
HETATM    2  C   UNL     1      42.363 -12.957  -2.641  1.00  0.00     0.014 A 
HETATM    3  C   UNL     1      41.471 -12.751  -1.570  1.00  0.00     0.000 A 
HETATM    4  C   UNL     1      40.853 -11.503  -1.444  1.00  0.00     0.043 A 
HETATM    5  N   UNL     1      40.039 -11.554  -0.332  1.00  0.00    -0.358 N 
HETATM    6  H   UNL     1      39.474 -10.785   0.001  1.00  0.00     0.166 HD
HETATM    7  C   UNL     1      40.116 -12.794   0.229  1.00  0.00     0.020 A 
HETATM    8  C   UNL     1      41.000 -13.563  -0.498  1.00  0.00    -0.005 A 
HETATM    9  C   UNL     1      41.328 -14.981  -0.165  1.00  0.00     0.167 C 
HETATM   10  N   UNL     1      40.652 -15.414   1.077  1.00  0.00    -0.346 N 
HETATM   11  C   UNL     1      40.972 -16.617   1.705  1.00  0.00     0.244 C 
HETATM   12  O   UNL     1      40.235 -17.128   2.555  1.00  0.00    -0.271 OA
HETATM   13  C   UNL     1      39.344 -14.804   1.399  1.00  0.00     0.132 C 
HETATM   14  C   UNL     1      39.387 -13.264   1.431  1.00  0.00     0.077 C 
HETATM   15  C   UNL     1      41.086 -10.452  -2.340  1.00  0.00     0.030 A 
HETATM   16  C   UNL     1      41.973 -10.684  -3.395  1.00  0.00     0.002 A 
ENDROOT
BRANCH  11  17
HETATM   17  C   UNL     1      42.270 -17.323   1.306  1.00  0.00     0.278 C 
BRANCH  17  18
HETATM   18  O   UNL     1      43.112 -17.447   2.445  1.00  0.00    -0.341 OA
BRANCH  18  19
HETATM   19  C   UNL     1      43.584 -18.701   2.732  1.00  0.00     0.077 A 
HETATM   20  C   UNL     1      44.020 -18.923   4.053  1.00  0.00    -0.001 A 
HETATM   21  C   UNL     1      44.508 -20.202   4.392  1.00  0.00     0.012 A 
HETATM   22  C   UNL     1      44.582 -21.221   3.443  1.00  0.00     0.001 A 
HETATM   23  C   UNL     1      44.171 -20.981   2.136  1.00  0.00     0.003 A 
HETATM   24  C   UNL     1      43.677 -19.725   1.780  1.00  0.00     0.037 A 
BRANCH  20  25
HETATM   25  C   UNL     1      43.937 -17.823   5.096  1.00  0.00     0.144 C 
HETATM   26  S   UNL     1      42.233 -17.581   5.708  1.00  0.00    -0.148 SA
HETATM   27  C   UNL     1      42.713 -17.050   7.366  1.00  0.00     0.085 C 
HETATM   28  C   UNL     1      43.810 -17.989   7.827  1.00  0.00     0.085 C 
HETATM   29  S   UNL     1      45.058 -18.111   6.519  1.00  0.00    -0.148 SA
ENDBRANCH  20  25
ENDBRANCH  18  19
ENDBRANCH  17  18
ENDBRANCH  11  17
TORSDOF 4
ENDMDL
