MODEL 1
REMARK VINA RESULT:      -9.8      0.000      0.000
REMARK  6 active torsions:
REMARK  status: ('A' for Active; 'I' for Inactive)
REMARK    1  A    between atoms: N_9  and  C_10 
REMARK    2  A    between atoms: C_10  and  C_11 
REMARK       I    between atoms: C_11  and  N_12 
REMARK    3  A    between atoms: N_12  and  C_13 
REMARK    4  A    between atoms: C_16  and  C_17 
REMARK       I    between atoms: C_17  and  N_18 
REMARK    5  A    between atoms: N_18  and  C_19 
REMARK    6  A    between atoms: C_20  and  O_21 
ROOT
HETATM    1  C   UNL     1      40.624 -11.174   6.246  1.00  0.00     0.240 C 
HETATM    2  N   UNL     1      41.704 -12.028   6.405  1.00  0.00    -0.326 N 
HETATM    3  O   UNL     1      39.527 -11.493   5.790  1.00  0.00    -0.271 OA
HETATM    4  H   UNL     1      42.453 -11.708   7.015  1.00  0.00     0.169 HD
ENDROOT
BRANCH   2   5
HETATM    5  C   UNL     1      41.851 -13.327   5.878  1.00  0.00     0.034 A 
HETATM    6  C   UNL     1      43.004 -13.781   5.232  1.00  0.00     0.030 A 
HETATM    7  C   UNL     1      43.094 -15.100   4.772  1.00  0.00     0.019 A 
HETATM    8  C   UNL     1      42.027 -15.985   4.956  1.00  0.00     0.032 A 
HETATM    9  C   UNL     1      40.873 -15.539   5.607  1.00  0.00     0.019 A 
HETATM   10  C   UNL     1      40.784 -14.216   6.059  1.00  0.00     0.030 A 
BRANCH   8  11
HETATM   11  C   UNL     1      42.115 -17.411   4.530  1.00  0.00     0.256 C 
HETATM   12  N   UNL     1      43.253 -17.732   3.809  1.00  0.00    -0.321 N 
HETATM   13  H   UNL     1      43.686 -16.975   3.297  1.00  0.00     0.169 HD
HETATM   14  O   UNL     1      41.166 -18.153   4.760  1.00  0.00    -0.267 OA
BRANCH  12  15
HETATM   15  C   UNL     1      43.663 -19.042   3.471  1.00  0.00     0.068 A 
HETATM   16  C   UNL     1      44.385 -19.886   4.334  1.00  0.00     0.095 A 
HETATM   17  C   UNL     1      44.743 -21.174   3.909  1.00  0.00     0.039 A 
HETATM   18  C   UNL     1      44.393 -21.620   2.634  1.00  0.00     0.003 A 
HETATM   19  C   UNL     1      43.713 -20.773   1.764  1.00  0.00     0.002 A 
HETATM   20  C   UNL     1      43.363 -19.484   2.175  1.00  0.00     0.032 A 
BRANCH  16  21
HETATM   21  O   UNL     1      44.886 -19.365   5.501  1.00  0.00    -0.354 OA
HETATM   22  C   UNL     1      44.113 -19.671   6.657  1.00  0.00     0.210 C 
ENDBRANCH  16  21
ENDBRANCH  12  15
ENDBRANCH   8  11
ENDBRANCH   2   5
BRANCH   1  23
HETATM   23  C   UNL     1      40.819  -9.788   6.863  1.00  0.00     0.240 C 
BRANCH  23  24
HETATM   24  N   UNL     1      40.689  -9.776   8.306  1.00  0.00    -0.259 N 
HETATM   25  C   UNL     1      39.524  -9.611   8.976  1.00  0.00     0.326 A 
HETATM   26  N   UNL     1      39.787  -9.555  10.319  1.00  0.00    -0.324 N 
HETATM   27  O   UNL     1      38.408  -9.593   8.483  1.00  0.00    -0.247 OA
HETATM   28  C   UNL     1      41.177  -9.843  10.629  1.00  0.00     0.116 A 
HETATM   29  H   UNL     1      39.034  -9.505  10.995  1.00  0.00     0.165 HD
HETATM   30  C   UNL     1      41.273 -11.183  11.366  1.00  0.00     0.041 C 
HETATM   31  C   UNL     1      41.722  -9.951   9.184  1.00  0.00     0.256 A 
HETATM   32  C   UNL     1      41.820  -8.676  11.381  1.00  0.00     0.041 C 
HETATM   33  C   UNL     1      42.671 -11.471  11.915  1.00  0.00     0.007 C 
HETATM   34  C   UNL     1      43.254 -10.310  12.730  1.00  0.00    -0.019 C 
HETATM   35  C   UNL     1      42.560 -10.157  14.085  1.00  0.00     0.010 C 
HETATM   36  C   UNL     1      43.213  -9.008  11.921  1.00  0.00     0.007 C 
HETATM   37  O   UNL     1      42.886 -10.168   8.878  1.00  0.00    -0.270 OA
ENDBRANCH  23  24
ENDBRANCH   1  23
TORSDOF 6
ENDMDL
MODEL 2
REMARK VINA RESULT:      -9.3      2.644     10.384
REMARK  6 active torsions:
REMARK  status: ('A' for Active; 'I' for Inactive)
REMARK    1  A    between atoms: N_9  and  C_10 
REMARK    2  A    between atoms: C_10  and  C_11 
REMARK       I    between atoms: C_11  and  N_12 
REMARK    3  A    between atoms: N_12  and  C_13 
REMARK    4  A    between atoms: C_16  and  C_17 
REMARK       I    between atoms: C_17  and  N_18 
REMARK    5  A    between atoms: N_18  and  C_19 
REMARK    6  A    between atoms: C_20  and  O_21 
ROOT
HETATM    1  C   UNL     1      40.218 -12.215   3.407  1.00  0.00     0.240 C 
HETATM    2  N   UNL     1      41.285 -11.503   3.932  1.00  0.00    -0.326 N 
HETATM    3  O   UNL     1      39.098 -12.291   3.911  1.00  0.00    -0.271 OA
HETATM    4  H   UNL     1      42.063 -11.317   3.303  1.00  0.00     0.169 HD
ENDROOT
BRANCH   2   5
HETATM    5  C   UNL     1      41.385 -10.939   5.220  1.00  0.00     0.034 A 
HETATM    6  C   UNL     1      41.346  -9.566   5.475  1.00  0.00     0.030 A 
HETATM    7  C   UNL     1      41.408  -9.079   6.786  1.00  0.00     0.019 A 
HETATM    8  C   UNL     1      41.507  -9.966   7.862  1.00  0.00     0.032 A 
HETATM    9  C   UNL     1      41.539 -11.342   7.615  1.00  0.00     0.019 A 
HETATM   10  C   UNL     1      41.485 -11.824   6.301  1.00  0.00     0.030 A 
BRANCH   8  11
HETATM   11  C   UNL     1      41.514  -9.482   9.273  1.00  0.00     0.256 C 
HETATM   12  N   UNL     1      41.752 -10.463  10.222  1.00  0.00    -0.321 N 
HETATM   13  H   UNL     1      41.496 -11.406   9.963  1.00  0.00     0.169 HD
HETATM   14  O   UNL     1      41.228  -8.310   9.493  1.00  0.00    -0.267 OA
BRANCH  12  15
HETATM   15  C   UNL     1      42.006 -10.228  11.592  1.00  0.00     0.068 A 
HETATM   16  C   UNL     1      41.055 -10.415  12.611  1.00  0.00     0.095 A 
HETATM   17  C   UNL     1      41.404 -10.158  13.945  1.00  0.00     0.039 A 
HETATM   18  C   UNL     1      42.687  -9.713  14.266  1.00  0.00     0.003 A 
HETATM   19  C   UNL     1      43.618  -9.489  13.257  1.00  0.00     0.002 A 
HETATM   20  C   UNL     1      43.274  -9.731  11.924  1.00  0.00     0.032 A 
BRANCH  16  21
HETATM   21  O   UNL     1      39.751 -10.663  12.260  1.00  0.00    -0.354 OA
HETATM   22  C   UNL     1      38.923  -9.505  12.230  1.00  0.00     0.210 C 
ENDBRANCH  16  21
ENDBRANCH  12  15
ENDBRANCH   8  11
ENDBRANCH   2   5
BRANCH   1  23
HETATM   23  C   UNL     1      40.464 -12.783   2.008  1.00  0.00     0.240 C 
BRANCH  23  24
HETATM   24  N   UNL     1      40.524 -14.231   1.977  1.00  0.00    -0.259 N 
HETATM   25  C   UNL     1      39.460 -15.044   1.779  1.00  0.00     0.326 A 
HETATM   26  N   UNL     1      39.863 -16.346   1.910  1.00  0.00    -0.324 N 
HETATM   27  O   UNL     1      38.336 -14.692   1.459  1.00  0.00    -0.247 OA
HETATM   28  C   UNL     1      41.303 -16.472   2.057  1.00  0.00     0.116 A 
HETATM   29  H   UNL     1      39.224 -17.110   1.728  1.00  0.00     0.165 HD
HETATM   30  C   UNL     1      41.892 -17.137   0.809  1.00  0.00     0.041 C 
HETATM   31  C   UNL     1      41.665 -14.969   2.123  1.00  0.00     0.256 A 
HETATM   32  C   UNL     1      41.656 -17.187   3.363  1.00  0.00     0.041 C 
HETATM   33  C   UNL     1      43.370 -17.500   0.957  1.00  0.00     0.007 C 
HETATM   34  C   UNL     1      43.677 -18.284   2.239  1.00  0.00    -0.019 C 
HETATM   35  C   UNL     1      43.149 -19.719   2.171  1.00  0.00     0.010 C 
HETATM   36  C   UNL     1      43.142 -17.540   3.469  1.00  0.00     0.007 C 
HETATM   37  O   UNL     1      42.791 -14.514   2.270  1.00  0.00    -0.270 OA
ENDBRANCH  23  24
ENDBRANCH   1  23
TORSDOF 6
ENDMDL
MODEL 3
REMARK VINA RESULT:      -9.3      2.782      9.988
REMARK  6 active torsions:
REMARK  status: ('A' for Active; 'I' for Inactive)
REMARK    1  A    between atoms: N_9  and  C_10 
REMARK    2  A    between atoms: C_10  and  C_11 
REMARK       I    between atoms: C_11  and  N_12 
REMARK    3  A    between atoms: N_12  and  C_13 
REMARK    4  A    between atoms: C_16  and  C_17 
REMARK       I    between atoms: C_17  and  N_18 
REMARK    5  A    between atoms: N_18  and  C_19 
REMARK    6  A    between atoms: C_20  and  O_21 
ROOT
HETATM    1  C   UNL     1      39.674 -11.956   2.741  1.00  0.00     0.240 C 
HETATM    2  N   UNL     1      40.506 -12.326   3.787  1.00  0.00    -0.326 N 
HETATM    3  O   UNL     1      38.897 -11.002   2.755  1.00  0.00    -0.271 OA
HETATM    4  H   UNL     1      41.266 -12.963   3.561  1.00  0.00     0.169 HD
ENDROOT
BRANCH   2   5
HETATM    5  C   UNL     1      40.465 -11.860   5.116  1.00  0.00     0.034 A 
HETATM    6  C   UNL     1      39.659 -12.415   6.113  1.00  0.00     0.030 A 
HETATM    7  C   UNL     1      39.703 -11.927   7.425  1.00  0.00     0.019 A 
HETATM    8  C   UNL     1      40.562 -10.874   7.755  1.00  0.00     0.032 A 
HETATM    9  C   UNL     1      41.377 -10.319   6.764  1.00  0.00     0.019 A 
HETATM   10  C   UNL     1      41.323 -10.805   5.452  1.00  0.00     0.030 A 
BRANCH   8  11
HETATM   11  C   UNL     1      40.676 -10.372   9.154  1.00  0.00     0.256 C 
HETATM   12  N   UNL     1      41.442 -11.163   9.994  1.00  0.00    -0.321 N 
HETATM   13  H   UNL     1      41.503 -12.143   9.752  1.00  0.00     0.169 HD
HETATM   14  O   UNL     1      40.032  -9.379   9.477  1.00  0.00    -0.267 OA
BRANCH  12  15
HETATM   15  C   UNL     1      41.864 -10.803  11.295  1.00  0.00     0.068 A 
HETATM   16  C   UNL     1      43.111 -10.222  11.583  1.00  0.00     0.095 A 
HETATM   17  C   UNL     1      43.437  -9.895  12.907  1.00  0.00     0.039 A 
HETATM   18  C   UNL     1      42.534 -10.149  13.940  1.00  0.00     0.003 A 
HETATM   19  C   UNL     1      41.316 -10.761  13.663  1.00  0.00     0.002 A 
HETATM   20  C   UNL     1      40.988 -11.101  12.348  1.00  0.00     0.032 A 
BRANCH  16  21
HETATM   21  O   UNL     1      44.056 -10.159  10.590  1.00  0.00    -0.354 OA
HETATM   22  C   UNL     1      45.053 -11.173  10.667  1.00  0.00     0.210 C 
ENDBRANCH  16  21
ENDBRANCH  12  15
ENDBRANCH   8  11
ENDBRANCH   2   5
BRANCH   1  23
HETATM   23  C   UNL     1      39.915 -12.724   1.440  1.00  0.00     0.240 C 
BRANCH  23  24
HETATM   24  N   UNL     1      40.087 -14.150   1.637  1.00  0.00    -0.259 N 
HETATM   25  C   UNL     1      39.078 -15.051   1.678  1.00  0.00     0.326 A 
HETATM   26  N   UNL     1      39.595 -16.284   1.977  1.00  0.00    -0.324 N 
HETATM   27  O   UNL     1      37.907 -14.831   1.418  1.00  0.00    -0.247 OA
HETATM   28  C   UNL     1      41.048 -16.290   1.999  1.00  0.00     0.116 A 
HETATM   29  H   UNL     1      39.005 -17.108   1.984  1.00  0.00     0.165 HD
HETATM   30  C   UNL     1      41.578 -17.116   0.822  1.00  0.00     0.041 C 
HETATM   31  C   UNL     1      41.292 -14.777   1.786  1.00  0.00     0.256 A 
HETATM   32  C   UNL     1      41.569 -16.752   3.362  1.00  0.00     0.041 C 
HETATM   33  C   UNL     1      43.087 -17.352   0.881  1.00  0.00     0.007 C 
HETATM   34  C   UNL     1      43.566 -17.888   2.235  1.00  0.00    -0.019 C 
HETATM   35  C   UNL     1      43.150 -19.345   2.452  1.00  0.00     0.010 C 
HETATM   36  C   UNL     1      43.081 -16.985   3.376  1.00  0.00     0.007 C 
HETATM   37  O   UNL     1      42.386 -14.232   1.746  1.00  0.00    -0.270 OA
ENDBRANCH  23  24
ENDBRANCH   1  23
TORSDOF 6
ENDMDL
MODEL 4
REMARK VINA RESULT:      -9.0      2.160     10.647
REMARK  6 active torsions:
REMARK  status: ('A' for Active; 'I' for Inactive)
REMARK    1  A    between atoms: N_9  and  C_10 
REMARK    2  A    between atoms: C_10  and  C_11 
REMARK       I    between atoms: C_11  and  N_12 
REMARK    3  A    between atoms: N_12  and  C_13 
REMARK    4  A    between atoms: C_16  and  C_17 
REMARK       I    between atoms: C_17  and  N_18 
REMARK    5  A    between atoms: N_18  and  C_19 
REMARK    6  A    between atoms: C_20  and  O_21 
ROOT
HETATM    1  C   UNL     1      40.244 -13.619   4.444  1.00  0.00     0.240 C 
HETATM    2  N   UNL     1      40.739 -12.337   4.627  1.00  0.00    -0.326 N 
HETATM    3  O   UNL     1      39.558 -14.237   5.257  1.00  0.00    -0.271 OA
HETATM    4  H   UNL     1      41.069 -11.853   3.795  1.00  0.00     0.169 HD
ENDROOT
BRANCH   2   5
HETATM    5  C   UNL     1      40.767 -11.594   5.824  1.00  0.00     0.034 A 
HETATM    6  C   UNL     1      39.686 -10.854   6.307  1.00  0.00     0.030 A 
HETATM    7  C   UNL     1      39.771 -10.174   7.529  1.00  0.00     0.019 A 
HETATM    8  C   UNL     1      40.946 -10.232   8.285  1.00  0.00     0.032 A 
HETATM    9  C   UNL     1      42.030 -10.977   7.810  1.00  0.00     0.019 A 
HETATM   10  C   UNL     1      41.942 -11.648   6.585  1.00  0.00     0.030 A 
BRANCH   8  11
HETATM   11  C   UNL     1      41.049  -9.569   9.617  1.00  0.00     0.256 C 
HETATM   12  N   UNL     1      41.355 -10.420  10.666  1.00  0.00    -0.321 N 
HETATM   13  H   UNL     1      41.086 -11.387  10.550  1.00  0.00     0.169 HD
HETATM   14  O   UNL     1      40.774  -8.377   9.703  1.00  0.00    -0.267 OA
BRANCH  12  15
HETATM   15  C   UNL     1      41.702 -10.010  11.974  1.00  0.00     0.068 A 
HETATM   16  C   UNL     1      40.764  -9.711  12.979  1.00  0.00     0.095 A 
HETATM   17  C   UNL     1      41.207  -9.317  14.249  1.00  0.00     0.039 A 
HETATM   18  C   UNL     1      42.572  -9.214  14.521  1.00  0.00     0.003 A 
HETATM   19  C   UNL     1      43.502  -9.470  13.518  1.00  0.00     0.002 A 
HETATM   20  C   UNL     1      43.069  -9.852  12.246  1.00  0.00     0.032 A 
BRANCH  16  21
HETATM   21  O   UNL     1      39.437  -9.630  12.639  1.00  0.00    -0.354 OA
HETATM   22  C   UNL     1      38.844  -8.362  12.899  1.00  0.00     0.210 C 
ENDBRANCH  16  21
ENDBRANCH  12  15
ENDBRANCH   8  11
ENDBRANCH   2   5
BRANCH   1  23
HETATM   23  C   UNL     1      40.455 -14.184   3.039  1.00  0.00     0.240 C 
BRANCH  23  24
HETATM   24  N   UNL     1      41.656 -14.987   2.915  1.00  0.00    -0.259 N 
HETATM   25  C   UNL     1      42.897 -14.493   2.698  1.00  0.00     0.326 A 
HETATM   26  N   UNL     1      43.770 -15.536   2.538  1.00  0.00    -0.324 N 
HETATM   27  O   UNL     1      43.215 -13.315   2.716  1.00  0.00    -0.247 OA
HETATM   28  C   UNL     1      43.155 -16.825   2.804  1.00  0.00     0.116 A 
HETATM   29  H   UNL     1      44.764 -15.372   2.435  1.00  0.00     0.165 HD
HETATM   30  C   UNL     1      43.747 -17.426   4.082  1.00  0.00     0.041 C 
HETATM   31  C   UNL     1      41.698 -16.349   3.023  1.00  0.00     0.256 A 
HETATM   32  C   UNL     1      43.263 -17.741   1.582  1.00  0.00     0.041 C 
HETATM   33  C   UNL     1      43.313 -18.871   4.329  1.00  0.00     0.007 C 
HETATM   34  C   UNL     1      43.507 -19.780   3.110  1.00  0.00    -0.019 C 
HETATM   35  C   UNL     1      44.985 -20.082   2.852  1.00  0.00     0.010 C 
HETATM   36  C   UNL     1      42.827 -19.179   1.873  1.00  0.00     0.007 C 
HETATM   37  O   UNL     1      40.743 -17.073   3.265  1.00  0.00    -0.270 OA
ENDBRANCH  23  24
ENDBRANCH   1  23
TORSDOF 6
ENDMDL
MODEL 5
REMARK VINA RESULT:      -9.0      1.353      2.035
REMARK  6 active torsions:
REMARK  status: ('A' for Active; 'I' for Inactive)
REMARK    1  A    between atoms: N_9  and  C_10 
REMARK    2  A    between atoms: C_10  and  C_11 
REMARK       I    between atoms: C_11  and  N_12 
REMARK    3  A    between atoms: N_12  and  C_13 
REMARK    4  A    between atoms: C_16  and  C_17 
REMARK       I    between atoms: C_17  and  N_18 
REMARK    5  A    between atoms: N_18  and  C_19 
REMARK    6  A    between atoms: C_20  and  O_21 
ROOT
HETATM    1  C   UNL     1      41.602 -11.659   6.287  1.00  0.00     0.240 C 
HETATM    2  N   UNL     1      42.473 -12.410   7.062  1.00  0.00    -0.326 N 
HETATM    3  O   UNL     1      41.028 -12.058   5.275  1.00  0.00    -0.271 OA
HETATM    4  H   UNL     1      42.677 -12.054   7.993  1.00  0.00     0.169 HD
ENDROOT
BRANCH   2   5
HETATM    5  C   UNL     1      43.049 -13.654   6.736  1.00  0.00     0.034 A 
HETATM    6  C   UNL     1      44.340 -14.036   7.109  1.00  0.00     0.030 A 
HETATM    7  C   UNL     1      44.832 -15.307   6.788  1.00  0.00     0.019 A 
HETATM    8  C   UNL     1      44.031 -16.215   6.088  1.00  0.00     0.032 A 
HETATM    9  C   UNL     1      42.736 -15.842   5.718  1.00  0.00     0.019 A 
HETATM   10  C   UNL     1      42.251 -14.567   6.035  1.00  0.00     0.030 A 
BRANCH   8  11
HETATM   11  C   UNL     1      44.504 -17.597   5.783  1.00  0.00     0.256 C 
HETATM   12  N   UNL     1      43.680 -18.317   4.934  1.00  0.00    -0.321 N 
HETATM   13  H   UNL     1      42.704 -18.053   4.927  1.00  0.00     0.169 HD
HETATM   14  O   UNL     1      45.503 -18.016   6.357  1.00  0.00    -0.267 OA
BRANCH  12  15
HETATM   15  C   UNL     1      44.006 -19.558   4.340  1.00  0.00     0.068 A 
HETATM   16  C   UNL     1      43.844 -19.841   2.972  1.00  0.00     0.095 A 
HETATM   17  C   UNL     1      44.200 -21.103   2.475  1.00  0.00     0.039 A 
HETATM   18  C   UNL     1      44.709 -22.081   3.331  1.00  0.00     0.003 A 
HETATM   19  C   UNL     1      44.834 -21.817   4.691  1.00  0.00     0.002 A 
HETATM   20  C   UNL     1      44.469 -20.567   5.196  1.00  0.00     0.032 A 
BRANCH  16  21
HETATM   21  O   UNL     1      43.165 -18.941   2.188  1.00  0.00    -0.354 OA
HETATM   22  C   UNL     1      44.003 -18.014   1.504  1.00  0.00     0.210 C 
ENDBRANCH  16  21
ENDBRANCH  12  15
ENDBRANCH   8  11
ENDBRANCH   2   5
BRANCH   1  23
HETATM   23  C   UNL     1      41.236 -10.300   6.885  1.00  0.00     0.240 C 
BRANCH  23  24
HETATM   24  N   UNL     1      41.040 -10.336   8.320  1.00  0.00    -0.259 N 
HETATM   25  C   UNL     1      39.860 -10.589   8.933  1.00  0.00     0.326 A 
HETATM   26  N   UNL     1      40.020 -10.446  10.285  1.00  0.00    -0.324 N 
HETATM   27  O   UNL     1      38.833 -10.960   8.389  1.00  0.00    -0.247 OA
HETATM   28  C   UNL     1      41.406 -10.232  10.664  1.00  0.00     0.116 A 
HETATM   29  H   UNL     1      39.265 -10.663  10.925  1.00  0.00     0.165 HD
HETATM   30  C   UNL     1      41.928 -11.454  11.426  1.00  0.00     0.041 C 
HETATM   31  C   UNL     1      42.025 -10.141   9.248  1.00  0.00     0.256 A 
HETATM   32  C   UNL     1      41.565  -8.914  11.426  1.00  0.00     0.041 C 
HETATM   33  C   UNL     1      43.309 -11.238  12.044  1.00  0.00     0.007 C 
HETATM   34  C   UNL     1      43.411  -9.948  12.866  1.00  0.00    -0.019 C 
HETATM   35  C   UNL     1      42.642 -10.048  14.185  1.00  0.00     0.010 C 
HETATM   36  C   UNL     1      42.958  -8.740  12.036  1.00  0.00     0.007 C 
HETATM   37  O   UNL     1      43.205  -9.938   8.999  1.00  0.00    -0.270 OA
ENDBRANCH  23  24
ENDBRANCH   1  23
TORSDOF 6
ENDMDL
MODEL 6
REMARK VINA RESULT:      -8.8      1.685      2.447
REMARK  6 active torsions:
REMARK  status: ('A' for Active; 'I' for Inactive)
REMARK    1  A    between atoms: N_9  and  C_10 
REMARK    2  A    between atoms: C_10  and  C_11 
REMARK       I    between atoms: C_11  and  N_12 
REMARK    3  A    between atoms: N_12  and  C_13 
REMARK    4  A    between atoms: C_16  and  C_17 
REMARK       I    between atoms: C_17  and  N_18 
REMARK    5  A    between atoms: N_18  and  C_19 
REMARK    6  A    between atoms: C_20  and  O_21 
ROOT
HETATM    1  C   UNL     1      39.825 -10.564   7.351  1.00  0.00     0.240 C 
HETATM    2  N   UNL     1      39.762 -11.944   7.234  1.00  0.00    -0.326 N 
HETATM    3  O   UNL     1      40.457  -9.817   6.607  1.00  0.00    -0.271 OA
HETATM    4  H   UNL     1      39.017 -12.412   7.746  1.00  0.00     0.169 HD
ENDROOT
BRANCH   2   5
HETATM    5  C   UNL     1      40.567 -12.770   6.424  1.00  0.00     0.034 A 
HETATM    6  C   UNL     1      41.928 -12.552   6.198  1.00  0.00     0.030 A 
HETATM    7  C   UNL     1      42.676 -13.441   5.415  1.00  0.00     0.019 A 
HETATM    8  C   UNL     1      42.065 -14.565   4.850  1.00  0.00     0.032 A 
HETATM    9  C   UNL     1      40.705 -14.793   5.078  1.00  0.00     0.019 A 
HETATM   10  C   UNL     1      39.960 -13.897   5.855  1.00  0.00     0.030 A 
BRANCH   8  11
HETATM   11  C   UNL     1      42.846 -15.561   4.061  1.00  0.00     0.256 C 
HETATM   12  N   UNL     1      42.663 -16.879   4.448  1.00  0.00    -0.321 N 
HETATM   13  H   UNL     1      42.387 -17.028   5.409  1.00  0.00     0.169 HD
HETATM   14  O   UNL     1      43.638 -15.153   3.218  1.00  0.00    -0.267 OA
BRANCH  12  15
HETATM   15  C   UNL     1      43.126 -18.010   3.737  1.00  0.00     0.068 A 
HETATM   16  C   UNL     1      42.660 -18.383   2.464  1.00  0.00     0.095 A 
HETATM   17  C   UNL     1      43.185 -19.522   1.836  1.00  0.00     0.039 A 
HETATM   18  C   UNL     1      44.164 -20.289   2.470  1.00  0.00     0.003 A 
HETATM   19  C   UNL     1      44.599 -19.945   3.745  1.00  0.00     0.002 A 
HETATM   20  C   UNL     1      44.072 -18.819   4.383  1.00  0.00     0.032 A 
BRANCH  16  21
HETATM   21  O   UNL     1      41.567 -17.734   1.944  1.00  0.00    -0.354 OA
HETATM   22  C   UNL     1      41.843 -16.973   0.773  1.00  0.00     0.210 C 
ENDBRANCH  16  21
ENDBRANCH  12  15
ENDBRANCH   8  11
ENDBRANCH   2   5
BRANCH   1  23
HETATM   23  C   UNL     1      38.876  -9.975   8.396  1.00  0.00     0.240 C 
BRANCH  23  24
HETATM   24  N   UNL     1      39.562  -9.392   9.532  1.00  0.00    -0.259 N 
HETATM   25  C   UNL     1      39.456  -8.098   9.918  1.00  0.00     0.326 A 
HETATM   26  N   UNL     1      40.312  -7.874  10.963  1.00  0.00    -0.324 N 
HETATM   27  O   UNL     1      38.673  -7.276   9.469  1.00  0.00    -0.247 OA
HETATM   28  C   UNL     1      40.942  -9.092  11.440  1.00  0.00     0.116 A 
HETATM   29  H   UNL     1      40.328  -6.980  11.439  1.00  0.00     0.165 HD
HETATM   30  C   UNL     1      40.420  -9.429  12.841  1.00  0.00     0.041 C 
HETATM   31  C   UNL     1      40.390 -10.074  10.379  1.00  0.00     0.256 A 
HETATM   32  C   UNL     1      42.467  -8.984  11.359  1.00  0.00     0.041 C 
HETATM   33  C   UNL     1      41.177 -10.577  13.509  1.00  0.00     0.007 C 
HETATM   34  C   UNL     1      42.699 -10.399  13.479  1.00  0.00    -0.019 C 
HETATM   35  C   UNL     1      43.165  -9.299  14.436  1.00  0.00     0.010 C 
HETATM   36  C   UNL     1      43.186 -10.147  12.046  1.00  0.00     0.007 C 
HETATM   37  O   UNL     1      40.645 -11.268  10.313  1.00  0.00    -0.270 OA
ENDBRANCH  23  24
ENDBRANCH   1  23
TORSDOF 6
ENDMDL
MODEL 7
REMARK VINA RESULT:      -8.6      4.757     10.553
REMARK  6 active torsions:
REMARK  status: ('A' for Active; 'I' for Inactive)
REMARK    1  A    between atoms: N_9  and  C_10 
REMARK    2  A    between atoms: C_10  and  C_11 
REMARK       I    between atoms: C_11  and  N_12 
REMARK    3  A    between atoms: N_12  and  C_13 
REMARK    4  A    between atoms: C_16  and  C_17 
REMARK       I    between atoms: C_17  and  N_18 
REMARK    5  A    between atoms: N_18  and  C_19 
REMARK    6  A    between atoms: C_20  and  O_21 
ROOT
HETATM    1  C   UNL     1      39.860 -14.799   3.040  1.00  0.00     0.240 C 
HETATM    2  N   UNL     1      39.413 -13.551   3.447  1.00  0.00    -0.326 N 
HETATM    3  O   UNL     1      40.602 -15.534   3.690  1.00  0.00    -0.271 OA
HETATM    4  H   UNL     1      38.619 -13.165   2.942  1.00  0.00     0.169 HD
ENDROOT
BRANCH   2   5
HETATM    5  C   UNL     1      39.883 -12.788   4.535  1.00  0.00     0.034 A 
HETATM    6  C   UNL     1      39.279 -12.773   5.795  1.00  0.00     0.030 A 
HETATM    7  C   UNL     1      39.828 -12.023   6.843  1.00  0.00     0.019 A 
HETATM    8  C   UNL     1      40.994 -11.279   6.639  1.00  0.00     0.032 A 
HETATM    9  C   UNL     1      41.607 -11.296   5.383  1.00  0.00     0.019 A 
HETATM   10  C   UNL     1      41.050 -12.041   4.336  1.00  0.00     0.030 A 
BRANCH   8  11
HETATM   11  C   UNL     1      41.636 -10.518   7.750  1.00  0.00     0.256 C 
HETATM   12  N   UNL     1      41.593 -11.146   8.984  1.00  0.00    -0.321 N 
HETATM   13  H   UNL     1      40.833 -11.798   9.127  1.00  0.00     0.169 HD
HETATM   14  O   UNL     1      42.060  -9.390   7.522  1.00  0.00    -0.267 OA
BRANCH  12  15
HETATM   15  C   UNL     1      42.298 -10.731  10.137  1.00  0.00     0.068 A 
HETATM   16  C   UNL     1      43.614 -11.124  10.436  1.00  0.00     0.095 A 
HETATM   17  C   UNL     1      44.232 -10.654  11.604  1.00  0.00     0.039 A 
HETATM   18  C   UNL     1      43.547  -9.804  12.473  1.00  0.00     0.003 A 
HETATM   19  C   UNL     1      42.231  -9.445  12.200  1.00  0.00     0.002 A 
HETATM   20  C   UNL     1      41.603  -9.918  11.045  1.00  0.00     0.032 A 
BRANCH  16  21
HETATM   21  O   UNL     1      44.199 -12.107   9.677  1.00  0.00    -0.354 OA
HETATM   22  C   UNL     1      45.440 -11.731   9.089  1.00  0.00     0.210 C 
ENDBRANCH  16  21
ENDBRANCH  12  15
ENDBRANCH   8  11
ENDBRANCH   2   5
BRANCH   1  23
HETATM   23  C   UNL     1      39.210 -15.315   1.755  1.00  0.00     0.240 C 
BRANCH  23  24
HETATM   24  N   UNL     1      39.348 -14.406   0.634  1.00  0.00    -0.259 N 
HETATM   25  C   UNL     1      38.403 -13.522   0.236  1.00  0.00     0.326 A 
HETATM   26  N   UNL     1      38.829 -12.901  -0.908  1.00  0.00    -0.324 N 
HETATM   27  O   UNL     1      37.371 -13.256   0.830  1.00  0.00    -0.247 OA
HETATM   28  C   UNL     1      40.197 -13.245  -1.254  1.00  0.00     0.116 A 
HETATM   29  H   UNL     1      38.290 -12.151  -1.324  1.00  0.00     0.165 HD
HETATM   30  C   UNL     1      41.098 -12.019  -1.074  1.00  0.00     0.041 C 
HETATM   31  C   UNL     1      40.458 -14.305  -0.157  1.00  0.00     0.256 A 
HETATM   32  C   UNL     1      40.266 -13.862  -2.652  1.00  0.00     0.041 C 
HETATM   33  C   UNL     1      42.515 -12.225  -1.610  1.00  0.00     0.007 C 
HETATM   34  C   UNL     1      42.548 -12.771  -3.042  1.00  0.00    -0.019 C 
HETATM   35  C   UNL     1      42.124 -11.716  -4.066  1.00  0.00     0.010 C 
HETATM   36  C   UNL     1      41.700 -14.044  -3.155  1.00  0.00     0.007 C 
HETATM   37  O   UNL     1      41.492 -14.941  -0.014  1.00  0.00    -0.270 OA
ENDBRANCH  23  24
ENDBRANCH   1  23
TORSDOF 6
ENDMDL
MODEL 8
REMARK VINA RESULT:      -8.5      1.633      2.282
REMARK  6 active torsions:
REMARK  status: ('A' for Active; 'I' for Inactive)
REMARK    1  A    between atoms: N_9  and  C_10 
REMARK    2  A    between atoms: C_10  and  C_11 
REMARK       I    between atoms: C_11  and  N_12 
REMARK    3  A    between atoms: N_12  and  C_13 
REMARK    4  A    between atoms: C_16  and  C_17 
REMARK       I    between atoms: C_17  and  N_18 
REMARK    5  A    between atoms: N_18  and  C_19 
REMARK    6  A    between atoms: C_20  and  O_21 
ROOT
HETATM    1  C   UNL     1      39.587  -9.646   7.219  1.00  0.00     0.240 C 
HETATM    2  N   UNL     1      40.349 -10.768   7.508  1.00  0.00    -0.326 N 
HETATM    3  O   UNL     1      38.784  -9.553   6.292  1.00  0.00    -0.271 OA
HETATM    4  H   UNL     1      40.776 -10.804   8.431  1.00  0.00     0.169 HD
ENDROOT
BRANCH   2   5
HETATM    5  C   UNL     1      40.537 -11.905   6.697  1.00  0.00     0.034 A 
HETATM    6  C   UNL     1      39.525 -12.817   6.386  1.00  0.00     0.030 A 
HETATM    7  C   UNL     1      39.776 -13.902   5.536  1.00  0.00     0.019 A 
HETATM    8  C   UNL     1      41.047 -14.085   4.984  1.00  0.00     0.032 A 
HETATM    9  C   UNL     1      42.062 -13.171   5.286  1.00  0.00     0.019 A 
HETATM   10  C   UNL     1      41.809 -12.093   6.142  1.00  0.00     0.030 A 
BRANCH   8  11
HETATM   11  C   UNL     1      41.330 -15.195   4.030  1.00  0.00     0.256 C 
HETATM   12  N   UNL     1      42.659 -15.580   3.964  1.00  0.00    -0.321 N 
HETATM   13  H   UNL     1      43.341 -14.874   4.209  1.00  0.00     0.169 HD
HETATM   14  O   UNL     1      40.415 -15.613   3.327  1.00  0.00    -0.267 OA
BRANCH  12  15
HETATM   15  C   UNL     1      43.144 -16.728   3.297  1.00  0.00     0.068 A 
HETATM   16  C   UNL     1      43.407 -17.954   3.932  1.00  0.00     0.095 A 
HETATM   17  C   UNL     1      43.884 -19.039   3.182  1.00  0.00     0.039 A 
HETATM   18  C   UNL     1      44.104 -18.907   1.810  1.00  0.00     0.003 A 
HETATM   19  C   UNL     1      43.883 -17.683   1.186  1.00  0.00     0.002 A 
HETATM   20  C   UNL     1      43.419 -16.594   1.928  1.00  0.00     0.032 A 
BRANCH  16  21
HETATM   21  O   UNL     1      43.371 -18.008   5.303  1.00  0.00    -0.354 OA
HETATM   22  C   UNL     1      44.638 -18.232   5.913  1.00  0.00     0.210 C 
ENDBRANCH  16  21
ENDBRANCH  12  15
ENDBRANCH   8  11
ENDBRANCH   2   5
BRANCH   1  23
HETATM   23  C   UNL     1      39.671  -8.538   8.270  1.00  0.00     0.240 C 
BRANCH  23  24
HETATM   24  N   UNL     1      39.747  -9.037   9.629  1.00  0.00    -0.259 N 
HETATM   25  C   UNL     1      38.809  -9.813  10.220  1.00  0.00     0.326 A 
HETATM   26  N   UNL     1      39.158 -10.013  11.529  1.00  0.00    -0.324 N 
HETATM   27  O   UNL     1      37.846 -10.322   9.670  1.00  0.00    -0.247 OA
HETATM   28  C   UNL     1      40.474  -9.486  11.843  1.00  0.00     0.116 A 
HETATM   29  H   UNL     1      38.616 -10.629  12.124  1.00  0.00     0.165 HD
HETATM   30  C   UNL     1      41.438 -10.643  12.127  1.00  0.00     0.041 C 
HETATM   31  C   UNL     1      40.786  -8.809  10.487  1.00  0.00     0.256 A 
HETATM   32  C   UNL     1      40.394  -8.458  12.973  1.00  0.00     0.041 C 
HETATM   33  C   UNL     1      42.792 -10.183  12.668  1.00  0.00     0.007 C 
HETATM   34  C   UNL     1      42.676  -9.214  13.850  1.00  0.00    -0.019 C 
HETATM   35  C   UNL     1      42.207  -9.920  15.125  1.00  0.00     0.010 C 
HETATM   36  C   UNL     1      41.768  -8.030  13.492  1.00  0.00     0.007 C 
HETATM   37  O   UNL     1      41.801  -8.181  10.222  1.00  0.00    -0.270 OA
ENDBRANCH  23  24
ENDBRANCH   1  23
TORSDOF 6
ENDMDL
MODEL 9
REMARK VINA RESULT:      -8.0      7.397     10.945
REMARK  6 active torsions:
REMARK  status: ('A' for Active; 'I' for Inactive)
REMARK    1  A    between atoms: N_9  and  C_10 
REMARK    2  A    between atoms: C_10  and  C_11 
REMARK       I    between atoms: C_11  and  N_12 
REMARK    3  A    between atoms: N_12  and  C_13 
REMARK    4  A    between atoms: C_16  and  C_17 
REMARK       I    between atoms: C_17  and  N_18 
REMARK    5  A    between atoms: N_18  and  C_19 
REMARK    6  A    between atoms: C_20  and  O_21 
ROOT
HETATM    1  C   UNL     1      42.030 -16.925   0.652  1.00  0.00     0.240 C 
HETATM    2  N   UNL     1      42.064 -15.826  -0.193  1.00  0.00    -0.326 N 
HETATM    3  O   UNL     1      41.021 -17.567   0.941  1.00  0.00    -0.271 OA
HETATM    4  H   UNL     1      42.978 -15.548  -0.542  1.00  0.00     0.169 HD
ENDROOT
BRANCH   2   5
HETATM    5  C   UNL     1      40.966 -15.093  -0.686  1.00  0.00     0.034 A 
HETATM    6  C   UNL     1      40.096 -14.354   0.120  1.00  0.00     0.030 A 
HETATM    7  C   UNL     1      39.051 -13.614  -0.445  1.00  0.00     0.019 A 
HETATM    8  C   UNL     1      38.864 -13.604  -1.831  1.00  0.00     0.032 A 
HETATM    9  C   UNL     1      39.735 -14.336  -2.644  1.00  0.00     0.019 A 
HETATM   10  C   UNL     1      40.775 -15.081  -2.074  1.00  0.00     0.030 A 
BRANCH   8  11
HETATM   11  C   UNL     1      37.797 -12.779  -2.468  1.00  0.00     0.256 C 
HETATM   12  N   UNL     1      37.704 -12.914  -3.844  1.00  0.00    -0.321 N 
HETATM   13  H   UNL     1      38.549 -13.190  -4.324  1.00  0.00     0.169 HD
HETATM   14  O   UNL     1      37.162 -11.998  -1.768  1.00  0.00    -0.267 OA
BRANCH  12  15
HETATM   15  C   UNL     1      36.657 -12.401  -4.644  1.00  0.00     0.068 A 
HETATM   16  C   UNL     1      36.678 -11.129  -5.243  1.00  0.00     0.095 A 
HETATM   17  C   UNL     1      35.591 -10.710  -6.025  1.00  0.00     0.039 A 
HETATM   18  C   UNL     1      34.488 -11.546  -6.207  1.00  0.00     0.003 A 
HETATM   19  C   UNL     1      34.448 -12.789  -5.583  1.00  0.00     0.002 A 
HETATM   20  C   UNL     1      35.521 -13.209  -4.792  1.00  0.00     0.032 A 
BRANCH  16  21
HETATM   21  O   UNL     1      37.675 -10.252  -4.897  1.00  0.00    -0.354 OA
HETATM   22  C   UNL     1      37.249  -9.186  -4.054  1.00  0.00     0.210 C 
ENDBRANCH  16  21
ENDBRANCH  12  15
ENDBRANCH   8  11
ENDBRANCH   2   5
BRANCH   1  23
HETATM   23  C   UNL     1      43.406 -17.432   1.085  1.00  0.00     0.240 C 
BRANCH  23  24
HETATM   24  N   UNL     1      43.439 -17.911   2.453  1.00  0.00    -0.259 N 
HETATM   25  C   UNL     1      43.534 -19.212   2.814  1.00  0.00     0.326 A 
HETATM   26  N   UNL     1      43.438 -19.304   4.176  1.00  0.00    -0.324 N 
HETATM   27  O   UNL     1      43.749 -20.151   2.065  1.00  0.00    -0.247 OA
HETATM   28  C   UNL     1      43.427 -18.005   4.825  1.00  0.00     0.116 A 
HETATM   29  H   UNL     1      43.558 -20.193   4.648  1.00  0.00     0.165 HD
HETATM   30  C   UNL     1      44.723 -17.813   5.619  1.00  0.00     0.041 C 
HETATM   31  C   UNL     1      43.399 -17.112   3.561  1.00  0.00     0.256 A 
HETATM   32  C   UNL     1      42.158 -17.825   5.661  1.00  0.00     0.041 C 
HETATM   33  C   UNL     1      44.713 -16.565   6.502  1.00  0.00     0.007 C 
HETATM   34  C   UNL     1      43.463 -16.456   7.384  1.00  0.00    -0.019 C 
HETATM   35  C   UNL     1      43.478 -17.477   8.524  1.00  0.00     0.010 C 
HETATM   36  C   UNL     1      42.191 -16.570   6.536  1.00  0.00     0.007 C 
HETATM   37  O   UNL     1      43.359 -15.890   3.555  1.00  0.00    -0.270 OA
ENDBRANCH  23  24
ENDBRANCH   1  23
TORSDOF 6
ENDMDL
MODEL 10
REMARK VINA RESULT:      -7.9      7.855     10.805
REMARK  6 active torsions:
REMARK  status: ('A' for Active; 'I' for Inactive)
REMARK    1  A    between atoms: N_9  and  C_10 
REMARK    2  A    between atoms: C_10  and  C_11 
REMARK       I    between atoms: C_11  and  N_12 
REMARK    3  A    between atoms: N_12  and  C_13 
REMARK    4  A    between atoms: C_16  and  C_17 
REMARK       I    between atoms: C_17  and  N_18 
REMARK    5  A    between atoms: N_18  and  C_19 
REMARK    6  A    between atoms: C_20  and  O_21 
ROOT
HETATM    1  C   UNL     1      38.602 -12.910  -0.350  1.00  0.00     0.240 C 
HETATM    2  N   UNL     1      39.986 -12.995  -0.339  1.00  0.00    -0.326 N 
HETATM    3  O   UNL     1      37.838 -13.696   0.207  1.00  0.00    -0.271 OA
HETATM    4  H   UNL     1      40.496 -12.160  -0.616  1.00  0.00     0.169 HD
ENDROOT
BRANCH   2   5
HETATM    5  C   UNL     1      40.771 -14.085   0.089  1.00  0.00     0.034 A 
HETATM    6  C   UNL     1      40.931 -15.264  -0.643  1.00  0.00     0.030 A 
HETATM    7  C   UNL     1      41.763 -16.289  -0.175  1.00  0.00     0.019 A 
HETATM    8  C   UNL     1      42.449 -16.142   1.035  1.00  0.00     0.032 A 
HETATM    9  C   UNL     1      42.298 -14.962   1.768  1.00  0.00     0.019 A 
HETATM   10  C   UNL     1      41.459 -13.943   1.300  1.00  0.00     0.030 A 
BRANCH   8  11
HETATM   11  C   UNL     1      43.388 -17.190   1.530  1.00  0.00     0.256 C 
HETATM   12  N   UNL     1      42.797 -18.185   2.292  1.00  0.00    -0.321 N 
HETATM   13  H   UNL     1      41.947 -17.931   2.777  1.00  0.00     0.169 HD
HETATM   14  O   UNL     1      44.587 -17.053   1.314  1.00  0.00    -0.267 OA
BRANCH  12  15
HETATM   15  C   UNL     1      43.428 -19.382   2.702  1.00  0.00     0.068 A 
HETATM   16  C   UNL     1      44.136 -19.524   3.908  1.00  0.00     0.095 A 
HETATM   17  C   UNL     1      44.724 -20.755   4.229  1.00  0.00     0.039 A 
HETATM   18  C   UNL     1      44.616 -21.839   3.356  1.00  0.00     0.003 A 
HETATM   19  C   UNL     1      43.951 -21.690   2.143  1.00  0.00     0.002 A 
HETATM   20  C   UNL     1      43.372 -20.463   1.810  1.00  0.00     0.032 A 
BRANCH  16  21
HETATM   21  O   UNL     1      44.395 -18.403   4.657  1.00  0.00    -0.354 OA
HETATM   22  C   UNL     1      45.112 -18.658   5.861  1.00  0.00     0.210 C 
ENDBRANCH  16  21
ENDBRANCH  12  15
ENDBRANCH   8  11
ENDBRANCH   2   5
BRANCH   1  23
HETATM   23  C   UNL     1      38.054 -11.624  -0.972  1.00  0.00     0.240 C 
BRANCH  23  24
HETATM   24  N   UNL     1      37.627 -11.787  -2.348  1.00  0.00    -0.259 N 
HETATM   25  C   UNL     1      38.431 -12.179  -3.365  1.00  0.00     0.326 A 
HETATM   26  N   UNL     1      37.724 -12.129  -4.536  1.00  0.00    -0.324 N 
HETATM   27  O   UNL     1      39.576 -12.588  -3.259  1.00  0.00    -0.247 OA
HETATM   28  C   UNL     1      36.316 -11.836  -4.327  1.00  0.00     0.116 A 
HETATM   29  H   UNL     1      38.132 -12.454  -5.405  1.00  0.00     0.165 HD
HETATM   30  C   UNL     1      35.475 -13.068  -4.674  1.00  0.00     0.041 C 
HETATM   31  C   UNL     1      36.353 -11.587  -2.800  1.00  0.00     0.256 A 
HETATM   32  C   UNL     1      35.905 -10.573  -5.087  1.00  0.00     0.041 C 
HETATM   33  C   UNL     1      33.972 -12.792  -4.684  1.00  0.00     0.007 C 
HETATM   34  C   UNL     1      33.586 -11.565  -5.518  1.00  0.00    -0.019 C 
HETATM   35  C   UNL     1      33.727 -11.828  -7.020  1.00  0.00     0.010 C 
HETATM   36  C   UNL     1      34.393 -10.337  -5.080  1.00  0.00     0.007 C 
HETATM   37  O   UNL     1      35.395 -11.272  -2.108  1.00  0.00    -0.270 OA
ENDBRANCH  23  24
ENDBRANCH   1  23
TORSDOF 6
ENDMDL
