MODEL 1
REMARK VINA RESULT:      -9.2      0.000      0.000
REMARK  3 active torsions:
REMARK  status: ('A' for Active; 'I' for Inactive)
REMARK    1  A    between atoms: C_4  and  C_5 
REMARK    2  A    between atoms: C_11  and  C_12 
REMARK    3  A    between atoms: C_21  and  N_22 
ROOT
HETATM    1  C   UNL     1      44.048 -19.161   5.742  1.00  0.00     0.071 A 
HETATM    2  N   UNL     1      44.144 -19.280   7.112  1.00  0.00    -0.274 N 
HETATM    3  H   UNL     1      44.387 -20.111   7.642  1.00  0.00     0.189 HD
HETATM    4  N   UNL     1      43.927 -18.135   7.785  1.00  0.00    -0.148 NA
HETATM    5  C   UNL     1      43.688 -17.277   6.804  1.00  0.00     0.199 A 
HETATM    6  C   UNL     1      43.697 -17.839   5.519  1.00  0.00     0.036 A 
HETATM    7  C   UNL     1      43.421 -16.998   4.309  1.00  0.00     0.079 A 
HETATM    8  C   UNL     1      43.336 -15.516   4.735  1.00  0.00     0.063 A 
HETATM    9  C   UNL     1      43.127 -14.506   3.618  1.00  0.00     0.020 C 
HETATM   10  N   UNL     1      42.954 -13.668   2.692  1.00  0.00    -0.096 N 
HETATM   11  C   UNL     1      43.366 -15.088   6.022  1.00  0.00     0.139 A 
HETATM   12  O   UNL     1      43.499 -15.978   7.092  1.00  0.00    -0.277 OA
ENDROOT
BRANCH   7  13
HETATM   13  C   UNL     1      42.147 -17.412   3.488  1.00  0.00     0.022 C 
HETATM   14  C   UNL     1      40.974 -16.477   3.677  1.00  0.00    -0.025 C 
HETATM   15  C   UNL     1      40.308 -15.898   2.667  1.00  0.00    -0.030 C 
HETATM   16  C   UNL     1      40.688 -16.059   1.228  1.00  0.00     0.027 C 
HETATM   17  C   UNL     1      42.107 -16.596   1.046  1.00  0.00     0.004 C 
HETATM   18  C   UNL     1      42.408 -17.750   2.000  1.00  0.00     0.010 C 
ENDBRANCH   7  13
BRANCH  11  19
HETATM   19  N   UNL     1      43.253 -13.777   6.429  1.00  0.00    -0.282 NA
HETATM   20  H   UNL     1      43.933 -13.127   6.043  1.00  0.00     0.126 HD
HETATM   21  H   UNL     1      42.295 -13.442   6.363  1.00  0.00     0.126 HD
ENDBRANCH  11  19
BRANCH   1  22
HETATM   22  C   UNL     1      44.323 -20.287   4.861  1.00  0.00    -0.007 A 
HETATM   23  C   UNL     1      44.385 -20.102   3.473  1.00  0.00     0.014 A 
HETATM   24  C   UNL     1      44.638 -21.182   2.625  1.00  0.00     0.001 A 
HETATM   25  C   UNL     1      44.824 -22.457   3.158  1.00  0.00     0.000 A 
HETATM   26  C   UNL     1      44.757 -22.651   4.536  1.00  0.00     0.001 A 
HETATM   27  C   UNL     1      44.506 -21.571   5.385  1.00  0.00     0.014 A 
ENDBRANCH   1  22
TORSDOF 3
ENDMDL
MODEL 2
REMARK VINA RESULT:      -9.1      1.318      5.195
REMARK  3 active torsions:
REMARK  status: ('A' for Active; 'I' for Inactive)
REMARK    1  A    between atoms: C_4  and  C_5 
REMARK    2  A    between atoms: C_11  and  C_12 
REMARK    3  A    between atoms: C_21  and  N_22 
ROOT
HETATM    1  C   UNL     1      42.525 -15.857   4.336  1.00  0.00     0.071 A 
HETATM    2  N   UNL     1      42.583 -14.598   4.898  1.00  0.00    -0.274 N 
HETATM    3  H   UNL     1      42.335 -13.717   4.461  1.00  0.00     0.189 HD
HETATM    4  N   UNL     1      42.976 -14.584   6.185  1.00  0.00    -0.148 NA
HETATM    5  C   UNL     1      43.169 -15.872   6.432  1.00  0.00     0.199 A 
HETATM    6  C   UNL     1      42.960 -16.716   5.333  1.00  0.00     0.036 A 
HETATM    7  C   UNL     1      43.161 -18.197   5.450  1.00  0.00     0.079 A 
HETATM    8  C   UNL     1      43.422 -18.554   6.930  1.00  0.00     0.063 A 
HETATM    9  C   UNL     1      43.582 -20.032   7.248  1.00  0.00     0.020 C 
HETATM   10  N   UNL     1      43.716 -21.258   7.512  1.00  0.00    -0.096 N 
HETATM   11  C   UNL     1      43.582 -17.638   7.919  1.00  0.00     0.139 A 
HETATM   12  O   UNL     1      43.502 -16.265   7.673  1.00  0.00    -0.277 OA
ENDROOT
BRANCH   7  13
HETATM   13  C   UNL     1      44.288 -18.791   4.531  1.00  0.00     0.022 C 
HETATM   14  C   UNL     1      44.585 -20.248   4.799  1.00  0.00    -0.025 C 
HETATM   15  C   UNL     1      44.588 -21.199   3.854  1.00  0.00    -0.030 C 
HETATM   16  C   UNL     1      44.235 -20.939   2.423  1.00  0.00     0.027 C 
HETATM   17  C   UNL     1      43.496 -19.618   2.224  1.00  0.00     0.004 C 
HETATM   18  C   UNL     1      44.132 -18.481   3.021  1.00  0.00     0.010 C 
ENDBRANCH   7  13
BRANCH  11  19
HETATM   19  N   UNL     1      43.855 -17.930   9.237  1.00  0.00    -0.282 NA
HETATM   20  H   UNL     1      43.214 -17.542   9.925  1.00  0.00     0.126 HD
HETATM   21  H   UNL     1      44.038 -18.921   9.375  1.00  0.00     0.126 HD
ENDBRANCH  11  19
BRANCH   1  22
HETATM   22  C   UNL     1      42.052 -16.058   2.974  1.00  0.00    -0.007 A 
HETATM   23  C   UNL     1      41.017 -16.966   2.710  1.00  0.00     0.014 A 
HETATM   24  C   UNL     1      40.569 -17.169   1.404  1.00  0.00     0.001 A 
HETATM   25  C   UNL     1      41.157 -16.471   0.350  1.00  0.00     0.000 A 
HETATM   26  C   UNL     1      42.190 -15.571   0.602  1.00  0.00     0.001 A 
HETATM   27  C   UNL     1      42.638 -15.366   1.909  1.00  0.00     0.014 A 
ENDBRANCH   1  22
TORSDOF 3
ENDMDL
MODEL 3
REMARK VINA RESULT:      -9.1      3.441      5.108
REMARK  3 active torsions:
REMARK  status: ('A' for Active; 'I' for Inactive)
REMARK    1  A    between atoms: C_4  and  C_5 
REMARK    2  A    between atoms: C_11  and  C_12 
REMARK    3  A    between atoms: C_21  and  N_22 
ROOT
HETATM    1  C   UNL     1      43.105 -17.252   3.488  1.00  0.00     0.071 A 
HETATM    2  N   UNL     1      44.046 -17.945   2.755  1.00  0.00    -0.274 N 
HETATM    3  H   UNL     1      44.787 -18.539   3.111  1.00  0.00     0.189 HD
HETATM    4  N   UNL     1      43.904 -17.830   1.422  1.00  0.00    -0.148 NA
HETATM    5  C   UNL     1      42.843 -17.042   1.322  1.00  0.00     0.199 A 
HETATM    6  C   UNL     1      42.321 -16.603   2.547  1.00  0.00     0.036 A 
HETATM    7  C   UNL     1      41.136 -15.687   2.595  1.00  0.00     0.079 A 
HETATM    8  C   UNL     1      40.569 -15.522   1.168  1.00  0.00     0.063 A 
HETATM    9  C   UNL     1      39.314 -14.674   1.037  1.00  0.00     0.020 C 
HETATM   10  N   UNL     1      38.273 -13.970   0.927  1.00  0.00    -0.096 N 
HETATM   11  C   UNL     1      41.156 -16.021   0.051  1.00  0.00     0.139 A 
HETATM   12  O   UNL     1      42.341 -16.758   0.107  1.00  0.00    -0.277 OA
ENDROOT
BRANCH   7  13
HETATM   13  C   UNL     1      41.405 -14.284   3.249  1.00  0.00     0.022 C 
HETATM   14  C   UNL     1      41.016 -14.211   4.709  1.00  0.00    -0.025 C 
HETATM   15  C   UNL     1      41.840 -13.798   5.683  1.00  0.00    -0.030 C 
HETATM   16  C   UNL     1      43.269 -13.419   5.450  1.00  0.00     0.027 C 
HETATM   17  C   UNL     1      43.805 -13.920   4.110  1.00  0.00     0.004 C 
HETATM   18  C   UNL     1      42.809 -13.692   2.975  1.00  0.00     0.010 C 
ENDBRANCH   7  13
BRANCH  11  19
HETATM   19  N   UNL     1      40.691 -15.854  -1.235  1.00  0.00    -0.282 NA
HETATM   20  H   UNL     1      39.681 -15.813  -1.346  1.00  0.00     0.126 HD
HETATM   21  H   UNL     1      41.178 -15.103  -1.718  1.00  0.00     0.126 HD
ENDBRANCH  11  19
BRANCH   1  22
HETATM   22  C   UNL     1      43.071 -17.325   4.942  1.00  0.00    -0.007 A 
HETATM   23  C   UNL     1      41.849 -17.448   5.617  1.00  0.00     0.014 A 
HETATM   24  C   UNL     1      41.813 -17.508   7.012  1.00  0.00     0.001 A 
HETATM   25  C   UNL     1      42.998 -17.438   7.742  1.00  0.00     0.000 A 
HETATM   26  C   UNL     1      44.217 -17.309   7.080  1.00  0.00     0.001 A 
HETATM   27  C   UNL     1      44.255 -17.251   5.685  1.00  0.00     0.014 A 
ENDBRANCH   1  22
TORSDOF 3
ENDMDL
MODEL 4
REMARK VINA RESULT:      -8.6      3.493      5.217
REMARK  3 active torsions:
REMARK  status: ('A' for Active; 'I' for Inactive)
REMARK    1  A    between atoms: C_4  and  C_5 
REMARK    2  A    between atoms: C_11  and  C_12 
REMARK    3  A    between atoms: C_21  and  N_22 
ROOT
HETATM    1  C   UNL     1      41.188 -14.484   5.605  1.00  0.00     0.071 A 
HETATM    2  N   UNL     1      40.048 -14.231   6.338  1.00  0.00    -0.274 N 
HETATM    3  H   UNL     1      39.819 -14.585   7.261  1.00  0.00     0.189 HD
HETATM    4  N   UNL     1      39.186 -13.383   5.748  1.00  0.00    -0.148 NA
HETATM    5  C   UNL     1      39.809 -13.098   4.614  1.00  0.00     0.199 A 
HETATM    6  C   UNL     1      41.024 -13.771   4.427  1.00  0.00     0.036 A 
HETATM    7  C   UNL     1      41.833 -13.570   3.182  1.00  0.00     0.079 A 
HETATM    8  C   UNL     1      41.198 -12.437   2.347  1.00  0.00     0.063 A 
HETATM    9  C   UNL     1      41.930 -12.048   1.073  1.00  0.00     0.020 C 
HETATM   10  N   UNL     1      42.538 -11.725   0.016  1.00  0.00    -0.096 N 
HETATM   11  C   UNL     1      40.018 -11.837   2.646  1.00  0.00     0.139 A 
HETATM   12  O   UNL     1      39.274 -12.195   3.773  1.00  0.00    -0.277 OA
ENDROOT
BRANCH   7  13
HETATM   13  C   UNL     1      42.035 -14.857   2.305  1.00  0.00     0.022 C 
HETATM   14  C   UNL     1      43.288 -15.632   2.644  1.00  0.00    -0.025 C 
HETATM   15  C   UNL     1      43.303 -16.942   2.931  1.00  0.00    -0.030 C 
HETATM   16  C   UNL     1      42.068 -17.784   3.010  1.00  0.00     0.027 C 
HETATM   17  C   UNL     1      40.792 -16.954   3.134  1.00  0.00     0.004 C 
HETATM   18  C   UNL     1      40.787 -15.765   2.176  1.00  0.00     0.010 C 
ENDBRANCH   7  13
BRANCH  11  19
HETATM   19  N   UNL     1      39.412 -10.853   1.897  1.00  0.00    -0.282 NA
HETATM   20  H   UNL     1      39.259 -11.066   0.914  1.00  0.00     0.126 HD
HETATM   21  H   UNL     1      38.585 -10.481   2.360  1.00  0.00     0.126 HD
ENDBRANCH  11  19
BRANCH   1  22
HETATM   22  C   UNL     1      42.256 -15.324   6.128  1.00  0.00    -0.007 A 
HETATM   23  C   UNL     1      41.984 -16.628   6.563  1.00  0.00     0.014 A 
HETATM   24  C   UNL     1      43.004 -17.432   7.074  1.00  0.00     0.001 A 
HETATM   25  C   UNL     1      44.304 -16.935   7.160  1.00  0.00     0.000 A 
HETATM   26  C   UNL     1      44.583 -15.638   6.736  1.00  0.00     0.001 A 
HETATM   27  C   UNL     1      43.563 -14.834   6.223  1.00  0.00     0.014 A 
ENDBRANCH   1  22
TORSDOF 3
ENDMDL
MODEL 5
REMARK VINA RESULT:      -8.6      3.703      5.657
REMARK  3 active torsions:
REMARK  status: ('A' for Active; 'I' for Inactive)
REMARK    1  A    between atoms: C_4  and  C_5 
REMARK    2  A    between atoms: C_11  and  C_12 
REMARK    3  A    between atoms: C_21  and  N_22 
ROOT
HETATM    1  C   UNL     1      41.705 -16.489   2.004  1.00  0.00     0.071 A 
HETATM    2  N   UNL     1      42.061 -17.025   0.784  1.00  0.00    -0.274 N 
HETATM    3  H   UNL     1      42.593 -17.872   0.616  1.00  0.00     0.189 HD
HETATM    4  N   UNL     1      41.596 -16.342  -0.278  1.00  0.00    -0.148 NA
HETATM    5  C   UNL     1      40.929 -15.351   0.297  1.00  0.00     0.199 A 
HETATM    6  C   UNL     1      40.988 -15.342   1.698  1.00  0.00     0.036 A 
HETATM    7  C   UNL     1      40.303 -14.270   2.490  1.00  0.00     0.079 A 
HETATM    8  C   UNL     1      39.455 -13.402   1.535  1.00  0.00     0.063 A 
HETATM    9  C   UNL     1      38.631 -12.300   2.180  1.00  0.00     0.020 C 
HETATM   10  N   UNL     1      37.948 -11.384   2.715  1.00  0.00    -0.096 N 
HETATM   11  C   UNL     1      39.462 -13.524   0.183  1.00  0.00     0.139 A 
HETATM   12  O   UNL     1      40.244 -14.483  -0.466  1.00  0.00    -0.277 OA
ENDROOT
BRANCH   7  13
HETATM   13  C   UNL     1      41.256 -13.370   3.356  1.00  0.00     0.022 C 
HETATM   14  C   UNL     1      41.303 -13.764   4.815  1.00  0.00    -0.025 C 
HETATM   15  C   UNL     1      42.436 -14.014   5.487  1.00  0.00    -0.030 C 
HETATM   16  C   UNL     1      43.792 -13.992   4.854  1.00  0.00     0.027 C 
HETATM   17  C   UNL     1      43.736 -14.062   3.329  1.00  0.00     0.004 C 
HETATM   18  C   UNL     1      42.664 -13.139   2.754  1.00  0.00     0.010 C 
ENDBRANCH   7  13
BRANCH  11  19
HETATM   19  N   UNL     1      38.746 -12.738  -0.691  1.00  0.00    -0.282 NA
HETATM   20  H   UNL     1      39.287 -12.100  -1.269  1.00  0.00     0.126 HD
HETATM   21  H   UNL     1      38.069 -13.282  -1.222  1.00  0.00     0.126 HD
ENDBRANCH  11  19
BRANCH   1  22
HETATM   22  C   UNL     1      42.066 -17.141   3.254  1.00  0.00    -0.007 A 
HETATM   23  C   UNL     1      43.361 -17.641   3.445  1.00  0.00     0.014 A 
HETATM   24  C   UNL     1      43.707 -18.276   4.639  1.00  0.00     0.001 A 
HETATM   25  C   UNL     1      42.757 -18.422   5.650  1.00  0.00     0.000 A 
HETATM   26  C   UNL     1      41.465 -17.935   5.466  1.00  0.00     0.001 A 
HETATM   27  C   UNL     1      41.119 -17.297   4.272  1.00  0.00     0.014 A 
ENDBRANCH   1  22
TORSDOF 3
ENDMDL
MODEL 6
REMARK VINA RESULT:      -8.5      3.383      5.462
REMARK  3 active torsions:
REMARK  status: ('A' for Active; 'I' for Inactive)
REMARK    1  A    between atoms: C_4  and  C_5 
REMARK    2  A    between atoms: C_11  and  C_12 
REMARK    3  A    between atoms: C_21  and  N_22 
ROOT
HETATM    1  C   UNL     1      41.129 -16.147   3.643  1.00  0.00     0.071 A 
HETATM    2  N   UNL     1      40.486 -17.338   3.909  1.00  0.00    -0.274 N 
HETATM    3  H   UNL     1      39.861 -17.850   3.296  1.00  0.00     0.189 HD
HETATM    4  N   UNL     1      40.782 -17.871   5.109  1.00  0.00    -0.148 NA
HETATM    5  C   UNL     1      41.634 -16.986   5.605  1.00  0.00     0.199 A 
HETATM    6  C   UNL     1      41.864 -15.871   4.786  1.00  0.00     0.036 A 
HETATM    7  C   UNL     1      42.785 -14.772   5.221  1.00  0.00     0.079 A 
HETATM    8  C   UNL     1      43.492 -15.196   6.527  1.00  0.00     0.063 A 
HETATM    9  C   UNL     1      44.521 -14.224   7.081  1.00  0.00     0.020 C 
HETATM   10  N   UNL     1      45.375 -13.418   7.542  1.00  0.00    -0.096 N 
HETATM   11  C   UNL     1      43.198 -16.324   7.223  1.00  0.00     0.139 A 
HETATM   12  O   UNL     1      42.220 -17.224   6.791  1.00  0.00    -0.277 OA
ENDROOT
BRANCH   7  13
HETATM   13  C   UNL     1      42.109 -13.365   5.389  1.00  0.00     0.022 C 
HETATM   14  C   UNL     1      42.119 -12.533   4.126  1.00  0.00    -0.025 C 
HETATM   15  C   UNL     1      41.024 -11.973   3.591  1.00  0.00    -0.030 C 
HETATM   16  C   UNL     1      39.647 -12.158   4.146  1.00  0.00     0.027 C 
HETATM   17  C   UNL     1      39.550 -13.339   5.110  1.00  0.00     0.004 C 
HETATM   18  C   UNL     1      40.726 -13.381   6.084  1.00  0.00     0.010 C 
ENDBRANCH   7  13
BRANCH  11  19
HETATM   19  N   UNL     1      43.785 -16.703   8.410  1.00  0.00    -0.282 NA
HETATM   20  H   UNL     1      43.175 -17.146   9.092  1.00  0.00     0.126 HD
HETATM   21  H   UNL     1      44.652 -17.214   8.256  1.00  0.00     0.126 HD
ENDBRANCH  11  19
BRANCH   1  22
HETATM   22  C   UNL     1      40.976 -15.472   2.363  1.00  0.00    -0.007 A 
HETATM   23  C   UNL     1      39.705 -15.103   1.902  1.00  0.00     0.014 A 
HETATM   24  C   UNL     1      39.555 -14.465   0.669  1.00  0.00     0.001 A 
HETATM   25  C   UNL     1      40.676 -14.196  -0.115  1.00  0.00     0.000 A 
HETATM   26  C   UNL     1      41.943 -14.564   0.331  1.00  0.00     0.001 A 
HETATM   27  C   UNL     1      42.094 -15.201   1.565  1.00  0.00     0.014 A 
ENDBRANCH   1  22
TORSDOF 3
ENDMDL
MODEL 7
REMARK VINA RESULT:      -8.5      5.001      7.640
REMARK  3 active torsions:
REMARK  status: ('A' for Active; 'I' for Inactive)
REMARK    1  A    between atoms: C_4  and  C_5 
REMARK    2  A    between atoms: C_11  and  C_12 
REMARK    3  A    between atoms: C_21  and  N_22 
ROOT
HETATM    1  C   UNL     1      41.444 -14.547  -0.365  1.00  0.00     0.071 A 
HETATM    2  N   UNL     1      41.784 -15.880  -0.463  1.00  0.00    -0.274 N 
HETATM    3  H   UNL     1      42.218 -16.347  -1.251  1.00  0.00     0.189 HD
HETATM    4  N   UNL     1      41.537 -16.598   0.648  1.00  0.00    -0.148 NA
HETATM    5  C   UNL     1      41.027 -15.685   1.463  1.00  0.00     0.199 A 
HETATM    6  C   UNL     1      40.892 -14.408   0.899  1.00  0.00     0.036 A 
HETATM    7  C   UNL     1      40.309 -13.276   1.690  1.00  0.00     0.079 A 
HETATM    8  C   UNL     1      40.106 -13.734   3.151  1.00  0.00     0.063 A 
HETATM    9  C   UNL     1      39.583 -12.684   4.118  1.00  0.00     0.020 C 
HETATM   10  N   UNL     1      39.149 -11.814   4.921  1.00  0.00    -0.096 N 
HETATM   11  C   UNL     1      40.297 -15.005   3.586  1.00  0.00     0.139 A 
HETATM   12  O   UNL     1      40.722 -16.022   2.728  1.00  0.00    -0.277 OA
ENDROOT
BRANCH   7  13
HETATM   13  C   UNL     1      38.980 -12.673   1.109  1.00  0.00     0.022 C 
HETATM   14  C   UNL     1      39.203 -11.539   0.135  1.00  0.00    -0.025 C 
HETATM   15  C   UNL     1      38.679 -11.497  -1.099  1.00  0.00    -0.030 C 
HETATM   16  C   UNL     1      37.859 -12.604  -1.684  1.00  0.00     0.027 C 
HETATM   17  C   UNL     1      38.010 -13.920  -0.925  1.00  0.00     0.004 C 
HETATM   18  C   UNL     1      37.961 -13.716   0.588  1.00  0.00     0.010 C 
ENDBRANCH   7  13
BRANCH  11  19
HETATM   19  N   UNL     1      40.086 -15.446   4.873  1.00  0.00    -0.282 NA
HETATM   20  H   UNL     1      40.487 -16.350   5.110  1.00  0.00     0.126 HD
HETATM   21  H   UNL     1      40.293 -14.724   5.559  1.00  0.00     0.126 HD
ENDBRANCH  11  19
BRANCH   1  22
HETATM   22  C   UNL     1      41.710 -13.614  -1.450  1.00  0.00    -0.007 A 
HETATM   23  C   UNL     1      42.449 -12.447  -1.216  1.00  0.00     0.014 A 
HETATM   24  C   UNL     1      42.697 -11.545  -2.253  1.00  0.00     0.001 A 
HETATM   25  C   UNL     1      42.201 -11.801  -3.531  1.00  0.00     0.000 A 
HETATM   26  C   UNL     1      41.458 -12.955  -3.771  1.00  0.00     0.001 A 
HETATM   27  C   UNL     1      41.212 -13.859  -2.735  1.00  0.00     0.014 A 
ENDBRANCH   1  22
TORSDOF 3
ENDMDL
MODEL 8
REMARK VINA RESULT:      -8.3      2.946      6.192
REMARK  3 active torsions:
REMARK  status: ('A' for Active; 'I' for Inactive)
REMARK    1  A    between atoms: C_4  and  C_5 
REMARK    2  A    between atoms: C_11  and  C_12 
REMARK    3  A    between atoms: C_21  and  N_22 
ROOT
HETATM    1  C   UNL     1      42.502 -14.378   4.850  1.00  0.00     0.071 A 
HETATM    2  N   UNL     1      41.418 -13.558   4.615  1.00  0.00    -0.274 N 
HETATM    3  H   UNL     1      41.231 -12.652   5.031  1.00  0.00     0.189 HD
HETATM    4  N   UNL     1      40.559 -14.027   3.691  1.00  0.00    -0.148 NA
HETATM    5  C   UNL     1      41.124 -15.173   3.342  1.00  0.00     0.199 A 
HETATM    6  C   UNL     1      42.297 -15.486   4.043  1.00  0.00     0.036 A 
HETATM    7  C   UNL     1      43.038 -16.761   3.775  1.00  0.00     0.079 A 
HETATM    8  C   UNL     1      42.401 -17.466   2.557  1.00  0.00     0.063 A 
HETATM    9  C   UNL     1      43.072 -18.751   2.098  1.00  0.00     0.020 C 
HETATM   10  N   UNL     1      43.627 -19.817   1.716  1.00  0.00    -0.096 N 
HETATM   11  C   UNL     1      41.267 -17.049   1.940  1.00  0.00     0.139 A 
HETATM   12  O   UNL     1      40.577 -15.908   2.357  1.00  0.00    -0.277 OA
ENDROOT
BRANCH   7  13
HETATM   13  C   UNL     1      43.133 -17.744   4.996  1.00  0.00     0.022 C 
HETATM   14  C   UNL     1      44.388 -17.566   5.821  1.00  0.00    -0.025 C 
HETATM   15  C   UNL     1      44.391 -17.379   7.149  1.00  0.00    -0.030 C 
HETATM   16  C   UNL     1      43.144 -17.261   7.968  1.00  0.00     0.027 C 
HETATM   17  C   UNL     1      41.904 -16.971   7.123  1.00  0.00     0.004 C 
HETATM   18  C   UNL     1      41.855 -17.836   5.865  1.00  0.00     0.010 C 
ENDBRANCH   7  13
BRANCH  11  19
HETATM   19  N   UNL     1      40.659 -17.682   0.879  1.00  0.00    -0.282 NA
HETATM   20  H   UNL     1      40.122 -17.090   0.250  1.00  0.00     0.126 HD
HETATM   21  H   UNL     1      41.300 -18.306   0.393  1.00  0.00     0.126 HD
ENDBRANCH  11  19
BRANCH   1  22
HETATM   22  C   UNL     1      43.563 -13.989   5.767  1.00  0.00    -0.007 A 
HETATM   23  C   UNL     1      44.907 -14.117   5.392  1.00  0.00     0.014 A 
HETATM   24  C   UNL     1      45.927 -13.754   6.274  1.00  0.00     0.001 A 
HETATM   25  C   UNL     1      45.610 -13.266   7.540  1.00  0.00     0.000 A 
HETATM   26  C   UNL     1      44.277 -13.141   7.925  1.00  0.00     0.001 A 
HETATM   27  C   UNL     1      43.256 -13.502   7.043  1.00  0.00     0.014 A 
ENDBRANCH   1  22
TORSDOF 3
ENDMDL
MODEL 9
REMARK VINA RESULT:      -8.3      2.312      3.758
REMARK  3 active torsions:
REMARK  status: ('A' for Active; 'I' for Inactive)
REMARK    1  A    between atoms: C_4  and  C_5 
REMARK    2  A    between atoms: C_11  and  C_12 
REMARK    3  A    between atoms: C_21  and  N_22 
ROOT
HETATM    1  C   UNL     1      42.833 -15.855   4.286  1.00  0.00     0.071 A 
HETATM    2  N   UNL     1      42.757 -15.769   5.660  1.00  0.00    -0.274 N 
HETATM    3  H   UNL     1      43.009 -16.482   6.336  1.00  0.00     0.189 HD
HETATM    4  N   UNL     1      42.336 -14.576   6.118  1.00  0.00    -0.148 NA
HETATM    5  C   UNL     1      42.145 -13.898   4.996  1.00  0.00     0.199 A 
HETATM    6  C   UNL     1      42.382 -14.629   3.823  1.00  0.00     0.036 A 
HETATM    7  C   UNL     1      42.186 -14.005   2.474  1.00  0.00     0.079 A 
HETATM    8  C   UNL     1      41.896 -12.499   2.653  1.00  0.00     0.063 A 
HETATM    9  C   UNL     1      41.736 -11.687   1.378  1.00  0.00     0.020 C 
HETATM   10  N   UNL     1      41.604 -11.014   0.320  1.00  0.00    -0.096 N 
HETATM   11  C   UNL     1      41.710 -11.895   3.854  1.00  0.00     0.139 A 
HETATM   12  O   UNL     1      41.788 -12.603   5.056  1.00  0.00    -0.277 OA
ENDROOT
BRANCH   7  13
HETATM   13  C   UNL     1      41.082 -14.679   1.583  1.00  0.00     0.022 C 
HETATM   14  C   UNL     1      41.634 -15.395   0.371  1.00  0.00    -0.025 C 
HETATM   15  C   UNL     1      41.359 -16.670   0.065  1.00  0.00    -0.030 C 
HETATM   16  C   UNL     1      40.518 -17.562   0.924  1.00  0.00     0.027 C 
HETATM   17  C   UNL     1      40.344 -17.026   2.344  1.00  0.00     0.004 C 
HETATM   18  C   UNL     1      40.044 -15.528   2.357  1.00  0.00     0.010 C 
ENDBRANCH   7  13
BRANCH  11  19
HETATM   19  N   UNL     1      41.411 -10.563   4.038  1.00  0.00    -0.282 NA
HETATM   20  H   UNL     1      41.840  -9.912   3.386  1.00  0.00     0.126 HD
HETATM   21  H   UNL     1      40.412 -10.412   4.155  1.00  0.00     0.126 HD
ENDBRANCH  11  19
BRANCH   1  22
HETATM   22  C   UNL     1      43.335 -17.051   3.627  1.00  0.00    -0.007 A 
HETATM   23  C   UNL     1      43.248 -18.299   4.259  1.00  0.00     0.014 A 
HETATM   24  C   UNL     1      43.739 -19.447   3.634  1.00  0.00     0.001 A 
HETATM   25  C   UNL     1      44.327 -19.354   2.373  1.00  0.00     0.000 A 
HETATM   26  C   UNL     1      44.425 -18.117   1.739  1.00  0.00     0.001 A 
HETATM   27  C   UNL     1      43.932 -16.969   2.363  1.00  0.00     0.014 A 
ENDBRANCH   1  22
TORSDOF 3
ENDMDL
MODEL 10
REMARK VINA RESULT:      -8.3      3.621      4.421
REMARK  3 active torsions:
REMARK  status: ('A' for Active; 'I' for Inactive)
REMARK    1  A    between atoms: C_4  and  C_5 
REMARK    2  A    between atoms: C_11  and  C_12 
REMARK    3  A    between atoms: C_21  and  N_22 
ROOT
HETATM    1  C   UNL     1      41.402 -16.018   4.195  1.00  0.00     0.071 A 
HETATM    2  N   UNL     1      40.817 -16.834   5.141  1.00  0.00    -0.274 N 
HETATM    3  H   UNL     1      40.827 -17.848   5.170  1.00  0.00     0.189 HD
HETATM    4  N   UNL     1      40.212 -16.173   6.145  1.00  0.00    -0.148 NA
HETATM    5  C   UNL     1      40.426 -14.908   5.815  1.00  0.00     0.199 A 
HETATM    6  C   UNL     1      41.109 -14.726   4.604  1.00  0.00     0.036 A 
HETATM    7  C   UNL     1      41.405 -13.352   4.085  1.00  0.00     0.079 A 
HETATM    8  C   UNL     1      41.012 -12.313   5.159  1.00  0.00     0.063 A 
HETATM    9  C   UNL     1      41.308 -10.859   4.828  1.00  0.00     0.020 C 
HETATM   10  N   UNL     1      41.552  -9.653   4.555  1.00  0.00    -0.096 N 
HETATM   11  C   UNL     1      40.370 -12.617   6.315  1.00  0.00     0.139 A 
HETATM   12  O   UNL     1      40.023 -13.929   6.644  1.00  0.00    -0.277 OA
ENDROOT
BRANCH   7  13
HETATM   13  C   UNL     1      40.738 -13.003   2.707  1.00  0.00     0.022 C 
HETATM   14  C   UNL     1      41.593 -13.357   1.511  1.00  0.00    -0.025 C 
HETATM   15  C   UNL     1      41.170 -14.107   0.484  1.00  0.00    -0.030 C 
HETATM   16  C   UNL     1      39.814 -14.737   0.426  1.00  0.00     0.027 C 
HETATM   17  C   UNL     1      39.125 -14.787   1.789  1.00  0.00     0.004 C 
HETATM   18  C   UNL     1      39.270 -13.473   2.552  1.00  0.00     0.010 C 
ENDBRANCH   7  13
BRANCH  11  19
HETATM   19  N   UNL     1      39.974 -11.705   7.269  1.00  0.00    -0.282 NA
HETATM   20  H   UNL     1      40.513 -11.695   8.132  1.00  0.00     0.126 HD
HETATM   21  H   UNL     1      39.836 -10.778   6.872  1.00  0.00     0.126 HD
ENDBRANCH  11  19
BRANCH   1  22
HETATM   22  C   UNL     1      42.158 -16.570   3.081  1.00  0.00    -0.007 A 
HETATM   23  C   UNL     1      41.569 -17.502   2.216  1.00  0.00     0.014 A 
HETATM   24  C   UNL     1      42.296 -18.040   1.153  1.00  0.00     0.001 A 
HETATM   25  C   UNL     1      43.620 -17.655   0.949  1.00  0.00     0.000 A 
HETATM   26  C   UNL     1      44.217 -16.734   1.808  1.00  0.00     0.001 A 
HETATM   27  C   UNL     1      43.490 -16.194   2.871  1.00  0.00     0.014 A 
ENDBRANCH   1  22
TORSDOF 3
ENDMDL
