MODEL 1
REMARK VINA RESULT:      -8.1      0.000      0.000
REMARK  7 active torsions:
REMARK  status: ('A' for Active; 'I' for Inactive)
REMARK    1  A    between atoms: C_2  and  C_3 
REMARK    2  A    between atoms: C_3  and  N_4 
REMARK       I    between atoms: N_4  and  C_5 
REMARK    3  A    between atoms: C_5  and  C_6 
REMARK    4  A    between atoms: C_7  and  N_8 
REMARK       I    between atoms: N_8  and  C_9 
REMARK    5  A    between atoms: C_9  and  C_10 
REMARK    6  A    between atoms: C_12  and  O_13 
REMARK    7  A    between atoms: O_13  and  C_14 
ROOT
HETATM    1  N   UNL     1      43.796 -18.055   2.783  1.00  0.00    -0.322 N 
HETATM    2  C   UNL     1      42.712 -17.358   3.289  1.00  0.00     0.256 C 
HETATM    3  O   UNL     1      41.869 -17.807   4.058  1.00  0.00    -0.267 OA
HETATM    4  H   UNL     1      44.614 -17.504   2.554  1.00  0.00     0.169 HD
ENDROOT
BRANCH   1   5
HETATM    5  C   UNL     1      43.992 -19.443   2.963  1.00  0.00     0.050 A 
HETATM    6  C   UNL     1      44.520 -20.039   4.121  1.00  0.00     0.058 A 
HETATM    7  C   UNL     1      44.755 -21.425   4.155  1.00  0.00     0.019 A 
HETATM    8  C   UNL     1      44.448 -22.220   3.052  1.00  0.00     0.001 A 
HETATM    9  C   UNL     1      43.876 -21.642   1.922  1.00  0.00     0.002 A 
HETATM   10  C   UNL     1      43.638 -20.265   1.882  1.00  0.00     0.030 A 
BRANCH   6  11
HETATM   11  C   UNL     1      44.659 -19.309   5.407  1.00  0.00     0.254 C 
HETATM   12  N   UNL     1      43.589 -19.441   6.267  1.00  0.00    -0.353 N 
HETATM   13  H   UNL     1      42.997 -20.249   6.128  1.00  0.00     0.163 HD
HETATM   14  O   UNL     1      45.650 -18.621   5.626  1.00  0.00    -0.268 OA
BRANCH  12  15
HETATM   15  C   UNL     1      43.658 -18.870   7.586  1.00  0.00     0.149 C 
BRANCH  15  16
HETATM   16  C   UNL     1      42.903 -17.579   7.571  1.00  0.00    -0.018 C 
HETATM   17  C   UNL     1      43.448 -16.378   7.339  1.00  0.00     0.008 C 
ENDBRANCH  15  16
ENDBRANCH  12  15
ENDBRANCH   6  11
ENDBRANCH   1   5
BRANCH   2  18
HETATM   18  C   UNL     1      42.683 -15.913   2.950  1.00  0.00     0.037 A 
HETATM   19  C   UNL     1      41.997 -15.515   1.805  1.00  0.00     0.075 A 
HETATM   20  C   UNL     1      41.982 -14.170   1.502  1.00  0.00     0.165 A 
HETATM   21  N   UNL     1      42.584 -13.219   2.247  1.00  0.00    -0.237 NA
HETATM   22  C   UNL     1      43.255 -13.638   3.342  1.00  0.00     0.120 A 
HETATM   23  C   UNL     1      43.336 -14.962   3.735  1.00  0.00     0.036 A 
BRANCH  20  24
HETATM   24  O   UNL     1      41.290 -13.801   0.365  1.00  0.00    -0.329 OA
BRANCH  24  25
HETATM   25  C   UNL     1      41.778 -14.342  -0.880  1.00  0.00     0.130 C 
HETATM   26  C   UNL     1      40.747 -15.088  -1.769  1.00  0.00     0.032 C 
HETATM   27  C   UNL     1      41.385 -14.400  -2.989  1.00  0.00     0.005 C 
HETATM   28  C   UNL     1      41.885 -13.307  -2.030  1.00  0.00     0.032 C 
ENDBRANCH  24  25
ENDBRANCH  20  24
ENDBRANCH   2  18
TORSDOF 7
ENDMDL
MODEL 2
REMARK VINA RESULT:      -8.0      1.306      1.649
REMARK  7 active torsions:
REMARK  status: ('A' for Active; 'I' for Inactive)
REMARK    1  A    between atoms: C_2  and  C_3 
REMARK    2  A    between atoms: C_3  and  N_4 
REMARK       I    between atoms: N_4  and  C_5 
REMARK    3  A    between atoms: C_5  and  C_6 
REMARK    4  A    between atoms: C_7  and  N_8 
REMARK       I    between atoms: N_8  and  C_9 
REMARK    5  A    between atoms: C_9  and  C_10 
REMARK    6  A    between atoms: C_12  and  O_13 
REMARK    7  A    between atoms: O_13  and  C_14 
ROOT
HETATM    1  N   UNL     1      43.806 -18.217   2.823  1.00  0.00    -0.322 N 
HETATM    2  C   UNL     1      42.716 -17.521   3.317  1.00  0.00     0.256 C 
HETATM    3  O   UNL     1      41.896 -17.951   4.121  1.00  0.00    -0.267 OA
HETATM    4  H   UNL     1      44.607 -17.661   2.555  1.00  0.00     0.169 HD
ENDROOT
BRANCH   1   5
HETATM    5  C   UNL     1      44.036 -19.591   3.064  1.00  0.00     0.050 A 
HETATM    6  C   UNL     1      44.572 -20.124   4.249  1.00  0.00     0.058 A 
HETATM    7  C   UNL     1      44.840 -21.501   4.344  1.00  0.00     0.019 A 
HETATM    8  C   UNL     1      44.559 -22.350   3.275  1.00  0.00     0.001 A 
HETATM    9  C   UNL     1      43.979 -21.836   2.119  1.00  0.00     0.002 A 
HETATM   10  C   UNL     1      43.707 -20.468   2.018  1.00  0.00     0.030 A 
BRANCH   6  11
HETATM   11  C   UNL     1      44.686 -19.336   5.503  1.00  0.00     0.254 C 
HETATM   12  N   UNL     1      43.622 -19.470   6.371  1.00  0.00    -0.353 N 
HETATM   13  H   UNL     1      43.061 -20.305   6.267  1.00  0.00     0.163 HD
HETATM   14  O   UNL     1      45.651 -18.604   5.690  1.00  0.00    -0.268 OA
BRANCH  12  15
HETATM   15  C   UNL     1      43.672 -18.843   7.665  1.00  0.00     0.149 C 
BRANCH  15  16
HETATM   16  C   UNL     1      42.888 -17.572   7.592  1.00  0.00    -0.018 C 
HETATM   17  C   UNL     1      43.402 -16.373   7.290  1.00  0.00     0.008 C 
ENDBRANCH  15  16
ENDBRANCH  12  15
ENDBRANCH   6  11
ENDBRANCH   1   5
BRANCH   2  18
HETATM   18  C   UNL     1      42.649 -16.094   2.912  1.00  0.00     0.037 A 
HETATM   19  C   UNL     1      41.828 -15.747   1.842  1.00  0.00     0.075 A 
HETATM   20  C   UNL     1      41.780 -14.418   1.476  1.00  0.00     0.165 A 
HETATM   21  N   UNL     1      42.472 -13.438   2.092  1.00  0.00    -0.237 NA
HETATM   22  C   UNL     1      43.273 -13.808   3.115  1.00  0.00     0.120 A 
HETATM   23  C   UNL     1      43.398 -15.111   3.561  1.00  0.00     0.036 A 
BRANCH  20  24
HETATM   24  O   UNL     1      40.953 -14.100   0.417  1.00  0.00    -0.329 OA
BRANCH  24  25
HETATM   25  C   UNL     1      39.648 -13.588   0.760  1.00  0.00     0.130 C 
HETATM   26  C   UNL     1      38.561 -13.647  -0.347  1.00  0.00     0.032 C 
HETATM   27  C   UNL     1      37.559 -14.080   0.737  1.00  0.00     0.005 C 
HETATM   28  C   UNL     1      38.760 -14.579   1.558  1.00  0.00     0.032 C 
ENDBRANCH  24  25
ENDBRANCH  20  24
ENDBRANCH   2  18
TORSDOF 7
ENDMDL
MODEL 3
REMARK VINA RESULT:      -8.0      2.906      6.219
REMARK  7 active torsions:
REMARK  status: ('A' for Active; 'I' for Inactive)
REMARK    1  A    between atoms: C_2  and  C_3 
REMARK    2  A    between atoms: C_3  and  N_4 
REMARK       I    between atoms: N_4  and  C_5 
REMARK    3  A    between atoms: C_5  and  C_6 
REMARK    4  A    between atoms: C_7  and  N_8 
REMARK       I    between atoms: N_8  and  C_9 
REMARK    5  A    between atoms: C_9  and  C_10 
REMARK    6  A    between atoms: C_12  and  O_13 
REMARK    7  A    between atoms: O_13  and  C_14 
ROOT
HETATM    1  N   UNL     1      43.988 -17.603   4.318  1.00  0.00    -0.322 N 
HETATM    2  C   UNL     1      42.854 -17.151   4.971  1.00  0.00     0.256 C 
HETATM    3  O   UNL     1      41.876 -17.831   5.261  1.00  0.00    -0.267 OA
HETATM    4  H   UNL     1      44.850 -17.117   4.529  1.00  0.00     0.169 HD
ENDROOT
BRANCH   1   5
HETATM    5  C   UNL     1      44.106 -18.893   3.750  1.00  0.00     0.050 A 
HETATM    6  C   UNL     1      43.603 -19.270   2.493  1.00  0.00     0.058 A 
HETATM    7  C   UNL     1      43.702 -20.607   2.067  1.00  0.00     0.019 A 
HETATM    8  C   UNL     1      44.315 -21.561   2.877  1.00  0.00     0.001 A 
HETATM    9  C   UNL     1      44.862 -21.182   4.099  1.00  0.00     0.002 A 
HETATM   10  C   UNL     1      44.770 -19.855   4.528  1.00  0.00     0.030 A 
BRANCH   6  11
HETATM   11  C   UNL     1      43.146 -18.282   1.483  1.00  0.00     0.254 C 
HETATM   12  N   UNL     1      41.796 -17.997   1.519  1.00  0.00    -0.353 N 
HETATM   13  H   UNL     1      41.320 -18.189   2.390  1.00  0.00     0.163 HD
HETATM   14  O   UNL     1      43.937 -17.811   0.673  1.00  0.00    -0.268 OA
BRANCH  12  15
HETATM   15  C   UNL     1      41.259 -16.973   0.664  1.00  0.00     0.149 C 
BRANCH  15  16
HETATM   16  C   UNL     1      40.868 -15.812   1.522  1.00  0.00    -0.018 C 
HETATM   17  C   UNL     1      39.648 -15.624   2.042  1.00  0.00     0.008 C 
ENDBRANCH  15  16
ENDBRANCH  12  15
ENDBRANCH   6  11
ENDBRANCH   1   5
BRANCH   2  18
HETATM   18  C   UNL     1      42.929 -15.751   5.458  1.00  0.00     0.037 A 
HETATM   19  C   UNL     1      43.791 -15.463   6.514  1.00  0.00     0.075 A 
HETATM   20  C   UNL     1      43.847 -14.158   6.959  1.00  0.00     0.165 A 
HETATM   21  N   UNL     1      43.126 -13.147   6.430  1.00  0.00    -0.237 NA
HETATM   22  C   UNL     1      42.287 -13.461   5.419  1.00  0.00     0.120 A 
HETATM   23  C   UNL     1      42.151 -14.736   4.899  1.00  0.00     0.036 A 
BRANCH  20  24
HETATM   24  O   UNL     1      44.714 -13.899   8.002  1.00  0.00    -0.329 OA
BRANCH  24  25
HETATM   25  C   UNL     1      44.696 -12.553   8.523  1.00  0.00     0.130 C 
HETATM   26  C   UNL     1      44.531 -12.402  10.059  1.00  0.00     0.032 C 
HETATM   27  C   UNL     1      45.586 -11.284  10.006  1.00  0.00     0.005 C 
HETATM   28  C   UNL     1      46.099 -11.917   8.702  1.00  0.00     0.032 C 
ENDBRANCH  24  25
ENDBRANCH  20  24
ENDBRANCH   2  18
TORSDOF 7
ENDMDL
MODEL 4
REMARK VINA RESULT:      -7.8      2.595      4.446
REMARK  7 active torsions:
REMARK  status: ('A' for Active; 'I' for Inactive)
REMARK    1  A    between atoms: C_2  and  C_3 
REMARK    2  A    between atoms: C_3  and  N_4 
REMARK       I    between atoms: N_4  and  C_5 
REMARK    3  A    between atoms: C_5  and  C_6 
REMARK    4  A    between atoms: C_7  and  N_8 
REMARK       I    between atoms: N_8  and  C_9 
REMARK    5  A    between atoms: C_9  and  C_10 
REMARK    6  A    between atoms: C_12  and  O_13 
REMARK    7  A    between atoms: O_13  and  C_14 
ROOT
HETATM    1  N   UNL     1      44.225 -18.073   4.324  1.00  0.00    -0.322 N 
HETATM    2  C   UNL     1      43.095 -17.443   4.819  1.00  0.00     0.256 C 
HETATM    3  O   UNL     1      41.965 -17.917   4.841  1.00  0.00    -0.267 OA
HETATM    4  H   UNL     1      45.106 -17.807   4.745  1.00  0.00     0.169 HD
ENDROOT
BRANCH   1   5
HETATM    5  C   UNL     1      44.198 -19.301   3.625  1.00  0.00     0.050 A 
HETATM    6  C   UNL     1      43.574 -19.509   2.382  1.00  0.00     0.058 A 
HETATM    7  C   UNL     1      43.534 -20.797   1.821  1.00  0.00     0.019 A 
HETATM    8  C   UNL     1      44.128 -21.872   2.479  1.00  0.00     0.001 A 
HETATM    9  C   UNL     1      44.794 -21.662   3.684  1.00  0.00     0.002 A 
HETATM   10  C   UNL     1      44.840 -20.383   4.247  1.00  0.00     0.030 A 
BRANCH   6  11
HETATM   11  C   UNL     1      43.122 -18.390   1.515  1.00  0.00     0.254 C 
HETATM   12  N   UNL     1      41.777 -18.094   1.604  1.00  0.00    -0.353 N 
HETATM   13  H   UNL     1      41.307 -18.392   2.448  1.00  0.00     0.163 HD
HETATM   14  O   UNL     1      43.912 -17.829   0.765  1.00  0.00    -0.268 OA
BRANCH  12  15
HETATM   15  C   UNL     1      41.247 -16.960   0.896  1.00  0.00     0.149 C 
BRANCH  15  16
HETATM   16  C   UNL     1      40.783 -15.960   1.907  1.00  0.00    -0.018 C 
HETATM   17  C   UNL     1      39.533 -15.488   1.995  1.00  0.00     0.008 C 
ENDBRANCH  15  16
ENDBRANCH  12  15
ENDBRANCH   6  11
ENDBRANCH   1   5
BRANCH   2  18
HETATM   18  C   UNL     1      43.346 -16.143   5.489  1.00  0.00     0.037 A 
HETATM   19  C   UNL     1      42.691 -15.013   5.006  1.00  0.00     0.075 A 
HETATM   20  C   UNL     1      42.937 -13.811   5.637  1.00  0.00     0.165 A 
HETATM   21  N   UNL     1      43.766 -13.665   6.692  1.00  0.00    -0.237 NA
HETATM   22  C   UNL     1      44.400 -14.776   7.125  1.00  0.00     0.120 A 
HETATM   23  C   UNL     1      44.229 -16.029   6.564  1.00  0.00     0.036 A 
BRANCH  20  24
HETATM   24  O   UNL     1      42.269 -12.707   5.144  1.00  0.00    -0.329 OA
BRANCH  24  25
HETATM   25  C   UNL     1      41.123 -12.978   4.311  1.00  0.00     0.130 C 
HETATM   26  C   UNL     1      39.728 -12.681   4.925  1.00  0.00     0.032 C 
HETATM   27  C   UNL     1      39.311 -12.105   3.560  1.00  0.00     0.005 C 
HETATM   28  C   UNL     1      40.804 -11.866   3.277  1.00  0.00     0.032 C 
ENDBRANCH  24  25
ENDBRANCH  20  24
ENDBRANCH   2  18
TORSDOF 7
ENDMDL
MODEL 5
REMARK VINA RESULT:      -7.8      1.841      2.133
REMARK  7 active torsions:
REMARK  status: ('A' for Active; 'I' for Inactive)
REMARK    1  A    between atoms: C_2  and  C_3 
REMARK    2  A    between atoms: C_3  and  N_4 
REMARK       I    between atoms: N_4  and  C_5 
REMARK    3  A    between atoms: C_5  and  C_6 
REMARK    4  A    between atoms: C_7  and  N_8 
REMARK       I    between atoms: N_8  and  C_9 
REMARK    5  A    between atoms: C_9  and  C_10 
REMARK    6  A    between atoms: C_12  and  O_13 
REMARK    7  A    between atoms: O_13  and  C_14 
ROOT
HETATM    1  N   UNL     1      42.236 -18.572   2.201  1.00  0.00    -0.322 N 
HETATM    2  C   UNL     1      42.485 -17.536   1.317  1.00  0.00     0.256 C 
HETATM    3  O   UNL     1      43.439 -17.464   0.550  1.00  0.00    -0.267 OA
HETATM    4  H   UNL     1      41.264 -18.743   2.426  1.00  0.00     0.169 HD
ENDROOT
BRANCH   1   5
HETATM    5  C   UNL     1      43.144 -19.625   2.454  1.00  0.00     0.050 A 
HETATM    6  C   UNL     1      44.168 -19.593   3.417  1.00  0.00     0.058 A 
HETATM    7  C   UNL     1      45.070 -20.667   3.521  1.00  0.00     0.019 A 
HETATM    8  C   UNL     1      44.946 -21.776   2.687  1.00  0.00     0.001 A 
HETATM    9  C   UNL     1      43.902 -21.836   1.768  1.00  0.00     0.002 A 
HETATM   10  C   UNL     1      42.999 -20.774   1.661  1.00  0.00     0.030 A 
BRANCH   6  11
HETATM   11  C   UNL     1      44.231 -18.565   4.486  1.00  0.00     0.254 C 
HETATM   12  N   UNL     1      44.918 -18.948   5.620  1.00  0.00    -0.353 N 
HETATM   13  H   UNL     1      45.583 -19.701   5.509  1.00  0.00     0.163 HD
HETATM   14  O   UNL     1      43.667 -17.486   4.344  1.00  0.00    -0.268 OA
BRANCH  12  15
HETATM   15  C   UNL     1      45.140 -17.997   6.676  1.00  0.00     0.149 C 
BRANCH  15  16
HETATM   16  C   UNL     1      44.073 -18.193   7.706  1.00  0.00    -0.018 C 
HETATM   17  C   UNL     1      43.156 -17.276   8.040  1.00  0.00     0.008 C 
ENDBRANCH  15  16
ENDBRANCH  12  15
ENDBRANCH   6  11
ENDBRANCH   1   5
BRANCH   2  18
HETATM   18  C   UNL     1      41.411 -16.515   1.230  1.00  0.00     0.037 A 
HETATM   19  C   UNL     1      41.389 -15.670   0.124  1.00  0.00     0.075 A 
HETATM   20  C   UNL     1      40.387 -14.723   0.059  1.00  0.00     0.165 A 
HETATM   21  N   UNL     1      39.428 -14.572   0.996  1.00  0.00    -0.237 NA
HETATM   22  C   UNL     1      39.486 -15.396   2.066  1.00  0.00     0.120 A 
HETATM   23  C   UNL     1      40.448 -16.376   2.231  1.00  0.00     0.036 A 
BRANCH  20  24
HETATM   24  O   UNL     1      40.384 -13.903  -1.051  1.00  0.00    -0.329 OA
BRANCH  24  25
HETATM   25  C   UNL     1      41.641 -13.768  -1.746  1.00  0.00     0.130 C 
HETATM   26  C   UNL     1      41.570 -13.451  -3.264  1.00  0.00     0.032 C 
HETATM   27  C   UNL     1      42.738 -12.472  -3.058  1.00  0.00     0.005 C 
HETATM   28  C   UNL     1      42.320 -12.383  -1.581  1.00  0.00     0.032 C 
ENDBRANCH  24  25
ENDBRANCH  20  24
ENDBRANCH   2  18
TORSDOF 7
ENDMDL
MODEL 6
REMARK VINA RESULT:      -7.7      2.001      3.637
REMARK  7 active torsions:
REMARK  status: ('A' for Active; 'I' for Inactive)
REMARK    1  A    between atoms: C_2  and  C_3 
REMARK    2  A    between atoms: C_3  and  N_4 
REMARK       I    between atoms: N_4  and  C_5 
REMARK    3  A    between atoms: C_5  and  C_6 
REMARK    4  A    between atoms: C_7  and  N_8 
REMARK       I    between atoms: N_8  and  C_9 
REMARK    5  A    between atoms: C_9  and  C_10 
REMARK    6  A    between atoms: C_12  and  O_13 
REMARK    7  A    between atoms: O_13  and  C_14 
ROOT
HETATM    1  N   UNL     1      43.634 -18.023   2.848  1.00  0.00    -0.322 N 
HETATM    2  C   UNL     1      42.560 -17.389   3.449  1.00  0.00     0.256 C 
HETATM    3  O   UNL     1      41.784 -17.900   4.250  1.00  0.00    -0.267 OA
HETATM    4  H   UNL     1      44.415 -17.432   2.591  1.00  0.00     0.169 HD
ENDROOT
BRANCH   1   5
HETATM    5  C   UNL     1      43.892 -19.408   2.959  1.00  0.00     0.050 A 
HETATM    6  C   UNL     1      44.489 -20.031   4.068  1.00  0.00     0.058 A 
HETATM    7  C   UNL     1      44.779 -21.407   4.032  1.00  0.00     0.019 A 
HETATM    8  C   UNL     1      44.460 -22.165   2.907  1.00  0.00     0.001 A 
HETATM    9  C   UNL     1      43.821 -21.564   1.827  1.00  0.00     0.002 A 
HETATM   10  C   UNL     1      43.527 -20.197   1.857  1.00  0.00     0.030 A 
BRANCH   6  11
HETATM   11  C   UNL     1      44.650 -19.351   5.379  1.00  0.00     0.254 C 
HETATM   12  N   UNL     1      43.602 -19.533   6.259  1.00  0.00    -0.353 N 
HETATM   13  H   UNL     1      43.019 -20.343   6.101  1.00  0.00     0.163 HD
HETATM   14  O   UNL     1      45.637 -18.659   5.602  1.00  0.00    -0.268 OA
BRANCH  12  15
HETATM   15  C   UNL     1      43.697 -19.015   7.598  1.00  0.00     0.149 C 
BRANCH  15  16
HETATM   16  C   UNL     1      42.985 -17.700   7.636  1.00  0.00    -0.018 C 
HETATM   17  C   UNL     1      43.585 -16.505   7.565  1.00  0.00     0.008 C 
ENDBRANCH  15  16
ENDBRANCH  12  15
ENDBRANCH   6  11
ENDBRANCH   1   5
BRANCH   2  18
HETATM   18  C   UNL     1      42.456 -15.934   3.172  1.00  0.00     0.037 A 
HETATM   19  C   UNL     1      42.498 -15.051   4.248  1.00  0.00     0.075 A 
HETATM   20  C   UNL     1      42.397 -13.703   3.975  1.00  0.00     0.165 A 
HETATM   21  N   UNL     1      42.267 -13.190   2.733  1.00  0.00    -0.237 NA
HETATM   22  C   UNL     1      42.212 -14.072   1.712  1.00  0.00     0.120 A 
HETATM   23  C   UNL     1      42.301 -15.443   1.875  1.00  0.00     0.036 A 
BRANCH  20  24
HETATM   24  O   UNL     1      42.447 -12.848   5.058  1.00  0.00    -0.329 OA
BRANCH  24  25
HETATM   25  C   UNL     1      41.229 -12.138   5.366  1.00  0.00     0.130 C 
HETATM   26  C   UNL     1      40.070 -12.972   5.974  1.00  0.00     0.032 C 
HETATM   27  C   UNL     1      39.799 -11.796   6.928  1.00  0.00     0.005 C 
HETATM   28  C   UNL     1      41.259 -11.366   6.711  1.00  0.00     0.032 C 
ENDBRANCH  24  25
ENDBRANCH  20  24
ENDBRANCH   2  18
TORSDOF 7
ENDMDL
MODEL 7
REMARK VINA RESULT:      -7.7      2.218      3.618
REMARK  7 active torsions:
REMARK  status: ('A' for Active; 'I' for Inactive)
REMARK    1  A    between atoms: C_2  and  C_3 
REMARK    2  A    between atoms: C_3  and  N_4 
REMARK       I    between atoms: N_4  and  C_5 
REMARK    3  A    between atoms: C_5  and  C_6 
REMARK    4  A    between atoms: C_7  and  N_8 
REMARK       I    between atoms: N_8  and  C_9 
REMARK    5  A    between atoms: C_9  and  C_10 
REMARK    6  A    between atoms: C_12  and  O_13 
REMARK    7  A    between atoms: O_13  and  C_14 
ROOT
HETATM    1  N   UNL     1      42.402 -18.594   2.060  1.00  0.00    -0.322 N 
HETATM    2  C   UNL     1      42.856 -17.512   1.325  1.00  0.00     0.256 C 
HETATM    3  O   UNL     1      43.956 -17.421   0.791  1.00  0.00    -0.267 OA
HETATM    4  H   UNL     1      41.402 -18.748   2.057  1.00  0.00     0.169 HD
ENDROOT
BRANCH   1   5
HETATM    5  C   UNL     1      43.214 -19.690   2.431  1.00  0.00     0.050 A 
HETATM    6  C   UNL     1      44.068 -19.721   3.547  1.00  0.00     0.058 A 
HETATM    7  C   UNL     1      44.898 -20.833   3.769  1.00  0.00     0.019 A 
HETATM    8  C   UNL     1      44.868 -21.921   2.898  1.00  0.00     0.001 A 
HETATM    9  C   UNL     1      43.986 -21.918   1.820  1.00  0.00     0.002 A 
HETATM   10  C   UNL     1      43.156 -20.816   1.595  1.00  0.00     0.030 A 
BRANCH   6  11
HETATM   11  C   UNL     1      43.996 -18.716   4.639  1.00  0.00     0.254 C 
HETATM   12  N   UNL     1      45.007 -18.801   5.574  1.00  0.00    -0.353 N 
HETATM   13  H   UNL     1      45.854 -19.266   5.277  1.00  0.00     0.163 HD
HETATM   14  O   UNL     1      43.067 -17.916   4.686  1.00  0.00    -0.268 OA
BRANCH  12  15
HETATM   15  C   UNL     1      45.104 -17.812   6.613  1.00  0.00     0.149 C 
BRANCH  15  16
HETATM   16  C   UNL     1      44.144 -18.185   7.698  1.00  0.00    -0.018 C 
HETATM   17  C   UNL     1      43.374 -17.318   8.368  1.00  0.00     0.008 C 
ENDBRANCH  15  16
ENDBRANCH  12  15
ENDBRANCH   6  11
ENDBRANCH   1   5
BRANCH   2  18
HETATM   18  C   UNL     1      41.845 -16.453   1.079  1.00  0.00     0.037 A 
HETATM   19  C   UNL     1      41.092 -15.994   2.157  1.00  0.00     0.075 A 
HETATM   20  C   UNL     1      40.154 -15.013   1.912  1.00  0.00     0.165 A 
HETATM   21  N   UNL     1      39.927 -14.470   0.697  1.00  0.00    -0.237 NA
HETATM   22  C   UNL     1      40.661 -14.948  -0.330  1.00  0.00     0.120 A 
HETATM   23  C   UNL     1      41.625 -15.932  -0.196  1.00  0.00     0.036 A 
BRANCH  20  24
HETATM   24  O   UNL     1      39.426 -14.570   2.998  1.00  0.00    -0.329 OA
BRANCH  24  25
HETATM   25  C   UNL     1      40.178 -13.927   4.048  1.00  0.00     0.130 C 
HETATM   26  C   UNL     1      39.558 -12.645   4.667  1.00  0.00     0.032 C 
HETATM   27  C   UNL     1      40.011 -13.157   6.044  1.00  0.00     0.005 C 
HETATM   28  C   UNL     1      40.009 -14.575   5.448  1.00  0.00     0.032 C 
ENDBRANCH  24  25
ENDBRANCH  20  24
ENDBRANCH   2  18
TORSDOF 7
ENDMDL
MODEL 8
REMARK VINA RESULT:      -7.4      1.981      7.080
REMARK  7 active torsions:
REMARK  status: ('A' for Active; 'I' for Inactive)
REMARK    1  A    between atoms: C_2  and  C_3 
REMARK    2  A    between atoms: C_3  and  N_4 
REMARK       I    between atoms: N_4  and  C_5 
REMARK    3  A    between atoms: C_5  and  C_6 
REMARK    4  A    between atoms: C_7  and  N_8 
REMARK       I    between atoms: N_8  and  C_9 
REMARK    5  A    between atoms: C_9  and  C_10 
REMARK    6  A    between atoms: C_12  and  O_13 
REMARK    7  A    between atoms: O_13  and  C_14 
ROOT
HETATM    1  N   UNL     1      42.048 -17.406   1.342  1.00  0.00    -0.322 N 
HETATM    2  C   UNL     1      43.388 -17.563   1.651  1.00  0.00     0.256 C 
HETATM    3  O   UNL     1      44.248 -16.693   1.567  1.00  0.00    -0.267 OA
HETATM    4  H   UNL     1      41.400 -17.995   1.848  1.00  0.00     0.169 HD
ENDROOT
BRANCH   1   5
HETATM    5  C   UNL     1      41.512 -16.249   0.731  1.00  0.00     0.050 A 
HETATM    6  C   UNL     1      41.042 -15.117   1.419  1.00  0.00     0.058 A 
HETATM    7  C   UNL     1      40.446 -14.059   0.711  1.00  0.00     0.019 A 
HETATM    8  C   UNL     1      40.335 -14.113  -0.677  1.00  0.00     0.001 A 
HETATM    9  C   UNL     1      40.847 -15.208  -1.369  1.00  0.00     0.002 A 
HETATM   10  C   UNL     1      41.442 -16.263  -0.671  1.00  0.00     0.030 A 
BRANCH   6  11
HETATM   11  C   UNL     1      41.325 -14.879   2.858  1.00  0.00     0.254 C 
HETATM   12  N   UNL     1      40.375 -15.377   3.726  1.00  0.00    -0.353 N 
HETATM   13  H   UNL     1      39.790 -16.122   3.372  1.00  0.00     0.163 HD
HETATM   14  O   UNL     1      42.319 -14.248   3.198  1.00  0.00    -0.268 OA
BRANCH  12  15
HETATM   15  C   UNL     1      40.598 -15.305   5.146  1.00  0.00     0.149 C 
BRANCH  15  16
HETATM   16  C   UNL     1      41.419 -16.489   5.546  1.00  0.00    -0.018 C 
HETATM   17  C   UNL     1      41.076 -17.766   5.328  1.00  0.00     0.008 C 
ENDBRANCH  15  16
ENDBRANCH  12  15
ENDBRANCH   6  11
ENDBRANCH   1   5
BRANCH   2  18
HETATM   18  C   UNL     1      43.742 -18.872   2.255  1.00  0.00     0.037 A 
HETATM   19  C   UNL     1      44.166 -18.895   3.581  1.00  0.00     0.075 A 
HETATM   20  C   UNL     1      44.495 -20.119   4.127  1.00  0.00     0.165 A 
HETATM   21  N   UNL     1      44.425 -21.289   3.459  1.00  0.00    -0.237 NA
HETATM   22  C   UNL     1      44.027 -21.231   2.170  1.00  0.00     0.120 A 
HETATM   23  C   UNL     1      43.678 -20.059   1.523  1.00  0.00     0.036 A 
BRANCH  20  24
HETATM   24  O   UNL     1      44.905 -20.115   5.446  1.00  0.00    -0.329 OA
BRANCH  24  25
HETATM   25  C   UNL     1      44.119 -19.317   6.354  1.00  0.00     0.130 C 
HETATM   26  C   UNL     1      43.857 -19.915   7.763  1.00  0.00     0.032 C 
HETATM   27  C   UNL     1      44.099 -18.512   8.343  1.00  0.00     0.005 C 
HETATM   28  C   UNL     1      44.913 -18.198   7.077  1.00  0.00     0.032 C 
ENDBRANCH  24  25
ENDBRANCH  20  24
ENDBRANCH   2  18
TORSDOF 7
ENDMDL
MODEL 9
REMARK VINA RESULT:      -7.3      1.889      2.465
REMARK  7 active torsions:
REMARK  status: ('A' for Active; 'I' for Inactive)
REMARK    1  A    between atoms: C_2  and  C_3 
REMARK    2  A    between atoms: C_3  and  N_4 
REMARK       I    between atoms: N_4  and  C_5 
REMARK    3  A    between atoms: C_5  and  C_6 
REMARK    4  A    between atoms: C_7  and  N_8 
REMARK       I    between atoms: N_8  and  C_9 
REMARK    5  A    between atoms: C_9  and  C_10 
REMARK    6  A    between atoms: C_12  and  O_13 
REMARK    7  A    between atoms: O_13  and  C_14 
ROOT
HETATM    1  N   UNL     1      42.314 -17.946   2.631  1.00  0.00    -0.322 N 
HETATM    2  C   UNL     1      42.672 -17.045   1.642  1.00  0.00     0.256 C 
HETATM    3  O   UNL     1      43.742 -17.030   1.042  1.00  0.00    -0.267 OA
HETATM    4  H   UNL     1      41.325 -18.144   2.718  1.00  0.00     0.169 HD
ENDROOT
BRANCH   1   5
HETATM    5  C   UNL     1      43.204 -18.885   3.199  1.00  0.00     0.050 A 
HETATM    6  C   UNL     1      43.746 -18.802   4.494  1.00  0.00     0.058 A 
HETATM    7  C   UNL     1      44.693 -19.748   4.923  1.00  0.00     0.019 A 
HETATM    8  C   UNL     1      45.087 -20.785   4.079  1.00  0.00     0.001 A 
HETATM    9  C   UNL     1      44.514 -20.903   2.816  1.00  0.00     0.002 A 
HETATM   10  C   UNL     1      43.570 -19.967   2.383  1.00  0.00     0.030 A 
BRANCH   6  11
HETATM   11  C   UNL     1      43.216 -17.874   5.526  1.00  0.00     0.254 C 
HETATM   12  N   UNL     1      44.175 -17.291   6.329  1.00  0.00    -0.353 N 
HETATM   13  H   UNL     1      45.114 -17.257   5.954  1.00  0.00     0.163 HD
HETATM   14  O   UNL     1      42.008 -17.702   5.645  1.00  0.00    -0.268 OA
BRANCH  12  15
HETATM   15  C   UNL     1      43.791 -16.292   7.289  1.00  0.00     0.149 C 
BRANCH  15  16
HETATM   16  C   UNL     1      44.032 -14.948   6.679  1.00  0.00    -0.018 C 
HETATM   17  C   UNL     1      44.940 -14.063   7.112  1.00  0.00     0.008 C 
ENDBRANCH  15  16
ENDBRANCH  12  15
ENDBRANCH   6  11
ENDBRANCH   1   5
BRANCH   2  18
HETATM   18  C   UNL     1      41.591 -16.123   1.213  1.00  0.00     0.037 A 
HETATM   19  C   UNL     1      41.818 -15.305   0.110  1.00  0.00     0.075 A 
HETATM   20  C   UNL     1      40.806 -14.450  -0.274  1.00  0.00     0.165 A 
HETATM   21  N   UNL     1      39.611 -14.364   0.348  1.00  0.00    -0.237 NA
HETATM   22  C   UNL     1      39.428 -15.158   1.426  1.00  0.00     0.120 A 
HETATM   23  C   UNL     1      40.377 -16.048   1.897  1.00  0.00     0.036 A 
BRANCH  20  24
HETATM   24  O   UNL     1      41.054 -13.655  -1.375  1.00  0.00    -0.329 OA
BRANCH  24  25
HETATM   25  C   UNL     1      40.917 -14.291  -2.663  1.00  0.00     0.130 C 
HETATM   26  C   UNL     1      40.528 -15.795  -2.661  1.00  0.00     0.032 C 
HETATM   27  C   UNL     1      39.588 -15.496  -3.841  1.00  0.00     0.005 C 
HETATM   28  C   UNL     1      39.557 -14.034  -3.365  1.00  0.00     0.032 C 
ENDBRANCH  24  25
ENDBRANCH  20  24
ENDBRANCH   2  18
TORSDOF 7
ENDMDL
MODEL 10
REMARK VINA RESULT:      -7.2      2.263      4.735
REMARK  7 active torsions:
REMARK  status: ('A' for Active; 'I' for Inactive)
REMARK    1  A    between atoms: C_2  and  C_3 
REMARK    2  A    between atoms: C_3  and  N_4 
REMARK       I    between atoms: N_4  and  C_5 
REMARK    3  A    between atoms: C_5  and  C_6 
REMARK    4  A    between atoms: C_7  and  N_8 
REMARK       I    between atoms: N_8  and  C_9 
REMARK    5  A    between atoms: C_9  and  C_10 
REMARK    6  A    between atoms: C_12  and  O_13 
REMARK    7  A    between atoms: O_13  and  C_14 
ROOT
HETATM    1  N   UNL     1      41.289 -15.289   2.433  1.00  0.00    -0.322 N 
HETATM    2  C   UNL     1      42.098 -14.262   1.975  1.00  0.00     0.256 C 
HETATM    3  O   UNL     1      43.068 -13.799   2.564  1.00  0.00    -0.267 OA
HETATM    4  H   UNL     1      40.845 -15.858   1.724  1.00  0.00     0.169 HD
ENDROOT
BRANCH   1   5
HETATM    5  C   UNL     1      41.381 -15.843   3.730  1.00  0.00     0.050 A 
HETATM    6  C   UNL     1      42.072 -17.023   4.056  1.00  0.00     0.058 A 
HETATM    7  C   UNL     1      42.022 -17.530   5.366  1.00  0.00     0.019 A 
HETATM    8  C   UNL     1      41.305 -16.859   6.355  1.00  0.00     0.001 A 
HETATM    9  C   UNL     1      40.662 -15.662   6.050  1.00  0.00     0.002 A 
HETATM   10  C   UNL     1      40.710 -15.151   4.750  1.00  0.00     0.030 A 
BRANCH   6  11
HETATM   11  C   UNL     1      43.037 -17.669   3.129  1.00  0.00     0.254 C 
HETATM   12  N   UNL     1      42.760 -18.987   2.828  1.00  0.00    -0.353 N 
HETATM   13  H   UNL     1      41.803 -19.285   2.959  1.00  0.00     0.163 HD
HETATM   14  O   UNL     1      44.013 -17.050   2.719  1.00  0.00    -0.268 OA
BRANCH  12  15
HETATM   15  C   UNL     1      43.560 -19.681   1.855  1.00  0.00     0.149 C 
BRANCH  15  16
HETATM   16  C   UNL     1      44.358 -20.724   2.572  1.00  0.00    -0.018 C 
HETATM   17  C   UNL     1      44.362 -22.027   2.266  1.00  0.00     0.008 C 
ENDBRANCH  15  16
ENDBRANCH  12  15
ENDBRANCH   6  11
ENDBRANCH   1   5
BRANCH   2  18
HETATM   18  C   UNL     1      41.807 -13.805   0.593  1.00  0.00     0.037 A 
HETATM   19  C   UNL     1      41.319 -14.735  -0.323  1.00  0.00     0.075 A 
HETATM   20  C   UNL     1      41.057 -14.296  -1.604  1.00  0.00     0.165 A 
HETATM   21  N   UNL     1      41.238 -13.025  -2.020  1.00  0.00    -0.237 NA
HETATM   22  C   UNL     1      41.728 -12.151  -1.114  1.00  0.00     0.120 A 
HETATM   23  C   UNL     1      42.027 -12.486   0.195  1.00  0.00     0.036 A 
BRANCH  20  24
HETATM   24  O   UNL     1      40.569 -15.236  -2.490  1.00  0.00    -0.329 OA
BRANCH  24  25
HETATM   25  C   UNL     1      39.549 -14.779  -3.403  1.00  0.00     0.130 C 
HETATM   26  C   UNL     1      38.798 -15.869  -4.213  1.00  0.00     0.032 C 
HETATM   27  C   UNL     1      37.501 -15.079  -3.967  1.00  0.00     0.005 C 
HETATM   28  C   UNL     1      38.185 -14.462  -2.736  1.00  0.00     0.032 C 
ENDBRANCH  24  25
ENDBRANCH  20  24
ENDBRANCH   2  18
TORSDOF 7
ENDMDL
