MODEL 1
REMARK VINA RESULT:     -10.4      0.000      0.000
REMARK  7 active torsions:
REMARK  status: ('A' for Active; 'I' for Inactive)
REMARK    1  A    between atoms: C_2  and  C_3 
REMARK    2  A    between atoms: C_6  and  N_7 
REMARK       I    between atoms: N_7  and  C_8 
REMARK       I    between atoms: C_8  and  N_9 
REMARK    3  A    between atoms: N_13  and  C_14 
REMARK    4  A    between atoms: N_21  and  C_22 
REMARK    5  A    between atoms: C_22  and  C_23 
REMARK       I    between atoms: C_23  and  N_24 
REMARK    6  A    between atoms: N_24  and  C_25 
REMARK    7  A    between atoms: C_25  and  C_26 
ROOT
HETATM    1  N   UNL     1      40.218 -14.577  -0.007  1.00  0.00    -0.309 N 
HETATM    2  C   UNL     1      39.796 -15.101   1.194  1.00  0.00     0.322 C 
HETATM    3  N   UNL     1      40.813 -15.315   2.134  1.00  0.00    -0.334 N 
HETATM    4  C   UNL     1      40.393 -15.777   3.455  1.00  0.00     0.130 C 
HETATM    5  C   UNL     1      41.378 -16.777   4.044  1.00  0.00     0.061 C 
HETATM    6  C   UNL     1      42.840 -16.310   3.937  1.00  0.00     0.118 C 
HETATM    7  N   UNL     1      43.799 -17.405   4.283  1.00  0.00    -0.346 N 
HETATM    8  C   UNL     1      44.327 -17.212   5.631  1.00  0.00     0.254 C 
HETATM    9  N   UNL     1      43.948 -15.879   5.986  1.00  0.00    -0.325 N 
HETATM   10  C   UNL     1      43.070 -15.310   5.089  1.00  0.00     0.250 C 
HETATM   11  O   UNL     1      42.534 -14.219   5.224  1.00  0.00    -0.270 OA
HETATM   12  C   UNL     1      43.218 -15.608   2.625  1.00  0.00     0.061 C 
HETATM   13  C   UNL     1      42.126 -14.666   2.125  1.00  0.00     0.130 C 
HETATM   14  O   UNL     1      38.627 -15.377   1.451  1.00  0.00    -0.247 OA
HETATM   15  H   UNL     1      41.195 -14.679  -0.221  1.00  0.00     0.170 HD
ENDROOT
BRANCH   7  16
HETATM   16  C   UNL     1      43.898 -18.649   3.676  1.00  0.00     0.032 A 
HETATM   17  C   UNL     1      43.400 -18.922   2.390  1.00  0.00     0.029 A 
HETATM   18  C   UNL     1      43.480 -20.191   1.796  1.00  0.00     0.002 A 
HETATM   19  C   UNL     1      44.088 -21.239   2.470  1.00  0.00     0.000 A 
HETATM   20  C   UNL     1      44.622 -21.009   3.728  1.00  0.00     0.002 A 
HETATM   21  C   UNL     1      44.533 -19.736   4.312  1.00  0.00     0.029 A 
ENDBRANCH   7  16
BRANCH   9  22
HETATM   22  C   UNL     1      44.065 -15.409   7.356  1.00  0.00     0.230 C 
BRANCH  22  23
HETATM   23  C   UNL     1      44.712 -14.039   7.538  1.00  0.00     0.235 C 
HETATM   24  N   UNL     1      44.239 -13.293   8.589  1.00  0.00    -0.354 N 
HETATM   25  H   UNL     1      43.540 -13.679   9.213  1.00  0.00     0.162 HD
HETATM   26  O   UNL     1      45.687 -13.696   6.872  1.00  0.00    -0.272 OA
BRANCH  24  27
HETATM   27  C   UNL     1      44.941 -12.099   8.997  1.00  0.00     0.187 C 
BRANCH  27  28
HETATM   28  C   UNL     1      44.395 -11.546  10.261  1.00  0.00     0.070 A 
HETATM   29  O   UNL     1      43.847 -12.413  11.165  1.00  0.00    -0.325 OA
HETATM   30  C   UNL     1      43.417 -11.669  12.217  1.00  0.00     0.142 A 
HETATM   31  C   UNL     1      43.685 -10.337  12.008  1.00  0.00     0.027 A 
HETATM   32  C   UNL     1      44.318 -10.255  10.746  1.00  0.00     0.036 A 
ENDBRANCH  27  28
ENDBRANCH  24  27
ENDBRANCH  22  23
ENDBRANCH   9  22
BRANCH   1  33
HETATM   33  C   UNL     1      39.421 -14.071  -1.057  1.00  0.00     0.036 A 
HETATM   34  C   UNL     1      39.399 -14.594  -2.349  1.00  0.00     0.030 A 
HETATM   35  C   UNL     1      38.546 -14.060  -3.323  1.00  0.00     0.010 A 
HETATM   36  C   UNL     1      37.675 -13.006  -3.020  1.00  0.00    -0.055 A 
HETATM   37  C   UNL     1      37.713 -12.471  -1.727  1.00  0.00     0.010 A 
HETATM   38  C   UNL     1      38.578 -12.995  -0.758  1.00  0.00     0.030 A 
BRANCH  36  39
HETATM   39  C   UNL     1      36.719 -12.427  -4.047  1.00  0.00     0.010 C 
HETATM   40  C   UNL     1      35.774 -11.373  -3.462  1.00  0.00     0.015 C 
HETATM   41  C   UNL     1      35.926 -13.540  -4.735  1.00  0.00     0.015 C 
ENDBRANCH  36  39
ENDBRANCH   1  33
TORSDOF 7
ENDMDL
MODEL 2
REMARK VINA RESULT:     -10.0      3.201      7.997
REMARK  7 active torsions:
REMARK  status: ('A' for Active; 'I' for Inactive)
REMARK    1  A    between atoms: C_2  and  C_3 
REMARK    2  A    between atoms: C_6  and  N_7 
REMARK       I    between atoms: N_7  and  C_8 
REMARK       I    between atoms: C_8  and  N_9 
REMARK    3  A    between atoms: N_13  and  C_14 
REMARK    4  A    between atoms: N_21  and  C_22 
REMARK    5  A    between atoms: C_22  and  C_23 
REMARK       I    between atoms: C_23  and  N_24 
REMARK    6  A    between atoms: N_24  and  C_25 
REMARK    7  A    between atoms: C_25  and  C_26 
ROOT
HETATM    1  N   UNL     1      42.225 -16.491   3.726  1.00  0.00    -0.309 N 
HETATM    2  C   UNL     1      42.685 -15.216   3.489  1.00  0.00     0.322 C 
HETATM    3  N   UNL     1      41.893 -14.193   4.027  1.00  0.00    -0.334 N 
HETATM    4  C   UNL     1      42.400 -12.831   3.882  1.00  0.00     0.130 C 
HETATM    5  C   UNL     1      41.278 -11.834   3.624  1.00  0.00     0.061 C 
HETATM    6  C   UNL     1      40.095 -12.002   4.593  1.00  0.00     0.118 C 
HETATM    7  N   UNL     1      38.909 -11.196   4.166  1.00  0.00    -0.346 N 
HETATM    8  C   UNL     1      38.797  -9.988   4.979  1.00  0.00     0.254 C 
HETATM    9  N   UNL     1      39.695 -10.197   6.073  1.00  0.00    -0.325 N 
HETATM   10  C   UNL     1      40.498 -11.305   5.908  1.00  0.00     0.250 C 
HETATM   11  O   UNL     1      41.404 -11.636   6.660  1.00  0.00    -0.270 OA
HETATM   12  C   UNL     1      39.714 -13.451   4.928  1.00  0.00     0.061 C 
HETATM   13  C   UNL     1      40.931 -14.352   5.120  1.00  0.00     0.130 C 
HETATM   14  O   UNL     1      43.704 -14.960   2.852  1.00  0.00    -0.247 OA
HETATM   15  H   UNL     1      41.255 -16.577   3.975  1.00  0.00     0.170 HD
ENDROOT
BRANCH   7  16
HETATM   16  C   UNL     1      38.241 -11.274   2.952  1.00  0.00     0.032 A 
HETATM   17  C   UNL     1      38.322 -12.387   2.097  1.00  0.00     0.029 A 
HETATM   18  C   UNL     1      37.665 -12.444   0.859  1.00  0.00     0.002 A 
HETATM   19  C   UNL     1      36.877 -11.384   0.437  1.00  0.00     0.000 A 
HETATM   20  C   UNL     1      36.743 -10.277   1.262  1.00  0.00     0.002 A 
HETATM   21  C   UNL     1      37.408 -10.231   2.496  1.00  0.00     0.029 A 
ENDBRANCH   7  16
BRANCH   9  22
HETATM   22  C   UNL     1      40.059  -9.105   6.960  1.00  0.00     0.230 C 
BRANCH  22  23
HETATM   23  C   UNL     1      40.381  -9.494   8.400  1.00  0.00     0.235 C 
HETATM   24  N   UNL     1      41.715  -9.596   8.705  1.00  0.00    -0.354 N 
HETATM   25  H   UNL     1      42.415  -9.371   8.006  1.00  0.00     0.162 HD
HETATM   26  O   UNL     1      39.501  -9.569   9.257  1.00  0.00    -0.272 OA
BRANCH  24  27
HETATM   27  C   UNL     1      42.132  -9.717  10.082  1.00  0.00     0.187 C 
BRANCH  27  28
HETATM   28  C   UNL     1      43.441 -10.405  10.201  1.00  0.00     0.070 A 
HETATM   29  O   UNL     1      44.012 -10.916   9.068  1.00  0.00    -0.325 OA
HETATM   30  C   UNL     1      45.182 -11.495   9.440  1.00  0.00     0.142 A 
HETATM   31  C   UNL     1      45.377 -11.363  10.794  1.00  0.00     0.027 A 
HETATM   32  C   UNL     1      44.255 -10.658  11.287  1.00  0.00     0.036 A 
ENDBRANCH  27  28
ENDBRANCH  24  27
ENDBRANCH  22  23
ENDBRANCH   9  22
BRANCH   1  33
HETATM   33  C   UNL     1      42.898 -17.710   3.493  1.00  0.00     0.036 A 
HETATM   34  C   UNL     1      43.786 -18.300   4.390  1.00  0.00     0.030 A 
HETATM   35  C   UNL     1      44.380 -19.536   4.102  1.00  0.00     0.010 A 
HETATM   36  C   UNL     1      44.079 -20.223   2.919  1.00  0.00    -0.055 A 
HETATM   37  C   UNL     1      43.201 -19.619   2.012  1.00  0.00     0.010 A 
HETATM   38  C   UNL     1      42.620 -18.376   2.294  1.00  0.00     0.030 A 
BRANCH  36  39
HETATM   39  C   UNL     1      44.685 -21.576   2.594  1.00  0.00     0.010 C 
HETATM   40  C   UNL     1      44.109 -22.202   1.319  1.00  0.00     0.015 C 
HETATM   41  C   UNL     1      44.537 -22.533   3.779  1.00  0.00     0.015 C 
ENDBRANCH  36  39
ENDBRANCH   1  33
TORSDOF 7
ENDMDL
MODEL 3
REMARK VINA RESULT:      -9.4      3.170     10.327
REMARK  7 active torsions:
REMARK  status: ('A' for Active; 'I' for Inactive)
REMARK    1  A    between atoms: C_2  and  C_3 
REMARK    2  A    between atoms: C_6  and  N_7 
REMARK       I    between atoms: N_7  and  C_8 
REMARK       I    between atoms: C_8  and  N_9 
REMARK    3  A    between atoms: N_13  and  C_14 
REMARK    4  A    between atoms: N_21  and  C_22 
REMARK    5  A    between atoms: C_22  and  C_23 
REMARK       I    between atoms: C_23  and  N_24 
REMARK    6  A    between atoms: N_24  and  C_25 
REMARK    7  A    between atoms: C_25  and  C_26 
ROOT
HETATM    1  N   UNL     1      40.969 -11.401   8.425  1.00  0.00    -0.309 N 
HETATM    2  C   UNL     1      41.539 -11.225   7.185  1.00  0.00     0.322 C 
HETATM    3  N   UNL     1      40.981 -12.005   6.163  1.00  0.00    -0.334 N 
HETATM    4  C   UNL     1      41.493 -11.774   4.814  1.00  0.00     0.130 C 
HETATM    5  C   UNL     1      41.589 -13.068   4.017  1.00  0.00     0.061 C 
HETATM    6  C   UNL     1      40.313 -13.922   4.107  1.00  0.00     0.118 C 
HETATM    7  N   UNL     1      40.519 -15.290   3.537  1.00  0.00    -0.346 N 
HETATM    8  C   UNL     1      39.925 -15.381   2.206  1.00  0.00     0.254 C 
HETATM    9  N   UNL     1      39.109 -14.211   2.087  1.00  0.00    -0.325 N 
HETATM   10  C   UNL     1      39.303 -13.312   3.114  1.00  0.00     0.250 C 
HETATM   11  O   UNL     1      38.792 -12.203   3.184  1.00  0.00    -0.270 OA
HETATM   12  C   UNL     1      39.643 -13.969   5.487  1.00  0.00     0.061 C 
HETATM   13  C   UNL     1      39.651 -12.616   6.193  1.00  0.00     0.130 C 
HETATM   14  O   UNL     1      42.471 -10.457   6.959  1.00  0.00    -0.247 OA
HETATM   15  H   UNL     1      40.445 -12.248   8.561  1.00  0.00     0.170 HD
ENDROOT
BRANCH   7  16
HETATM   16  C   UNL     1      41.464 -16.225   3.935  1.00  0.00     0.032 A 
HETATM   17  C   UNL     1      41.346 -16.990   5.108  1.00  0.00     0.029 A 
HETATM   18  C   UNL     1      42.321 -17.913   5.515  1.00  0.00     0.002 A 
HETATM   19  C   UNL     1      43.452 -18.120   4.741  1.00  0.00     0.000 A 
HETATM   20  C   UNL     1      43.596 -17.411   3.559  1.00  0.00     0.002 A 
HETATM   21  C   UNL     1      42.616 -16.489   3.164  1.00  0.00     0.029 A 
ENDBRANCH   7  16
BRANCH   9  22
HETATM   22  C   UNL     1      38.560 -13.810   0.803  1.00  0.00     0.230 C 
BRANCH  22  23
HETATM   23  C   UNL     1      39.549 -13.765  -0.359  1.00  0.00     0.235 C 
HETATM   24  N   UNL     1      40.794 -13.271  -0.062  1.00  0.00    -0.354 N 
HETATM   25  H   UNL     1      41.023 -13.008   0.891  1.00  0.00     0.162 HD
HETATM   26  O   UNL     1      39.284 -14.272  -1.448  1.00  0.00    -0.272 OA
BRANCH  24  27
HETATM   27  C   UNL     1      41.870 -13.409  -1.015  1.00  0.00     0.187 C 
BRANCH  27  28
HETATM   28  C   UNL     1      42.379 -12.089  -1.464  1.00  0.00     0.070 A 
HETATM   29  O   UNL     1      43.220 -11.402  -0.633  1.00  0.00    -0.325 OA
HETATM   30  C   UNL     1      43.531 -10.238  -1.260  1.00  0.00     0.142 A 
HETATM   31  C   UNL     1      42.908 -10.166  -2.484  1.00  0.00     0.027 A 
HETATM   32  C   UNL     1      42.165 -11.362  -2.617  1.00  0.00     0.036 A 
ENDBRANCH  27  28
ENDBRANCH  24  27
ENDBRANCH  22  23
ENDBRANCH   9  22
BRANCH   1  33
HETATM   33  C   UNL     1      41.171 -10.625   9.588  1.00  0.00     0.036 A 
HETATM   34  C   UNL     1      40.367  -9.551   9.964  1.00  0.00     0.030 A 
HETATM   35  C   UNL     1      40.609  -8.859  11.158  1.00  0.00     0.010 A 
HETATM   36  C   UNL     1      41.647  -9.243  12.016  1.00  0.00    -0.055 A 
HETATM   37  C   UNL     1      42.465 -10.310  11.626  1.00  0.00     0.010 A 
HETATM   38  C   UNL     1      42.231 -10.991  10.425  1.00  0.00     0.030 A 
BRANCH  36  39
HETATM   39  C   UNL     1      41.915  -8.530  13.330  1.00  0.00     0.010 C 
HETATM   40  C   UNL     1      43.067  -9.151  14.127  1.00  0.00     0.015 C 
HETATM   41  C   UNL     1      40.644  -8.466  14.178  1.00  0.00     0.015 C 
ENDBRANCH  36  39
ENDBRANCH   1  33
TORSDOF 7
ENDMDL
MODEL 4
REMARK VINA RESULT:      -9.3      3.618      9.824
REMARK  7 active torsions:
REMARK  status: ('A' for Active; 'I' for Inactive)
REMARK    1  A    between atoms: C_2  and  C_3 
REMARK    2  A    between atoms: C_6  and  N_7 
REMARK       I    between atoms: N_7  and  C_8 
REMARK       I    between atoms: C_8  and  N_9 
REMARK    3  A    between atoms: N_13  and  C_14 
REMARK    4  A    between atoms: N_21  and  C_22 
REMARK    5  A    between atoms: C_22  and  C_23 
REMARK       I    between atoms: C_23  and  N_24 
REMARK    6  A    between atoms: N_24  and  C_25 
REMARK    7  A    between atoms: C_25  and  C_26 
ROOT
HETATM    1  N   UNL     1      42.892 -16.019   4.508  1.00  0.00    -0.309 N 
HETATM    2  C   UNL     1      41.573 -15.657   4.663  1.00  0.00     0.322 C 
HETATM    3  N   UNL     1      41.345 -14.276   4.732  1.00  0.00    -0.334 N 
HETATM    4  C   UNL     1      39.949 -13.848   4.797  1.00  0.00     0.130 C 
HETATM    5  C   UNL     1      39.770 -12.642   5.708  1.00  0.00     0.061 C 
HETATM    6  C   UNL     1      40.794 -11.527   5.433  1.00  0.00     0.118 C 
HETATM    7  N   UNL     1      40.765 -10.474   6.495  1.00  0.00    -0.346 N 
HETATM    8  C   UNL     1      40.052  -9.292   6.019  1.00  0.00     0.254 C 
HETATM    9  N   UNL     1      39.916  -9.487   4.608  1.00  0.00    -0.325 N 
HETATM   10  C   UNL     1      40.283 -10.752   4.202  1.00  0.00     0.250 C 
HETATM   11  O   UNL     1      40.169 -11.186   3.064  1.00  0.00    -0.270 OA
HETATM   12  C   UNL     1      42.222 -12.000   5.131  1.00  0.00     0.061 C 
HETATM   13  C   UNL     1      42.257 -13.240   4.242  1.00  0.00     0.130 C 
HETATM   14  O   UNL     1      40.645 -16.457   4.745  1.00  0.00    -0.247 OA
HETATM   15  H   UNL     1      43.578 -15.328   4.758  1.00  0.00     0.170 HD
ENDROOT
BRANCH   7  16
HETATM   16  C   UNL     1      40.966 -10.656   7.856  1.00  0.00     0.032 A 
HETATM   17  C   UNL     1      39.920 -10.899   8.764  1.00  0.00     0.029 A 
HETATM   18  C   UNL     1      40.130 -11.055  10.143  1.00  0.00     0.002 A 
HETATM   19  C   UNL     1      41.413 -10.993  10.664  1.00  0.00     0.000 A 
HETATM   20  C   UNL     1      42.479 -10.786   9.802  1.00  0.00     0.002 A 
HETATM   21  C   UNL     1      42.255 -10.629   8.426  1.00  0.00     0.029 A 
ENDBRANCH   7  16
BRANCH   9  22
HETATM   22  C   UNL     1      39.030  -8.649   3.820  1.00  0.00     0.230 C 
BRANCH  22  23
HETATM   23  C   UNL     1      37.736  -9.306   3.348  1.00  0.00     0.235 C 
HETATM   24  N   UNL     1      37.721  -9.720   2.039  1.00  0.00    -0.354 N 
HETATM   25  H   UNL     1      38.553  -9.624   1.466  1.00  0.00     0.162 HD
HETATM   26  O   UNL     1      36.827  -9.572   4.133  1.00  0.00    -0.272 OA
BRANCH  24  27
HETATM   27  C   UNL     1      36.651 -10.565   1.563  1.00  0.00     0.187 C 
BRANCH  27  28
HETATM   28  C   UNL     1      37.166 -11.709   0.770  1.00  0.00     0.070 A 
HETATM   29  O   UNL     1      37.124 -11.625  -0.594  1.00  0.00    -0.325 OA
HETATM   30  C   UNL     1      37.636 -12.785  -1.078  1.00  0.00     0.142 A 
HETATM   31  C   UNL     1      38.013 -13.614  -0.048  1.00  0.00     0.027 A 
HETATM   32  C   UNL     1      37.711 -12.920   1.146  1.00  0.00     0.036 A 
ENDBRANCH  27  28
ENDBRANCH  24  27
ENDBRANCH  22  23
ENDBRANCH   9  22
BRANCH   1  33
HETATM   33  C   UNL     1      43.407 -17.299   4.208  1.00  0.00     0.036 A 
HETATM   34  C   UNL     1      43.853 -18.210   5.164  1.00  0.00     0.030 A 
HETATM   35  C   UNL     1      44.310 -19.479   4.786  1.00  0.00     0.010 A 
HETATM   36  C   UNL     1      44.308 -19.876   3.443  1.00  0.00    -0.055 A 
HETATM   37  C   UNL     1      43.877 -18.952   2.484  1.00  0.00     0.010 A 
HETATM   38  C   UNL     1      43.435 -17.678   2.861  1.00  0.00     0.030 A 
BRANCH  36  39
HETATM   39  C   UNL     1      44.770 -21.255   3.008  1.00  0.00     0.010 C 
HETATM   40  C   UNL     1      44.025 -21.776   1.774  1.00  0.00     0.015 C 
HETATM   41  C   UNL     1      44.662 -22.251   4.164  1.00  0.00     0.015 C 
ENDBRANCH  36  39
ENDBRANCH   1  33
TORSDOF 7
ENDMDL
MODEL 5
REMARK VINA RESULT:      -9.2      4.151      9.571
REMARK  7 active torsions:
REMARK  status: ('A' for Active; 'I' for Inactive)
REMARK    1  A    between atoms: C_2  and  C_3 
REMARK    2  A    between atoms: C_6  and  N_7 
REMARK       I    between atoms: N_7  and  C_8 
REMARK       I    between atoms: C_8  and  N_9 
REMARK    3  A    between atoms: N_13  and  C_14 
REMARK    4  A    between atoms: N_21  and  C_22 
REMARK    5  A    between atoms: C_22  and  C_23 
REMARK       I    between atoms: C_23  and  N_24 
REMARK    6  A    between atoms: N_24  and  C_25 
REMARK    7  A    between atoms: C_25  and  C_26 
ROOT
HETATM    1  N   UNL     1      42.848 -16.161   4.766  1.00  0.00    -0.309 N 
HETATM    2  C   UNL     1      41.535 -15.878   5.067  1.00  0.00     0.322 C 
HETATM    3  N   UNL     1      41.217 -14.514   5.096  1.00  0.00    -0.334 N 
HETATM    4  C   UNL     1      39.812 -14.177   5.316  1.00  0.00     0.130 C 
HETATM    5  C   UNL     1      39.657 -12.935   6.182  1.00  0.00     0.061 C 
HETATM    6  C   UNL     1      40.556 -11.772   5.726  1.00  0.00     0.118 C 
HETATM    7  N   UNL     1      40.580 -10.663   6.729  1.00  0.00    -0.346 N 
HETATM    8  C   UNL     1      39.729  -9.561   6.290  1.00  0.00     0.254 C 
HETATM    9  N   UNL     1      39.437  -9.846   4.918  1.00  0.00    -0.325 N 
HETATM   10  C   UNL     1      39.843 -11.105   4.531  1.00  0.00     0.250 C 
HETATM   11  O   UNL     1      39.622 -11.611   3.440  1.00  0.00    -0.270 OA
HETATM   12  C   UNL     1      41.967 -12.165   5.269  1.00  0.00     0.061 C 
HETATM   13  C   UNL     1      41.984 -13.450   4.445  1.00  0.00     0.130 C 
HETATM   14  O   UNL     1      40.685 -16.733   5.305  1.00  0.00    -0.247 OA
HETATM   15  H   UNL     1      43.507 -15.412   4.893  1.00  0.00     0.170 HD
ENDROOT
BRANCH   7  16
HETATM   16  C   UNL     1      40.958 -10.752   8.062  1.00  0.00     0.032 A 
HETATM   17  C   UNL     1      40.041 -10.920   9.114  1.00  0.00     0.029 A 
HETATM   18  C   UNL     1      40.431 -10.982  10.460  1.00  0.00     0.002 A 
HETATM   19  C   UNL     1      41.772 -10.898  10.802  1.00  0.00     0.000 A 
HETATM   20  C   UNL     1      42.716 -10.764   9.796  1.00  0.00     0.002 A 
HETATM   21  C   UNL     1      42.312 -10.701   8.454  1.00  0.00     0.029 A 
ENDBRANCH   7  16
BRANCH   9  22
HETATM   22  C   UNL     1      38.402  -9.116   4.207  1.00  0.00     0.230 C 
BRANCH  22  23
HETATM   23  C   UNL     1      38.874  -8.273   3.025  1.00  0.00     0.235 C 
HETATM   24  N   UNL     1      40.195  -8.415   2.683  1.00  0.00    -0.354 N 
HETATM   25  H   UNL     1      40.779  -9.083   3.174  1.00  0.00     0.162 HD
HETATM   26  O   UNL     1      38.082  -7.623   2.343  1.00  0.00    -0.272 OA
BRANCH  24  27
HETATM   27  C   UNL     1      40.682  -7.858   1.443  1.00  0.00     0.187 C 
BRANCH  27  28
HETATM   28  C   UNL     1      41.565  -8.809   0.723  1.00  0.00     0.070 A 
HETATM   29  O   UNL     1      41.286 -10.145   0.807  1.00  0.00    -0.325 OA
HETATM   30  C   UNL     1      42.232 -10.793   0.081  1.00  0.00     0.142 A 
HETATM   31  C   UNL     1      43.114  -9.897  -0.475  1.00  0.00     0.027 A 
HETATM   32  C   UNL     1      42.684  -8.614  -0.062  1.00  0.00     0.036 A 
ENDBRANCH  27  28
ENDBRANCH  24  27
ENDBRANCH  22  23
ENDBRANCH   9  22
BRANCH   1  33
HETATM   33  C   UNL     1      43.415 -17.418   4.466  1.00  0.00     0.036 A 
HETATM   34  C   UNL     1      44.136 -18.191   5.376  1.00  0.00     0.030 A 
HETATM   35  C   UNL     1      44.629 -19.451   5.012  1.00  0.00     0.010 A 
HETATM   36  C   UNL     1      44.390 -19.978   3.737  1.00  0.00    -0.055 A 
HETATM   37  C   UNL     1      43.682 -19.192   2.821  1.00  0.00     0.010 A 
HETATM   38  C   UNL     1      43.203 -17.926   3.180  1.00  0.00     0.030 A 
BRANCH  36  39
HETATM   39  C   UNL     1      44.887 -21.353   3.325  1.00  0.00     0.010 C 
HETATM   40  C   UNL     1      44.223 -21.874   2.047  1.00  0.00     0.015 C 
HETATM   41  C   UNL     1      44.716 -22.354   4.469  1.00  0.00     0.015 C 
ENDBRANCH  36  39
ENDBRANCH   1  33
TORSDOF 7
ENDMDL
MODEL 6
REMARK VINA RESULT:      -9.1      3.062     11.344
REMARK  7 active torsions:
REMARK  status: ('A' for Active; 'I' for Inactive)
REMARK    1  A    between atoms: C_2  and  C_3 
REMARK    2  A    between atoms: C_6  and  N_7 
REMARK       I    between atoms: N_7  and  C_8 
REMARK       I    between atoms: C_8  and  N_9 
REMARK    3  A    between atoms: N_13  and  C_14 
REMARK    4  A    between atoms: N_21  and  C_22 
REMARK    5  A    between atoms: C_22  and  C_23 
REMARK       I    between atoms: C_23  and  N_24 
REMARK    6  A    between atoms: N_24  and  C_25 
REMARK    7  A    between atoms: C_25  and  C_26 
ROOT
HETATM    1  N   UNL     1      41.096 -10.925   9.331  1.00  0.00    -0.309 N 
HETATM    2  C   UNL     1      41.577 -10.582   8.088  1.00  0.00     0.322 C 
HETATM    3  N   UNL     1      40.935 -11.212   7.013  1.00  0.00    -0.334 N 
HETATM    4  C   UNL     1      41.350 -10.800   5.674  1.00  0.00     0.130 C 
HETATM    5  C   UNL     1      41.369 -11.972   4.703  1.00  0.00     0.061 C 
HETATM    6  C   UNL     1      40.089 -12.824   4.768  1.00  0.00     0.118 C 
HETATM    7  N   UNL     1      40.233 -14.101   4.003  1.00  0.00    -0.346 N 
HETATM    8  C   UNL     1      39.542 -14.004   2.720  1.00  0.00     0.254 C 
HETATM    9  N   UNL     1      38.738 -12.825   2.823  1.00  0.00    -0.325 N 
HETATM   10  C   UNL     1      39.019 -12.077   3.946  1.00  0.00     0.250 C 
HETATM   11  O   UNL     1      38.531 -10.987   4.205  1.00  0.00    -0.270 OA
HETATM   12  C   UNL     1      39.521 -13.058   6.175  1.00  0.00     0.061 C 
HETATM   13  C   UNL     1      39.601 -11.815   7.058  1.00  0.00     0.130 C 
HETATM   14  O   UNL     1      42.501  -9.795   7.901  1.00  0.00    -0.247 OA
HETATM   15  H   UNL     1      40.571 -11.781   9.388  1.00  0.00     0.170 HD
ENDROOT
BRANCH   7  16
HETATM   16  C   UNL     1      41.190 -15.086   4.197  1.00  0.00     0.032 A 
HETATM   17  C   UNL     1      42.341 -15.212   3.400  1.00  0.00     0.029 A 
HETATM   18  C   UNL     1      43.290 -16.229   3.588  1.00  0.00     0.002 A 
HETATM   19  C   UNL     1      43.127 -17.155   4.606  1.00  0.00     0.000 A 
HETATM   20  C   UNL     1      42.023 -17.052   5.438  1.00  0.00     0.002 A 
HETATM   21  C   UNL     1      41.081 -16.032   5.238  1.00  0.00     0.029 A 
ENDBRANCH   7  16
BRANCH   9  22
HETATM   22  C   UNL     1      38.103 -12.249   1.650  1.00  0.00     0.230 C 
BRANCH  22  23
HETATM   23  C   UNL     1      37.697 -13.237   0.560  1.00  0.00     0.235 C 
HETATM   24  N   UNL     1      38.188 -12.973  -0.695  1.00  0.00    -0.354 N 
HETATM   25  H   UNL     1      38.818 -12.192  -0.840  1.00  0.00     0.162 HD
HETATM   26  O   UNL     1      37.089 -14.273   0.825  1.00  0.00    -0.272 OA
BRANCH  24  27
HETATM   27  C   UNL     1      38.070 -13.965  -1.737  1.00  0.00     0.187 C 
BRANCH  27  28
HETATM   28  C   UNL     1      39.391 -14.310  -2.319  1.00  0.00     0.070 A 
HETATM   29  O   UNL     1      40.481 -13.582  -1.931  1.00  0.00    -0.325 OA
HETATM   30  C   UNL     1      41.550 -14.081  -2.604  1.00  0.00     0.142 A 
HETATM   31  C   UNL     1      41.168 -15.122  -3.416  1.00  0.00     0.027 A 
HETATM   32  C   UNL     1      39.774 -15.272  -3.233  1.00  0.00     0.036 A 
ENDBRANCH  27  28
ENDBRANCH  24  27
ENDBRANCH  22  23
ENDBRANCH   9  22
BRANCH   1  33
HETATM   33  C   UNL     1      41.394 -10.318  10.571  1.00  0.00     0.036 A 
HETATM   34  C   UNL     1      40.815  -9.134  11.024  1.00  0.00     0.030 A 
HETATM   35  C   UNL     1      41.133  -8.620  12.288  1.00  0.00     0.010 A 
HETATM   36  C   UNL     1      42.019  -9.293  13.138  1.00  0.00    -0.055 A 
HETATM   37  C   UNL     1      42.613 -10.471  12.673  1.00  0.00     0.010 A 
HETATM   38  C   UNL     1      42.307 -10.976  11.403  1.00  0.00     0.030 A 
BRANCH  36  39
HETATM   39  C   UNL     1      42.359  -8.774  14.524  1.00  0.00     0.010 C 
HETATM   40  C   UNL     1      42.043  -9.780  15.637  1.00  0.00     0.015 C 
HETATM   41  C   UNL     1      41.659  -7.440  14.789  1.00  0.00     0.015 C 
ENDBRANCH  36  39
ENDBRANCH   1  33
TORSDOF 7
ENDMDL
MODEL 7
REMARK VINA RESULT:      -9.0      3.799      4.419
REMARK  7 active torsions:
REMARK  status: ('A' for Active; 'I' for Inactive)
REMARK    1  A    between atoms: C_2  and  C_3 
REMARK    2  A    between atoms: C_6  and  N_7 
REMARK       I    between atoms: N_7  and  C_8 
REMARK       I    between atoms: C_8  and  N_9 
REMARK    3  A    between atoms: N_13  and  C_14 
REMARK    4  A    between atoms: N_21  and  C_22 
REMARK    5  A    between atoms: C_22  and  C_23 
REMARK       I    between atoms: C_23  and  N_24 
REMARK    6  A    between atoms: N_24  and  C_25 
REMARK    7  A    between atoms: C_25  and  C_26 
ROOT
HETATM    1  N   UNL     1      41.935 -11.668  -0.944  1.00  0.00    -0.309 N 
HETATM    2  C   UNL     1      40.798 -12.245  -0.425  1.00  0.00     0.322 C 
HETATM    3  N   UNL     1      40.826 -12.465   0.959  1.00  0.00    -0.334 N 
HETATM    4  C   UNL     1      39.601 -12.984   1.561  1.00  0.00     0.130 C 
HETATM    5  C   UNL     1      39.897 -13.978   2.676  1.00  0.00     0.061 C 
HETATM    6  C   UNL     1      40.959 -13.468   3.665  1.00  0.00     0.118 C 
HETATM    7  N   UNL     1      41.417 -14.548   4.593  1.00  0.00    -0.346 N 
HETATM    8  C   UNL     1      40.795 -14.389   5.905  1.00  0.00     0.254 C 
HETATM    9  N   UNL     1      40.219 -13.080   5.882  1.00  0.00    -0.325 N 
HETATM   10  C   UNL     1      40.239 -12.504   4.630  1.00  0.00     0.250 C 
HETATM   11  O   UNL     1      39.724 -11.433   4.340  1.00  0.00    -0.270 OA
HETATM   12  C   UNL     1      42.138 -12.710   3.039  1.00  0.00     0.061 C 
HETATM   13  C   UNL     1      41.707 -11.781   1.907  1.00  0.00     0.130 C 
HETATM   14  O   UNL     1      39.819 -12.561  -1.097  1.00  0.00    -0.247 OA
HETATM   15  H   UNL     1      42.766 -11.735  -0.383  1.00  0.00     0.170 HD
ENDROOT
BRANCH   7  16
HETATM   16  C   UNL     1      41.980 -15.767   4.241  1.00  0.00     0.032 A 
HETATM   17  C   UNL     1      43.046 -15.891   3.334  1.00  0.00     0.029 A 
HETATM   18  C   UNL     1      43.590 -17.131   2.963  1.00  0.00     0.002 A 
HETATM   19  C   UNL     1      43.091 -18.302   3.510  1.00  0.00     0.000 A 
HETATM   20  C   UNL     1      42.059 -18.227   4.433  1.00  0.00     0.002 A 
HETATM   21  C   UNL     1      41.523 -16.982   4.794  1.00  0.00     0.029 A 
ENDBRANCH   7  16
BRANCH   9  22
HETATM   22  C   UNL     1      39.286 -12.656   6.912  1.00  0.00     0.230 C 
BRANCH  22  23
HETATM   23  C   UNL     1      39.697 -11.427   7.718  1.00  0.00     0.235 C 
HETATM   24  N   UNL     1      41.021 -11.364   8.074  1.00  0.00    -0.354 N 
HETATM   25  H   UNL     1      41.666 -12.082   7.762  1.00  0.00     0.162 HD
HETATM   26  O   UNL     1      38.919 -10.493   7.907  1.00  0.00    -0.272 OA
BRANCH  24  27
HETATM   27  C   UNL     1      41.563 -10.142   8.619  1.00  0.00     0.187 C 
BRANCH  27  28
HETATM   28  C   UNL     1      42.717 -10.404   9.514  1.00  0.00     0.070 A 
HETATM   29  O   UNL     1      43.914 -10.746   8.947  1.00  0.00    -0.325 OA
HETATM   30  C   UNL     1      44.793 -10.941   9.964  1.00  0.00     0.142 A 
HETATM   31  C   UNL     1      44.184 -10.725  11.177  1.00  0.00     0.027 A 
HETATM   32  C   UNL     1      42.844 -10.378  10.889  1.00  0.00     0.036 A 
ENDBRANCH  27  28
ENDBRANCH  24  27
ENDBRANCH  22  23
ENDBRANCH   9  22
BRANCH   1  33
HETATM   33  C   UNL     1      42.124 -11.146  -2.242  1.00  0.00     0.036 A 
HETATM   34  C   UNL     1      42.298 -11.927  -3.384  1.00  0.00     0.030 A 
HETATM   35  C   UNL     1      42.435 -11.331  -4.644  1.00  0.00     0.010 A 
HETATM   36  C   UNL     1      42.378  -9.940  -4.795  1.00  0.00    -0.055 A 
HETATM   37  C   UNL     1      42.222  -9.158  -3.644  1.00  0.00     0.010 A 
HETATM   38  C   UNL     1      42.100  -9.754  -2.382  1.00  0.00     0.030 A 
BRANCH  36  39
HETATM   39  C   UNL     1      42.495  -9.268  -6.151  1.00  0.00     0.010 C 
HETATM   40  C   UNL     1      42.918  -7.798  -6.060  1.00  0.00     0.015 C 
HETATM   41  C   UNL     1      41.190  -9.406  -6.937  1.00  0.00     0.015 C 
ENDBRANCH  36  39
ENDBRANCH   1  33
TORSDOF 7
ENDMDL
MODEL 8
REMARK VINA RESULT:      -8.9      3.696      8.832
REMARK  7 active torsions:
REMARK  status: ('A' for Active; 'I' for Inactive)
REMARK    1  A    between atoms: C_2  and  C_3 
REMARK    2  A    between atoms: C_6  and  N_7 
REMARK       I    between atoms: N_7  and  C_8 
REMARK       I    between atoms: C_8  and  N_9 
REMARK    3  A    between atoms: N_13  and  C_14 
REMARK    4  A    between atoms: N_21  and  C_22 
REMARK    5  A    between atoms: C_22  and  C_23 
REMARK       I    between atoms: C_23  and  N_24 
REMARK    6  A    between atoms: N_24  and  C_25 
REMARK    7  A    between atoms: C_25  and  C_26 
ROOT
HETATM    1  N   UNL     1      42.313 -16.521   2.104  1.00  0.00    -0.309 N 
HETATM    2  C   UNL     1      42.620 -15.217   2.417  1.00  0.00     0.322 C 
HETATM    3  N   UNL     1      41.701 -14.266   1.952  1.00  0.00    -0.334 N 
HETATM    4  C   UNL     1      41.940 -12.880   2.348  1.00  0.00     0.130 C 
HETATM    5  C   UNL     1      41.586 -11.905   1.233  1.00  0.00     0.061 C 
HETATM    6  C   UNL     1      40.210 -12.189   0.605  1.00  0.00     0.118 C 
HETATM    7  N   UNL     1      39.995 -11.392  -0.642  1.00  0.00    -0.346 N 
HETATM    8  C   UNL     1      39.117 -10.256  -0.375  1.00  0.00     0.254 C 
HETATM    9  N   UNL     1      38.559 -10.519   0.916  1.00  0.00    -0.325 N 
HETATM   10  C   UNL     1      39.158 -11.583   1.556  1.00  0.00     0.250 C 
HETATM   11  O   UNL     1      38.918 -11.941   2.701  1.00  0.00    -0.270 OA
HETATM   12  C   UNL     1      39.865 -13.672   0.408  1.00  0.00     0.061 C 
HETATM   13  C   UNL     1      40.312 -14.542   1.579  1.00  0.00     0.130 C 
HETATM   14  O   UNL     1      43.619 -14.877   3.045  1.00  0.00    -0.247 OA
HETATM   15  H   UNL     1      41.667 -16.659   1.347  1.00  0.00     0.170 HD
ENDROOT
BRANCH   7  16
HETATM   16  C   UNL     1      40.787 -11.397  -1.782  1.00  0.00     0.032 A 
HETATM   17  C   UNL     1      40.767 -12.435  -2.730  1.00  0.00     0.029 A 
HETATM   18  C   UNL     1      41.593 -12.444  -3.865  1.00  0.00     0.002 A 
HETATM   19  C   UNL     1      42.462 -11.390  -4.104  1.00  0.00     0.000 A 
HETATM   20  C   UNL     1      42.493 -10.329  -3.212  1.00  0.00     0.002 A 
HETATM   21  C   UNL     1      41.665 -10.334  -2.080  1.00  0.00     0.029 A 
ENDBRANCH   7  16
BRANCH   9  22
HETATM   22  C   UNL     1      37.838  -9.488   1.642  1.00  0.00     0.230 C 
BRANCH  22  23
HETATM   23  C   UNL     1      38.557  -8.898   2.853  1.00  0.00     0.235 C 
HETATM   24  N   UNL     1      38.064  -9.272   4.078  1.00  0.00    -0.354 N 
HETATM   25  H   UNL     1      37.302  -9.939   4.138  1.00  0.00     0.162 HD
HETATM   26  O   UNL     1      39.594  -8.248   2.730  1.00  0.00    -0.272 OA
BRANCH  24  27
HETATM   27  C   UNL     1      38.812  -8.973   5.276  1.00  0.00     0.187 C 
BRANCH  27  28
HETATM   28  C   UNL     1      39.618 -10.135   5.725  1.00  0.00     0.070 A 
HETATM   29  O   UNL     1      39.058 -11.009   6.615  1.00  0.00    -0.325 OA
HETATM   30  C   UNL     1      39.988 -11.965   6.871  1.00  0.00     0.142 A 
HETATM   31  C   UNL     1      41.137 -11.724   6.156  1.00  0.00     0.027 A 
HETATM   32  C   UNL     1      40.900 -10.544   5.415  1.00  0.00     0.036 A 
ENDBRANCH  27  28
ENDBRANCH  24  27
ENDBRANCH  22  23
ENDBRANCH   9  22
BRANCH   1  33
HETATM   33  C   UNL     1      42.924 -17.695   2.597  1.00  0.00     0.036 A 
HETATM   34  C   UNL     1      43.653 -18.588   1.814  1.00  0.00     0.030 A 
HETATM   35  C   UNL     1      44.266 -19.709   2.389  1.00  0.00     0.010 A 
HETATM   36  C   UNL     1      44.185 -19.948   3.767  1.00  0.00    -0.055 A 
HETATM   37  C   UNL     1      43.436 -19.059   4.547  1.00  0.00     0.010 A 
HETATM   38  C   UNL     1      42.810 -17.948   3.969  1.00  0.00     0.030 A 
BRANCH  36  39
HETATM   39  C   UNL     1      44.863 -21.138   4.421  1.00  0.00     0.010 C 
HETATM   40  C   UNL     1      44.645 -22.449   3.659  1.00  0.00     0.015 C 
HETATM   41  C   UNL     1      44.417 -21.281   5.877  1.00  0.00     0.015 C 
ENDBRANCH  36  39
ENDBRANCH   1  33
TORSDOF 7
ENDMDL
MODEL 9
REMARK VINA RESULT:      -8.7      4.587     10.465
REMARK  7 active torsions:
REMARK  status: ('A' for Active; 'I' for Inactive)
REMARK    1  A    between atoms: C_2  and  C_3 
REMARK    2  A    between atoms: C_6  and  N_7 
REMARK       I    between atoms: N_7  and  C_8 
REMARK       I    between atoms: C_8  and  N_9 
REMARK    3  A    between atoms: N_13  and  C_14 
REMARK    4  A    between atoms: N_21  and  C_22 
REMARK    5  A    between atoms: C_22  and  C_23 
REMARK       I    between atoms: C_23  and  N_24 
REMARK    6  A    between atoms: N_24  and  C_25 
REMARK    7  A    between atoms: C_25  and  C_26 
ROOT
HETATM    1  N   UNL     1      41.936 -15.988   1.792  1.00  0.00    -0.309 N 
HETATM    2  C   UNL     1      42.099 -14.677   2.177  1.00  0.00     0.322 C 
HETATM    3  N   UNL     1      41.094 -13.804   1.739  1.00  0.00    -0.334 N 
HETATM    4  C   UNL     1      41.180 -12.423   2.209  1.00  0.00     0.130 C 
HETATM    5  C   UNL     1      40.747 -11.433   1.137  1.00  0.00     0.061 C 
HETATM    6  C   UNL     1      39.421 -11.824   0.462  1.00  0.00     0.118 C 
HETATM    7  N   UNL     1      39.148 -10.989  -0.750  1.00  0.00    -0.346 N 
HETATM    8  C   UNL     1      38.152  -9.966  -0.447  1.00  0.00     0.254 C 
HETATM    9  N   UNL     1      37.599 -10.352   0.815  1.00  0.00    -0.325 N 
HETATM   10  C   UNL     1      38.293 -11.381   1.415  1.00  0.00     0.250 C 
HETATM   11  O   UNL     1      38.070 -11.821   2.534  1.00  0.00    -0.270 OA
HETATM   12  C   UNL     1      39.237 -13.322   0.181  1.00  0.00     0.061 C 
HETATM   13  C   UNL     1      39.750 -14.202   1.317  1.00  0.00     0.130 C 
HETATM   14  O   UNL     1      43.045 -14.270   2.847  1.00  0.00    -0.247 OA
HETATM   15  H   UNL     1      41.322 -16.153   1.013  1.00  0.00     0.170 HD
ENDROOT
BRANCH   7  16
HETATM   16  C   UNL     1      39.959 -10.852  -1.868  1.00  0.00     0.032 A 
HETATM   17  C   UNL     1      41.006  -9.919  -1.952  1.00  0.00     0.029 A 
HETATM   18  C   UNL     1      41.802  -9.770  -3.098  1.00  0.00     0.002 A 
HETATM   19  C   UNL     1      41.588 -10.575  -4.206  1.00  0.00     0.000 A 
HETATM   20  C   UNL     1      40.585 -11.531  -4.157  1.00  0.00     0.002 A 
HETATM   21  C   UNL     1      39.795 -11.668  -3.007  1.00  0.00     0.029 A 
ENDBRANCH   7  16
BRANCH   9  22
HETATM   22  C   UNL     1      36.760  -9.441   1.574  1.00  0.00     0.230 C 
BRANCH  22  23
HETATM   23  C   UNL     1      35.264  -9.511   1.279  1.00  0.00     0.235 C 
HETATM   24  N   UNL     1      34.556 -10.433   2.009  1.00  0.00    -0.354 N 
HETATM   25  H   UNL     1      35.022 -10.981   2.724  1.00  0.00     0.162 HD
HETATM   26  O   UNL     1      34.715  -8.694   0.540  1.00  0.00    -0.272 OA
BRANCH  24  27
HETATM   27  C   UNL     1      33.112 -10.414   1.987  1.00  0.00     0.187 C 
BRANCH  27  28
HETATM   28  C   UNL     1      32.555  -9.690   3.156  1.00  0.00     0.070 A 
HETATM   29  O   UNL     1      31.507  -8.836   2.952  1.00  0.00    -0.325 OA
HETATM   30  C   UNL     1      31.194  -8.298   4.159  1.00  0.00     0.142 A 
HETATM   31  C   UNL     1      32.019  -8.796   5.139  1.00  0.00     0.027 A 
HETATM   32  C   UNL     1      32.898  -9.696   4.494  1.00  0.00     0.036 A 
ENDBRANCH  27  28
ENDBRANCH  24  27
ENDBRANCH  22  23
ENDBRANCH   9  22
BRANCH   1  33
HETATM   33  C   UNL     1      42.656 -17.117   2.240  1.00  0.00     0.036 A 
HETATM   34  C   UNL     1      42.564 -17.647   3.526  1.00  0.00     0.030 A 
HETATM   35  C   UNL     1      43.281 -18.798   3.879  1.00  0.00     0.010 A 
HETATM   36  C   UNL     1      44.087 -19.460   2.945  1.00  0.00    -0.055 A 
HETATM   37  C   UNL     1      44.192 -18.915   1.661  1.00  0.00     0.010 A 
HETATM   38  C   UNL     1      43.487 -17.755   1.313  1.00  0.00     0.030 A 
BRANCH  36  39
HETATM   39  C   UNL     1      44.851 -20.726   3.291  1.00  0.00     0.010 C 
HETATM   40  C   UNL     1      44.346 -21.959   2.534  1.00  0.00     0.015 C 
HETATM   41  C   UNL     1      44.831 -20.973   4.801  1.00  0.00     0.015 C 
ENDBRANCH  36  39
ENDBRANCH   1  33
TORSDOF 7
ENDMDL
MODEL 10
REMARK VINA RESULT:      -8.6      5.011      9.846
REMARK  7 active torsions:
REMARK  status: ('A' for Active; 'I' for Inactive)
REMARK    1  A    between atoms: C_2  and  C_3 
REMARK    2  A    between atoms: C_6  and  N_7 
REMARK       I    between atoms: N_7  and  C_8 
REMARK       I    between atoms: C_8  and  N_9 
REMARK    3  A    between atoms: N_13  and  C_14 
REMARK    4  A    between atoms: N_21  and  C_22 
REMARK    5  A    between atoms: C_22  and  C_23 
REMARK       I    between atoms: C_23  and  N_24 
REMARK    6  A    between atoms: N_24  and  C_25 
REMARK    7  A    between atoms: C_25  and  C_26 
ROOT
HETATM    1  N   UNL     1      42.763 -16.002   4.323  1.00  0.00    -0.309 N 
HETATM    2  C   UNL     1      41.428 -15.679   4.397  1.00  0.00     0.322 C 
HETATM    3  N   UNL     1      41.154 -14.304   4.424  1.00  0.00    -0.334 N 
HETATM    4  C   UNL     1      39.744 -13.920   4.404  1.00  0.00     0.130 C 
HETATM    5  C   UNL     1      39.478 -12.702   5.278  1.00  0.00     0.061 C 
HETATM    6  C   UNL     1      40.481 -11.561   5.036  1.00  0.00     0.118 C 
HETATM    7  N   UNL     1      40.362 -10.488   6.071  1.00  0.00    -0.346 N 
HETATM    8  C   UNL     1      39.640  -9.339   5.532  1.00  0.00     0.254 C 
HETATM    9  N   UNL     1      39.589  -9.567   4.120  1.00  0.00    -0.325 N 
HETATM   10  C   UNL     1      40.015 -10.827   3.762  1.00  0.00     0.250 C 
HETATM   11  O   UNL     1      39.977 -11.287   2.629  1.00  0.00    -0.270 OA
HETATM   12  C   UNL     1      41.938 -11.994   4.821  1.00  0.00     0.061 C 
HETATM   13  C   UNL     1      42.059 -13.251   3.963  1.00  0.00     0.130 C 
HETATM   14  O   UNL     1      40.521 -16.506   4.447  1.00  0.00    -0.247 OA
HETATM   15  H   UNL     1      43.413 -15.285   4.595  1.00  0.00     0.170 HD
ENDROOT
BRANCH   7  16
HETATM   16  C   UNL     1      40.493 -10.637   7.445  1.00  0.00     0.032 A 
HETATM   17  C   UNL     1      39.409 -10.912   8.297  1.00  0.00     0.029 A 
HETATM   18  C   UNL     1      39.548 -11.034   9.689  1.00  0.00     0.002 A 
HETATM   19  C   UNL     1      40.795 -10.903  10.279  1.00  0.00     0.000 A 
HETATM   20  C   UNL     1      41.898 -10.663   9.475  1.00  0.00     0.002 A 
HETATM   21  C   UNL     1      41.746 -10.541   8.086  1.00  0.00     0.029 A 
ENDBRANCH   7  16
BRANCH   9  22
HETATM   22  C   UNL     1      38.722  -8.772   3.267  1.00  0.00     0.230 C 
BRANCH  22  23
HETATM   23  C   UNL     1      37.305  -9.306   3.076  1.00  0.00     0.235 C 
HETATM   24  N   UNL     1      36.294  -8.402   3.294  1.00  0.00    -0.354 N 
HETATM   25  H   UNL     1      36.515  -7.438   3.518  1.00  0.00     0.162 HD
HETATM   26  O   UNL     1      37.097 -10.429   2.618  1.00  0.00    -0.272 OA
BRANCH  24  27
HETATM   27  C   UNL     1      34.942  -8.728   2.909  1.00  0.00     0.187 C 
BRANCH  27  28
HETATM   28  C   UNL     1      33.990  -8.538   4.031  1.00  0.00     0.070 A 
HETATM   29  O   UNL     1      33.240  -7.395   4.060  1.00  0.00    -0.325 OA
HETATM   30  C   UNL     1      32.468  -7.456   5.175  1.00  0.00     0.142 A 
HETATM   31  C   UNL     1      32.705  -8.621   5.864  1.00  0.00     0.027 A 
HETATM   32  C   UNL     1      33.687  -9.322   5.127  1.00  0.00     0.036 A 
ENDBRANCH  27  28
ENDBRANCH  24  27
ENDBRANCH  22  23
ENDBRANCH   9  22
BRANCH   1  33
HETATM   33  C   UNL     1      43.333 -17.271   4.079  1.00  0.00     0.036 A 
HETATM   34  C   UNL     1      43.810 -18.122   5.074  1.00  0.00     0.030 A 
HETATM   35  C   UNL     1      44.321 -19.385   4.751  1.00  0.00     0.010 A 
HETATM   36  C   UNL     1      44.344 -19.837   3.426  1.00  0.00    -0.055 A 
HETATM   37  C   UNL     1      43.882 -18.973   2.427  1.00  0.00     0.010 A 
HETATM   38  C   UNL     1      43.385 -17.704   2.749  1.00  0.00     0.030 A 
BRANCH  36  39
HETATM   39  C   UNL     1      44.866 -21.213   3.051  1.00  0.00     0.010 C 
HETATM   40  C   UNL     1      44.208 -21.781   1.789  1.00  0.00     0.015 C 
HETATM   41  C   UNL     1      44.716 -22.185   4.222  1.00  0.00     0.015 C 
ENDBRANCH  36  39
ENDBRANCH   1  33
TORSDOF 7
ENDMDL
