MODEL 1
REMARK VINA RESULT:      -8.9      0.000      0.000
REMARK  3 active torsions:
REMARK  status: ('A' for Active; 'I' for Inactive)
REMARK    1  A    between atoms: C_11  and  N_12 
REMARK       I    between atoms: N_12  and  C_13 
REMARK    2  A    between atoms: C_13  and  C_14 
REMARK    3  A    between atoms: C_15  and  C_16 
ROOT
HETATM    1  N   UNL     1      42.083 -16.350   4.347  1.00  0.00    -0.352 N 
HETATM    2  C   UNL     1      42.174 -17.571   5.002  1.00  0.00     0.255 C 
HETATM    3  O   UNL     1      41.213 -18.321   5.117  1.00  0.00    -0.268 OA
HETATM    4  H   UNL     1      42.973 -15.943   4.089  1.00  0.00     0.163 HD
ENDROOT
BRANCH   2   5
HETATM    5  C   UNL     1      43.485 -17.875   5.551  1.00  0.00     0.080 A 
HETATM    6  C   UNL     1      44.419 -18.868   5.109  1.00  0.00     0.107 A 
HETATM    7  N   UNL     1      45.552 -18.811   5.831  1.00  0.00    -0.173 NA
HETATM    8  N   UNL     1      45.355 -17.826   6.707  1.00  0.00    -0.288 N 
HETATM    9  H   UNL     1      46.110 -17.601   7.350  1.00  0.00     0.188 HD
HETATM   10  C   UNL     1      44.130 -17.240   6.600  1.00  0.00     0.128 A 
BRANCH   6  11
HETATM   11  C   UNL     1      44.280 -19.865   4.050  1.00  0.00     0.034 A 
HETATM   12  C   UNL     1      44.632 -21.203   4.253  1.00  0.00     0.129 A 
HETATM   13  F   UNL     1      45.140 -21.609   5.428  1.00  0.00    -0.205 F 
HETATM   14  C   UNL     1      44.495 -22.147   3.236  1.00  0.00     0.043 A 
HETATM   15  C   UNL     1      44.012 -21.756   1.988  1.00  0.00     0.003 A 
HETATM   16  C   UNL     1      43.678 -20.422   1.760  1.00  0.00     0.001 A 
HETATM   17  C   UNL     1      43.813 -19.481   2.784  1.00  0.00     0.017 A 
ENDBRANCH   6  11
ENDBRANCH   2   5
BRANCH   1  18
HETATM   18  C   UNL     1      40.885 -15.960   3.622  1.00  0.00     0.089 C 
HETATM   19  C   UNL     1      40.838 -16.569   2.215  1.00  0.00     0.063 C 
HETATM   20  C   UNL     1      41.736 -15.890   1.167  1.00  0.00     0.121 C 
HETATM   21  N   UNL     1      41.572 -14.388   1.232  1.00  0.00    -0.059 N 
HETATM   22  C   UNL     1      43.218 -16.264   1.287  1.00  0.00     0.046 C 
HETATM   23  C   UNL     1      41.268 -16.308  -0.243  1.00  0.00     0.046 C 
HETATM   24  C   UNL     1      41.549 -13.679   2.571  1.00  0.00     0.121 C 
HETATM   25  H   UNL     1      40.686 -14.158   0.759  1.00  0.00     0.279 HD
HETATM   26  H   UNL     1      42.292 -13.946   0.641  1.00  0.00     0.279 HD
HETATM   27  C   UNL     1      42.975 -13.464   3.083  1.00  0.00     0.046 C 
HETATM   28  C   UNL     1      40.943 -12.286   2.298  1.00  0.00     0.046 C 
HETATM   29  C   UNL     1      40.637 -14.445   3.536  1.00  0.00     0.063 C 
ENDBRANCH   1  18
TORSDOF 3
ENDMDL
MODEL 2
REMARK VINA RESULT:      -8.1      3.666      7.579
REMARK  3 active torsions:
REMARK  status: ('A' for Active; 'I' for Inactive)
REMARK    1  A    between atoms: C_11  and  N_12 
REMARK       I    between atoms: N_12  and  C_13 
REMARK    2  A    between atoms: C_13  and  C_14 
REMARK    3  A    between atoms: C_15  and  C_16 
ROOT
HETATM    1  N   UNL     1      41.396 -15.822   1.066  1.00  0.00    -0.352 N 
HETATM    2  C   UNL     1      40.488 -14.823   0.742  1.00  0.00     0.255 C 
HETATM    3  O   UNL     1      39.333 -14.837   1.150  1.00  0.00    -0.268 OA
HETATM    4  H   UNL     1      42.365 -15.582   0.898  1.00  0.00     0.163 HD
ENDROOT
BRANCH   2   5
HETATM    5  C   UNL     1      41.010 -13.779  -0.124  1.00  0.00     0.080 A 
HETATM    6  C   UNL     1      40.667 -13.512  -1.490  1.00  0.00     0.107 A 
HETATM    7  N   UNL     1      41.317 -12.425  -1.941  1.00  0.00    -0.173 NA
HETATM    8  N   UNL     1      42.055 -12.011  -0.910  1.00  0.00    -0.288 N 
HETATM    9  H   UNL     1      42.623 -11.177  -1.034  1.00  0.00     0.188 HD
HETATM   10  C   UNL     1      41.926 -12.792   0.199  1.00  0.00     0.128 A 
BRANCH   6  11
HETATM   11  C   UNL     1      39.766 -14.242  -2.379  1.00  0.00     0.034 A 
HETATM   12  C   UNL     1      40.215 -15.314  -3.157  1.00  0.00     0.129 A 
HETATM   13  F   UNL     1      41.505 -15.689  -3.131  1.00  0.00    -0.205 F 
HETATM   14  C   UNL     1      39.348 -16.006  -4.002  1.00  0.00     0.043 A 
HETATM   15  C   UNL     1      38.011 -15.619  -4.090  1.00  0.00     0.003 A 
HETATM   16  C   UNL     1      37.551 -14.538  -3.340  1.00  0.00     0.001 A 
HETATM   17  C   UNL     1      38.424 -13.852  -2.491  1.00  0.00     0.017 A 
ENDBRANCH   6  11
ENDBRANCH   2   5
BRANCH   1  18
HETATM   18  C   UNL     1      41.077 -16.860   2.033  1.00  0.00     0.089 C 
HETATM   19  C   UNL     1      41.199 -16.359   3.477  1.00  0.00     0.063 C 
HETATM   20  C   UNL     1      42.632 -16.243   4.022  1.00  0.00     0.121 C 
HETATM   21  N   UNL     1      43.417 -17.493   3.699  1.00  0.00    -0.059 N 
HETATM   22  C   UNL     1      43.384 -15.004   3.523  1.00  0.00     0.046 C 
HETATM   23  C   UNL     1      42.579 -16.160   5.563  1.00  0.00     0.046 C 
HETATM   24  C   UNL     1      43.335 -18.113   2.318  1.00  0.00     0.121 C 
HETATM   25  H   UNL     1      43.122 -18.220   4.368  1.00  0.00     0.279 HD
HETATM   26  H   UNL     1      44.410 -17.335   3.927  1.00  0.00     0.279 HD
HETATM   27  C   UNL     1      44.264 -17.377   1.350  1.00  0.00     0.046 C 
HETATM   28  C   UNL     1      43.874 -19.551   2.470  1.00  0.00     0.046 C 
HETATM   29  C   UNL     1      41.870 -18.168   1.873  1.00  0.00     0.063 C 
ENDBRANCH   1  18
TORSDOF 3
ENDMDL
MODEL 3
REMARK VINA RESULT:      -7.9      2.230      3.107
REMARK  3 active torsions:
REMARK  status: ('A' for Active; 'I' for Inactive)
REMARK    1  A    between atoms: C_11  and  N_12 
REMARK       I    between atoms: N_12  and  C_13 
REMARK    2  A    between atoms: C_13  and  C_14 
REMARK    3  A    between atoms: C_15  and  C_16 
ROOT
HETATM    1  N   UNL     1      41.199 -15.041   6.042  1.00  0.00    -0.352 N 
HETATM    2  C   UNL     1      41.283 -16.426   6.091  1.00  0.00     0.255 C 
HETATM    3  O   UNL     1      40.328 -17.146   5.824  1.00  0.00    -0.268 OA
HETATM    4  H   UNL     1      42.092 -14.565   6.025  1.00  0.00     0.163 HD
ENDROOT
BRANCH   2   5
HETATM    5  C   UNL     1      42.578 -16.947   6.497  1.00  0.00     0.080 A 
HETATM    6  C   UNL     1      43.623 -17.465   5.664  1.00  0.00     0.107 A 
HETATM    7  N   UNL     1      44.697 -17.799   6.400  1.00  0.00    -0.173 NA
HETATM    8  N   UNL     1      44.357 -17.515   7.658  1.00  0.00    -0.288 N 
HETATM    9  H   UNL     1      45.046 -17.680   8.387  1.00  0.00     0.188 HD
HETATM   10  C   UNL     1      43.094 -17.018   7.780  1.00  0.00     0.128 A 
BRANCH   6  11
HETATM   11  C   UNL     1      43.641 -17.664   4.217  1.00  0.00     0.034 A 
HETATM   12  C   UNL     1      43.794 -18.935   3.654  1.00  0.00     0.129 A 
HETATM   13  F   UNL     1      43.958 -20.016   4.434  1.00  0.00    -0.205 F 
HETATM   14  C   UNL     1      43.809 -19.114   2.271  1.00  0.00     0.043 A 
HETATM   15  C   UNL     1      43.685 -18.011   1.427  1.00  0.00     0.003 A 
HETATM   16  C   UNL     1      43.555 -16.734   1.971  1.00  0.00     0.001 A 
HETATM   17  C   UNL     1      43.535 -16.560   3.357  1.00  0.00     0.017 A 
ENDBRANCH   6  11
ENDBRANCH   2   5
BRANCH   1  18
HETATM   18  C   UNL     1      40.023 -14.365   5.519  1.00  0.00     0.089 C 
HETATM   19  C   UNL     1      40.145 -14.070   4.020  1.00  0.00     0.063 C 
HETATM   20  C   UNL     1      41.039 -12.875   3.648  1.00  0.00     0.121 C 
HETATM   21  N   UNL     1      40.710 -11.686   4.520  1.00  0.00    -0.059 N 
HETATM   22  C   UNL     1      42.539 -13.182   3.716  1.00  0.00     0.046 C 
HETATM   23  C   UNL     1      40.723 -12.442   2.201  1.00  0.00     0.046 C 
HETATM   24  C   UNL     1      40.513 -11.862   6.013  1.00  0.00     0.121 C 
HETATM   25  H   UNL     1      39.842 -11.270   4.154  1.00  0.00     0.279 HD
HETATM   26  H   UNL     1      41.420 -10.953   4.370  1.00  0.00     0.279 HD
HETATM   27  C   UNL     1      41.867 -11.909   6.725  1.00  0.00     0.046 C 
HETATM   28  C   UNL     1      39.783 -10.591   6.494  1.00  0.00     0.046 C 
HETATM   29  C   UNL     1      39.621 -13.082   6.266  1.00  0.00     0.063 C 
ENDBRANCH   1  18
TORSDOF 3
ENDMDL
MODEL 4
REMARK VINA RESULT:      -7.7      3.134      5.443
REMARK  3 active torsions:
REMARK  status: ('A' for Active; 'I' for Inactive)
REMARK    1  A    between atoms: C_11  and  N_12 
REMARK       I    between atoms: N_12  and  C_13 
REMARK    2  A    between atoms: C_13  and  C_14 
REMARK    3  A    between atoms: C_15  and  C_16 
ROOT
HETATM    1  N   UNL     1      42.173 -14.423   2.795  1.00  0.00    -0.352 N 
HETATM    2  C   UNL     1      42.220 -13.719   1.599  1.00  0.00     0.255 C 
HETATM    3  O   UNL     1      42.679 -12.585   1.528  1.00  0.00    -0.268 OA
HETATM    4  H   UNL     1      42.022 -15.418   2.693  1.00  0.00     0.163 HD
ENDROOT
BRANCH   2   5
HETATM    5  C   UNL     1      41.671 -14.424   0.452  1.00  0.00     0.080 A 
HETATM    6  C   UNL     1      41.711 -15.831   0.178  1.00  0.00     0.107 A 
HETATM    7  N   UNL     1      41.043 -16.114  -0.954  1.00  0.00    -0.173 NA
HETATM    8  N   UNL     1      40.597 -14.938  -1.397  1.00  0.00    -0.288 N 
HETATM    9  H   UNL     1      40.043 -14.928  -2.249  1.00  0.00     0.188 HD
HETATM   10  C   UNL     1      40.957 -13.888  -0.606  1.00  0.00     0.128 A 
BRANCH   6  11
HETATM   11  C   UNL     1      42.356 -16.904   0.931  1.00  0.00     0.034 A 
HETATM   12  C   UNL     1      41.614 -17.924   1.533  1.00  0.00     0.129 A 
HETATM   13  F   UNL     1      40.273 -17.933   1.461  1.00  0.00    -0.205 F 
HETATM   14  C   UNL     1      42.238 -18.945   2.249  1.00  0.00     0.043 A 
HETATM   15  C   UNL     1      43.626 -18.948   2.384  1.00  0.00     0.003 A 
HETATM   16  C   UNL     1      44.381 -17.925   1.810  1.00  0.00     0.001 A 
HETATM   17  C   UNL     1      43.750 -16.908   1.089  1.00  0.00     0.017 A 
ENDBRANCH   6  11
ENDBRANCH   2   5
BRANCH   1  18
HETATM   18  C   UNL     1      42.807 -13.919   4.002  1.00  0.00     0.089 C 
HETATM   19  C   UNL     1      43.217 -15.050   4.953  1.00  0.00     0.063 C 
HETATM   20  C   UNL     1      42.076 -15.677   5.772  1.00  0.00     0.121 C 
HETATM   21  N   UNL     1      41.214 -14.594   6.382  1.00  0.00    -0.059 N 
HETATM   22  C   UNL     1      41.207 -16.655   4.973  1.00  0.00     0.046 C 
HETATM   23  C   UNL     1      42.678 -16.459   6.959  1.00  0.00     0.046 C 
HETATM   24  C   UNL     1      40.789 -13.398   5.554  1.00  0.00     0.121 C 
HETATM   25  H   UNL     1      41.722 -14.224   7.198  1.00  0.00     0.279 HD
HETATM   26  H   UNL     1      40.371 -15.026   6.788  1.00  0.00     0.279 HD
HETATM   27  C   UNL     1      39.582 -13.757   4.683  1.00  0.00     0.046 C 
HETATM   28  C   UNL     1      40.326 -12.329   6.566  1.00  0.00     0.046 C 
HETATM   29  C   UNL     1      41.997 -12.865   4.775  1.00  0.00     0.063 C 
ENDBRANCH   1  18
TORSDOF 3
ENDMDL
MODEL 5
REMARK VINA RESULT:      -7.7      2.648      4.264
REMARK  3 active torsions:
REMARK  status: ('A' for Active; 'I' for Inactive)
REMARK    1  A    between atoms: C_11  and  N_12 
REMARK       I    between atoms: N_12  and  C_13 
REMARK    2  A    between atoms: C_13  and  C_14 
REMARK    3  A    between atoms: C_15  and  C_16 
ROOT
HETATM    1  N   UNL     1      41.406 -14.392   2.333  1.00  0.00    -0.352 N 
HETATM    2  C   UNL     1      42.127 -14.646   3.492  1.00  0.00     0.255 C 
HETATM    3  O   UNL     1      43.260 -14.212   3.662  1.00  0.00    -0.268 OA
HETATM    4  H   UNL     1      40.413 -14.572   2.407  1.00  0.00     0.163 HD
ENDROOT
BRANCH   2   5
HETATM    5  C   UNL     1      41.442 -15.475   4.470  1.00  0.00     0.080 A 
HETATM    6  C   UNL     1      41.619 -16.876   4.719  1.00  0.00     0.107 A 
HETATM    7  N   UNL     1      40.847 -17.279   5.743  1.00  0.00    -0.173 NA
HETATM    8  N   UNL     1      40.193 -16.184   6.135  1.00  0.00    -0.288 N 
HETATM    9  H   UNL     1      39.556 -16.265   6.923  1.00  0.00     0.188 HD
HETATM   10  C   UNL     1      40.495 -15.078   5.399  1.00  0.00     0.128 A 
BRANCH   6  11
HETATM   11  C   UNL     1      42.473 -17.839   4.028  1.00  0.00     0.034 A 
HETATM   12  C   UNL     1      42.260 -18.177   2.688  1.00  0.00     0.129 A 
HETATM   13  F   UNL     1      41.238 -17.643   1.999  1.00  0.00    -0.205 F 
HETATM   14  C   UNL     1      43.080 -19.097   2.036  1.00  0.00     0.043 A 
HETATM   15  C   UNL     1      44.125 -19.706   2.730  1.00  0.00     0.003 A 
HETATM   16  C   UNL     1      44.338 -19.400   4.073  1.00  0.00     0.001 A 
HETATM   17  C   UNL     1      43.516 -18.473   4.719  1.00  0.00     0.017 A 
ENDBRANCH   6  11
ENDBRANCH   2   5
BRANCH   1  18
HETATM   18  C   UNL     1      41.889 -13.467   1.321  1.00  0.00     0.089 C 
HETATM   19  C   UNL     1      41.714 -12.004   1.746  1.00  0.00     0.063 C 
HETATM   20  C   UNL     1      40.287 -11.443   1.627  1.00  0.00     0.121 C 
HETATM   21  N   UNL     1      39.692 -11.806   0.286  1.00  0.00    -0.059 N 
HETATM   22  C   UNL     1      39.352 -11.889   2.757  1.00  0.00     0.046 C 
HETATM   23  C   UNL     1      40.348  -9.901   1.662  1.00  0.00     0.046 C 
HETATM   24  C   UNL     1      39.847 -13.210  -0.264  1.00  0.00     0.121 C 
HETATM   25  H   UNL     1      40.102 -11.168  -0.412  1.00  0.00     0.279 HD
HETATM   26  H   UNL     1      38.690 -11.565   0.287  1.00  0.00     0.279 HD
HETATM   27  C   UNL     1      38.805 -14.142   0.359  1.00  0.00     0.046 C 
HETATM   28  C   UNL     1      39.530 -13.108  -1.771  1.00  0.00     0.046 C 
HETATM   29  C   UNL     1      41.298 -13.669  -0.084  1.00  0.00     0.063 C 
ENDBRANCH   1  18
TORSDOF 3
ENDMDL
MODEL 6
REMARK VINA RESULT:      -7.5      2.832      4.442
REMARK  3 active torsions:
REMARK  status: ('A' for Active; 'I' for Inactive)
REMARK    1  A    between atoms: C_11  and  N_12 
REMARK       I    between atoms: N_12  and  C_13 
REMARK    2  A    between atoms: C_13  and  C_14 
REMARK    3  A    between atoms: C_15  and  C_16 
ROOT
HETATM    1  N   UNL     1      40.544 -14.369   1.129  1.00  0.00    -0.352 N 
HETATM    2  C   UNL     1      39.858 -15.026   2.142  1.00  0.00     0.255 C 
HETATM    3  O   UNL     1      38.815 -15.634   1.932  1.00  0.00    -0.268 OA
HETATM    4  H   UNL     1      41.501 -14.130   1.356  1.00  0.00     0.163 HD
ENDROOT
BRANCH   2   5
HETATM    5  C   UNL     1      40.461 -14.919   3.460  1.00  0.00     0.080 A 
HETATM    6  C   UNL     1      41.614 -15.609   3.962  1.00  0.00     0.107 A 
HETATM    7  N   UNL     1      41.904 -15.205   5.211  1.00  0.00    -0.173 NA
HETATM    8  N   UNL     1      40.972 -14.297   5.506  1.00  0.00    -0.288 N 
HETATM    9  H   UNL     1      41.018 -13.845   6.415  1.00  0.00     0.188 HD
HETATM   10  C   UNL     1      40.071 -14.097   4.503  1.00  0.00     0.128 A 
BRANCH   6  11
HETATM   11  C   UNL     1      42.436 -16.630   3.317  1.00  0.00     0.034 A 
HETATM   12  C   UNL     1      42.393 -17.968   3.722  1.00  0.00     0.129 A 
HETATM   13  F   UNL     1      41.608 -18.352   4.742  1.00  0.00    -0.205 F 
HETATM   14  C   UNL     1      43.181 -18.936   3.100  1.00  0.00     0.043 A 
HETATM   15  C   UNL     1      44.041 -18.569   2.066  1.00  0.00     0.003 A 
HETATM   16  C   UNL     1      44.115 -17.236   1.664  1.00  0.00     0.001 A 
HETATM   17  C   UNL     1      43.319 -16.271   2.288  1.00  0.00     0.017 A 
ENDBRANCH   6  11
ENDBRANCH   2   5
BRANCH   1  18
HETATM   18  C   UNL     1      40.153 -14.495  -0.265  1.00  0.00     0.089 C 
HETATM   19  C   UNL     1      41.295 -14.128  -1.220  1.00  0.00     0.063 C 
HETATM   20  C   UNL     1      41.557 -12.622  -1.394  1.00  0.00     0.121 C 
HETATM   21  N   UNL     1      40.256 -11.888  -1.623  1.00  0.00    -0.059 N 
HETATM   22  C   UNL     1      42.323 -11.990  -0.226  1.00  0.00     0.046 C 
HETATM   23  C   UNL     1      42.400 -12.403  -2.669  1.00  0.00     0.046 C 
HETATM   24  C   UNL     1      39.041 -12.204  -0.775  1.00  0.00     0.121 C 
HETATM   25  H   UNL     1      39.984 -12.048  -2.603  1.00  0.00     0.279 HD
HETATM   26  H   UNL     1      40.431 -10.873  -1.576  1.00  0.00     0.279 HD
HETATM   27  C   UNL     1      39.125 -11.472   0.567  1.00  0.00     0.046 C 
HETATM   28  C   UNL     1      37.832 -11.624  -1.540  1.00  0.00     0.046 C 
HETATM   29  C   UNL     1      38.883 -13.724  -0.660  1.00  0.00     0.063 C 
ENDBRANCH   1  18
TORSDOF 3
ENDMDL
MODEL 7
REMARK VINA RESULT:      -7.5      2.075      3.397
REMARK  3 active torsions:
REMARK  status: ('A' for Active; 'I' for Inactive)
REMARK    1  A    between atoms: C_11  and  N_12 
REMARK       I    between atoms: N_12  and  C_13 
REMARK    2  A    between atoms: C_13  and  C_14 
REMARK    3  A    between atoms: C_15  and  C_16 
ROOT
HETATM    1  N   UNL     1      41.391 -16.528   2.783  1.00  0.00    -0.352 N 
HETATM    2  C   UNL     1      41.624 -17.565   3.675  1.00  0.00     0.255 C 
HETATM    3  O   UNL     1      40.967 -17.702   4.701  1.00  0.00    -0.268 OA
HETATM    4  H   UNL     1      41.803 -16.659   1.868  1.00  0.00     0.163 HD
ENDROOT
BRANCH   2   5
HETATM    5  C   UNL     1      42.711 -18.457   3.307  1.00  0.00     0.080 A 
HETATM    6  C   UNL     1      43.666 -19.089   4.170  1.00  0.00     0.107 A 
HETATM    7  N   UNL     1      44.485 -19.891   3.468  1.00  0.00    -0.173 NA
HETATM    8  N   UNL     1      44.081 -19.775   2.201  1.00  0.00    -0.288 N 
HETATM    9  H   UNL     1      44.566 -20.320   1.494  1.00  0.00     0.188 HD
HETATM   10  C   UNL     1      43.035 -18.917   2.042  1.00  0.00     0.128 A 
BRANCH   6  11
HETATM   11  C   UNL     1      43.837 -18.960   5.615  1.00  0.00     0.034 A 
HETATM   12  C   UNL     1      44.102 -17.724   6.213  1.00  0.00     0.129 A 
HETATM   13  F   UNL     1      44.235 -16.615   5.468  1.00  0.00    -0.205 F 
HETATM   14  C   UNL     1      44.262 -17.610   7.593  1.00  0.00     0.043 A 
HETATM   15  C   UNL     1      44.174 -18.745   8.398  1.00  0.00     0.003 A 
HETATM   16  C   UNL     1      43.934 -19.990   7.817  1.00  0.00     0.001 A 
HETATM   17  C   UNL     1      43.768 -20.097   6.433  1.00  0.00     0.017 A 
ENDBRANCH   6  11
ENDBRANCH   2   5
BRANCH   1  18
HETATM   18  C   UNL     1      40.253 -15.635   2.930  1.00  0.00     0.089 C 
HETATM   19  C   UNL     1      39.603 -15.302   1.582  1.00  0.00     0.063 C 
HETATM   20  C   UNL     1      40.348 -14.267   0.722  1.00  0.00     0.121 C 
HETATM   21  N   UNL     1      40.745 -13.076   1.564  1.00  0.00    -0.059 N 
HETATM   22  C   UNL     1      41.574 -14.834  -0.003  1.00  0.00     0.046 C 
HETATM   23  C   UNL     1      39.386 -13.723  -0.356  1.00  0.00     0.046 C 
HETATM   24  C   UNL     1      41.350 -13.280   2.939  1.00  0.00     0.121 C 
HETATM   25  H   UNL     1      39.901 -12.499   1.694  1.00  0.00     0.279 HD
HETATM   26  H   UNL     1      41.377 -12.474   1.016  1.00  0.00     0.279 HD
HETATM   27  C   UNL     1      42.843 -13.593   2.821  1.00  0.00     0.046 C 
HETATM   28  C   UNL     1      41.220 -11.922   3.660  1.00  0.00     0.046 C 
HETATM   29  C   UNL     1      40.539 -14.334   3.700  1.00  0.00     0.063 C 
ENDBRANCH   1  18
TORSDOF 3
ENDMDL
MODEL 8
REMARK VINA RESULT:      -7.5      2.665      4.230
REMARK  3 active torsions:
REMARK  status: ('A' for Active; 'I' for Inactive)
REMARK    1  A    between atoms: C_11  and  N_12 
REMARK       I    between atoms: N_12  and  C_13 
REMARK    2  A    between atoms: C_13  and  C_14 
REMARK    3  A    between atoms: C_15  and  C_16 
ROOT
HETATM    1  N   UNL     1      40.556 -13.677   2.648  1.00  0.00    -0.352 N 
HETATM    2  C   UNL     1      41.474 -14.008   3.635  1.00  0.00     0.255 C 
HETATM    3  O   UNL     1      42.577 -13.478   3.702  1.00  0.00    -0.268 OA
HETATM    4  H   UNL     1      39.607 -13.974   2.838  1.00  0.00     0.163 HD
ENDROOT
BRANCH   2   5
HETATM    5  C   UNL     1      41.032 -15.036   4.563  1.00  0.00     0.080 A 
HETATM    6  C   UNL     1      41.356 -16.432   4.554  1.00  0.00     0.107 A 
HETATM    7  N   UNL     1      40.803 -17.056   5.609  1.00  0.00    -0.173 NA
HETATM    8  N   UNL     1      40.143 -16.102   6.268  1.00  0.00    -0.288 N 
HETATM    9  H   UNL     1      39.658 -16.362   7.123  1.00  0.00     0.188 HD
HETATM   10  C   UNL     1      40.229 -14.876   5.680  1.00  0.00     0.128 A 
BRANCH   6  11
HETATM   11  C   UNL     1      42.151 -17.193   3.593  1.00  0.00     0.034 A 
HETATM   12  C   UNL     1      43.431 -17.658   3.908  1.00  0.00     0.129 A 
HETATM   13  F   UNL     1      43.984 -17.394   5.103  1.00  0.00    -0.205 F 
HETATM   14  C   UNL     1      44.182 -18.385   2.984  1.00  0.00     0.043 A 
HETATM   15  C   UNL     1      43.661 -18.643   1.717  1.00  0.00     0.003 A 
HETATM   16  C   UNL     1      42.396 -18.166   1.377  1.00  0.00     0.001 A 
HETATM   17  C   UNL     1      41.645 -17.443   2.309  1.00  0.00     0.017 A 
ENDBRANCH   6  11
ENDBRANCH   2   5
BRANCH   1  18
HETATM   18  C   UNL     1      40.786 -12.572   1.731  1.00  0.00     0.089 C 
HETATM   19  C   UNL     1      39.475 -11.927   1.265  1.00  0.00     0.063 C 
HETATM   20  C   UNL     1      38.697 -12.704   0.190  1.00  0.00     0.121 C 
HETATM   21  N   UNL     1      39.631 -13.147  -0.913  1.00  0.00    -0.059 N 
HETATM   22  C   UNL     1      37.918 -13.905   0.737  1.00  0.00     0.046 C 
HETATM   23  C   UNL     1      37.675 -11.756  -0.475  1.00  0.00     0.046 C 
HETATM   24  C   UNL     1      40.980 -13.751  -0.576  1.00  0.00     0.121 C 
HETATM   25  H   UNL     1      39.815 -12.325  -1.506  1.00  0.00     0.279 HD
HETATM   26  H   UNL     1      39.130 -13.797  -1.536  1.00  0.00     0.279 HD
HETATM   27  C   UNL     1      40.824 -15.232  -0.221  1.00  0.00     0.046 C 
HETATM   28  C   UNL     1      41.812 -13.673  -1.873  1.00  0.00     0.046 C 
HETATM   29  C   UNL     1      41.657 -12.907   0.509  1.00  0.00     0.063 C 
ENDBRANCH   1  18
TORSDOF 3
ENDMDL
MODEL 9
REMARK VINA RESULT:      -7.3      3.474      7.266
REMARK  3 active torsions:
REMARK  status: ('A' for Active; 'I' for Inactive)
REMARK    1  A    between atoms: C_11  and  N_12 
REMARK       I    between atoms: N_12  and  C_13 
REMARK    2  A    between atoms: C_13  and  C_14 
REMARK    3  A    between atoms: C_15  and  C_16 
ROOT
HETATM    1  N   UNL     1      41.940 -15.672   2.500  1.00  0.00    -0.352 N 
HETATM    2  C   UNL     1      41.622 -14.432   1.962  1.00  0.00     0.255 C 
HETATM    3  O   UNL     1      42.395 -13.483   2.012  1.00  0.00    -0.268 OA
HETATM    4  H   UNL     1      41.355 -16.433   2.180  1.00  0.00     0.163 HD
ENDROOT
BRANCH   2   5
HETATM    5  C   UNL     1      40.304 -14.348   1.356  1.00  0.00     0.080 A 
HETATM    6  C   UNL     1      39.969 -13.940   0.023  1.00  0.00     0.107 A 
HETATM    7  N   UNL     1      38.646 -14.048  -0.190  1.00  0.00    -0.173 NA
HETATM    8  N   UNL     1      38.146 -14.501   0.961  1.00  0.00    -0.288 N 
HETATM    9  H   UNL     1      37.145 -14.671   1.012  1.00  0.00     0.188 HD
HETATM   10  C   UNL     1      39.088 -14.683   1.928  1.00  0.00     0.128 A 
BRANCH   6  11
HETATM   11  C   UNL     1      40.840 -13.448  -1.042  1.00  0.00     0.034 A 
HETATM   12  C   UNL     1      41.221 -14.264  -2.111  1.00  0.00     0.129 A 
HETATM   13  F   UNL     1      40.818 -15.543  -2.177  1.00  0.00    -0.205 F 
HETATM   14  C   UNL     1      42.052 -13.785  -3.124  1.00  0.00     0.043 A 
HETATM   15  C   UNL     1      42.527 -12.476  -3.069  1.00  0.00     0.003 A 
HETATM   16  C   UNL     1      42.176 -11.655  -1.999  1.00  0.00     0.001 A 
HETATM   17  C   UNL     1      41.339 -12.138  -0.990  1.00  0.00     0.017 A 
ENDBRANCH   6  11
ENDBRANCH   2   5
BRANCH   1  18
HETATM   18  C   UNL     1      43.269 -15.963   3.015  1.00  0.00     0.089 C 
HETATM   19  C   UNL     1      43.933 -17.127   2.271  1.00  0.00     0.063 C 
HETATM   20  C   UNL     1      43.438 -18.531   2.657  1.00  0.00     0.121 C 
HETATM   21  N   UNL     1      43.379 -18.669   4.161  1.00  0.00    -0.059 N 
HETATM   22  C   UNL     1      42.085 -18.901   2.039  1.00  0.00     0.046 C 
HETATM   23  C   UNL     1      44.466 -19.577   2.175  1.00  0.00     0.046 C 
HETATM   24  C   UNL     1      42.792 -17.558   5.009  1.00  0.00     0.121 C 
HETATM   25  H   UNL     1      44.343 -18.816   4.492  1.00  0.00     0.279 HD
HETATM   26  H   UNL     1      42.897 -19.549   4.399  1.00  0.00     0.279 HD
HETATM   27  C   UNL     1      41.264 -17.650   5.020  1.00  0.00     0.046 C 
HETATM   28  C   UNL     1      43.280 -17.825   6.448  1.00  0.00     0.046 C 
HETATM   29  C   UNL     1      43.342 -16.210   4.531  1.00  0.00     0.063 C 
ENDBRANCH   1  18
TORSDOF 3
ENDMDL
MODEL 10
REMARK VINA RESULT:      -7.3      2.467      3.431
REMARK  3 active torsions:
REMARK  status: ('A' for Active; 'I' for Inactive)
REMARK    1  A    between atoms: C_11  and  N_12 
REMARK       I    between atoms: N_12  and  C_13 
REMARK    2  A    between atoms: C_13  and  C_14 
REMARK    3  A    between atoms: C_15  and  C_16 
ROOT
HETATM    1  N   UNL     1      40.390 -14.911   2.614  1.00  0.00    -0.352 N 
HETATM    2  C   UNL     1      40.853 -16.030   3.294  1.00  0.00     0.255 C 
HETATM    3  O   UNL     1      40.541 -17.168   2.962  1.00  0.00    -0.268 OA
HETATM    4  H   UNL     1      40.904 -14.061   2.804  1.00  0.00     0.163 HD
ENDROOT
BRANCH   2   5
HETATM    5  C   UNL     1      41.713 -15.744   4.429  1.00  0.00     0.080 A 
HETATM    6  C   UNL     1      42.880 -16.459   4.856  1.00  0.00     0.107 A 
HETATM    7  N   UNL     1      43.447 -15.858   5.916  1.00  0.00    -0.173 NA
HETATM    8  N   UNL     1      42.673 -14.801   6.169  1.00  0.00    -0.288 N 
HETATM    9  H   UNL     1      42.936 -14.190   6.937  1.00  0.00     0.188 HD
HETATM   10  C   UNL     1      41.610 -14.691   5.323  1.00  0.00     0.128 A 
BRANCH   6  11
HETATM   11  C   UNL     1      43.469 -17.681   4.311  1.00  0.00     0.034 A 
HETATM   12  C   UNL     1      43.884 -17.762   2.978  1.00  0.00     0.129 A 
HETATM   13  F   UNL     1      43.726 -16.721   2.145  1.00  0.00    -0.205 F 
HETATM   14  C   UNL     1      44.446 -18.932   2.468  1.00  0.00     0.043 A 
HETATM   15  C   UNL     1      44.587 -20.049   3.289  1.00  0.00     0.003 A 
HETATM   16  C   UNL     1      44.157 -19.994   4.615  1.00  0.00     0.001 A 
HETATM   17  C   UNL     1      43.599 -18.817   5.122  1.00  0.00     0.017 A 
ENDBRANCH   6  11
ENDBRANCH   2   5
BRANCH   1  18
HETATM   18  C   UNL     1      39.637 -15.027   1.376  1.00  0.00     0.089 C 
HETATM   19  C   UNL     1      40.479 -14.650   0.151  1.00  0.00     0.063 C 
HETATM   20  C   UNL     1      40.685 -13.142  -0.074  1.00  0.00     0.121 C 
HETATM   21  N   UNL     1      39.371 -12.409   0.062  1.00  0.00    -0.059 N 
HETATM   22  C   UNL     1      41.737 -12.518   0.849  1.00  0.00     0.046 C 
HETATM   23  C   UNL     1      41.153 -12.911  -1.527  1.00  0.00     0.046 C 
HETATM   24  C   UNL     1      38.428 -12.734   1.204  1.00  0.00     0.121 C 
HETATM   25  H   UNL     1      38.844 -12.563  -0.810  1.00  0.00     0.279 HD
HETATM   26  H   UNL     1      39.552 -11.394   0.068  1.00  0.00     0.279 HD
HETATM   27  C   UNL     1      38.871 -12.013   2.479  1.00  0.00     0.046 C 
HETATM   28  C   UNL     1      37.059 -12.151   0.797  1.00  0.00     0.046 C 
HETATM   29  C   UNL     1      38.308 -14.255   1.344  1.00  0.00     0.063 C 
ENDBRANCH   1  18
TORSDOF 3
ENDMDL
