MODEL 1
REMARK VINA RESULT:      -8.1      0.000      0.000
REMARK  10 active torsions:
REMARK  status: ('A' for Active; 'I' for Inactive)
REMARK    1  A    between atoms: C_2  and  C_3 
REMARK    2  A    between atoms: C_3  and  N_4 
REMARK    3  A    between atoms: C_7  and  C_8 
REMARK       I    between atoms: C_8  and  N_9 
REMARK    4  A    between atoms: N_9  and  C_10 
REMARK    5  A    between atoms: C_10  and  C_11 
REMARK    6  A    between atoms: C_11  and  O_12 
REMARK    7  A    between atoms: C_11  and  C_13 
REMARK    8  A    between atoms: C_13  and  O_14 
REMARK    9  A    between atoms: O_14  and  C_15 
REMARK   10  A    between atoms: C_23  and  C_24 
ROOT
HETATM    1  C   UNL     1      44.182 -16.158   7.289  1.00  0.00     0.255 C 
HETATM    2  N   UNL     1      44.767 -14.989   6.856  1.00  0.00    -0.354 N 
HETATM    3  O   UNL     1      43.626 -16.266   8.376  1.00  0.00    -0.268 OA
HETATM    4  H   UNL     1      45.106 -14.977   5.901  1.00  0.00     0.162 HD
ENDROOT
BRANCH   2   5
HETATM    5  C   UNL     1      44.558 -13.700   7.509  1.00  0.00     0.156 C 
BRANCH   5   6
HETATM    6  C   UNL     1      45.802 -12.985   8.076  1.00  0.00     0.160 C 
BRANCH   6   7
HETATM    7  O   UNL     1      46.704 -12.638   7.019  1.00  0.00    -0.392 OA
HETATM    8  H   UNL     1      47.610 -12.622   7.400  1.00  0.00     0.210 HD
ENDBRANCH   6   7
BRANCH   6   9
HETATM    9  C   UNL     1      45.452 -11.759   8.930  1.00  0.00     0.209 C 
BRANCH   9  10
HETATM   10  O   UNL     1      44.516 -12.142   9.944  1.00  0.00    -0.349 OA
BRANCH  10  11
HETATM   11  C   UNL     1      43.699 -11.147  10.407  1.00  0.00     0.069 A 
HETATM   12  C   UNL     1      43.920 -10.764  11.733  1.00  0.00     0.043 A 
HETATM   13  C   UNL     1      43.154  -9.754  12.327  1.00  0.00    -0.059 A 
HETATM   14  C   UNL     1      43.392  -9.345  13.750  1.00  0.00     0.048 C 
HETATM   15  C   UNL     1      42.134  -9.150  11.585  1.00  0.00     0.007 A 
HETATM   16  C   UNL     1      41.898  -9.540  10.267  1.00  0.00     0.003 A 
HETATM   17  C   UNL     1      42.678 -10.536   9.677  1.00  0.00     0.037 A 
ENDBRANCH  10  11
ENDBRANCH   9  10
ENDBRANCH   6   9
ENDBRANCH   5   6
ENDBRANCH   2   5
BRANCH   1  18
HETATM   18  C   UNL     1      44.235 -17.233   6.323  1.00  0.00     0.075 A 
HETATM   19  C   UNL     1      45.278 -18.180   6.225  1.00  0.00     0.158 A 
HETATM   20  N   UNL     1      45.113 -19.032   5.219  1.00  0.00    -0.183 NA
HETATM   21  N   UNL     1      43.987 -18.599   4.611  1.00  0.00    -0.268 N 
HETATM   22  C   UNL     1      43.365 -17.571   5.293  1.00  0.00     0.052 A 
BRANCH  21  23
HETATM   23  C   UNL     1      43.614 -19.199   3.330  1.00  0.00     0.106 C 
HETATM   24  C   UNL     1      43.932 -18.231   2.183  1.00  0.00     0.034 C 
BRANCH  23  25
HETATM   25  C   UNL     1      44.277 -20.567   3.089  1.00  0.00     0.022 C 
HETATM   26  C   UNL     1      43.773 -21.254   1.827  1.00  0.00     0.007 C 
ENDBRANCH  23  25
ENDBRANCH  21  23
BRANCH  22  27
HETATM   27  C   UNL     1      41.996 -16.989   4.934  1.00  0.00     0.038 A 
HETATM   28  C   UNL     1      40.869 -17.116   5.938  1.00  0.00     0.011 A 
HETATM   29  C   UNL     1      41.438 -15.773   5.632  1.00  0.00     0.011 A 
ENDBRANCH  22  27
ENDBRANCH   1  18
TORSDOF 10
ENDMDL
MODEL 2
REMARK VINA RESULT:      -7.9      4.699      6.662
REMARK  10 active torsions:
REMARK  status: ('A' for Active; 'I' for Inactive)
REMARK    1  A    between atoms: C_2  and  C_3 
REMARK    2  A    between atoms: C_3  and  N_4 
REMARK    3  A    between atoms: C_7  and  C_8 
REMARK       I    between atoms: C_8  and  N_9 
REMARK    4  A    between atoms: N_9  and  C_10 
REMARK    5  A    between atoms: C_10  and  C_11 
REMARK    6  A    between atoms: C_11  and  O_12 
REMARK    7  A    between atoms: C_11  and  C_13 
REMARK    8  A    between atoms: C_13  and  O_14 
REMARK    9  A    between atoms: O_14  and  C_15 
REMARK   10  A    between atoms: C_23  and  C_24 
ROOT
HETATM    1  C   UNL     1      41.222 -17.035   2.408  1.00  0.00     0.255 C 
HETATM    2  N   UNL     1      42.095 -16.318   1.621  1.00  0.00    -0.354 N 
HETATM    3  O   UNL     1      40.073 -17.295   2.068  1.00  0.00    -0.268 OA
HETATM    4  H   UNL     1      43.052 -16.250   1.951  1.00  0.00     0.162 HD
ENDROOT
BRANCH   2   5
HETATM    5  C   UNL     1      41.849 -16.028   0.212  1.00  0.00     0.156 C 
BRANCH   5   6
HETATM    6  C   UNL     1      41.308 -14.625  -0.137  1.00  0.00     0.160 C 
BRANCH   6   7
HETATM    7  O   UNL     1      40.082 -14.732  -0.870  1.00  0.00    -0.392 OA
HETATM    8  H   UNL     1      39.526 -15.403  -0.416  1.00  0.00     0.210 HD
ENDBRANCH   6   7
BRANCH   6   9
HETATM    9  C   UNL     1      41.141 -13.724   1.093  1.00  0.00     0.209 C 
BRANCH   9  10
HETATM   10  O   UNL     1      42.431 -13.421   1.635  1.00  0.00    -0.349 OA
BRANCH  10  11
HETATM   11  C   UNL     1      42.564 -13.591   2.987  1.00  0.00     0.069 A 
HETATM   12  C   UNL     1      41.393 -13.408   3.727  1.00  0.00     0.043 A 
HETATM   13  C   UNL     1      41.391 -13.557   5.120  1.00  0.00    -0.059 A 
HETATM   14  C   UNL     1      40.133 -13.360   5.912  1.00  0.00     0.048 C 
HETATM   15  C   UNL     1      42.591 -13.859   5.771  1.00  0.00     0.007 A 
HETATM   16  C   UNL     1      43.767 -14.026   5.039  1.00  0.00     0.003 A 
HETATM   17  C   UNL     1      43.755 -13.893   3.649  1.00  0.00     0.037 A 
ENDBRANCH  10  11
ENDBRANCH   9  10
ENDBRANCH   6   9
ENDBRANCH   5   6
ENDBRANCH   2   5
BRANCH   1  18
HETATM   18  C   UNL     1      41.798 -17.502   3.650  1.00  0.00     0.075 A 
HETATM   19  C   UNL     1      41.265 -17.247   4.933  1.00  0.00     0.158 A 
HETATM   20  N   UNL     1      42.013 -17.742   5.913  1.00  0.00    -0.183 NA
HETATM   21  N   UNL     1      43.080 -18.267   5.272  1.00  0.00    -0.268 N 
HETATM   22  C   UNL     1      42.955 -18.231   3.895  1.00  0.00     0.052 A 
BRANCH  21  23
HETATM   23  C   UNL     1      44.214 -18.729   6.071  1.00  0.00     0.106 C 
HETATM   24  C   UNL     1      45.019 -17.531   6.586  1.00  0.00     0.034 C 
BRANCH  23  25
HETATM   25  C   UNL     1      43.797 -19.647   7.235  1.00  0.00     0.022 C 
HETATM   26  C   UNL     1      43.714 -21.113   6.831  1.00  0.00     0.007 C 
ENDBRANCH  23  25
ENDBRANCH  21  23
BRANCH  22  27
HETATM   27  C   UNL     1      43.925 -18.893   2.914  1.00  0.00     0.038 A 
HETATM   28  C   UNL     1      44.136 -20.389   3.003  1.00  0.00     0.011 A 
HETATM   29  C   UNL     1      43.447 -19.810   1.816  1.00  0.00     0.011 A 
ENDBRANCH  22  27
ENDBRANCH   1  18
TORSDOF 10
ENDMDL
MODEL 3
REMARK VINA RESULT:      -7.9      5.133      8.933
REMARK  10 active torsions:
REMARK  status: ('A' for Active; 'I' for Inactive)
REMARK    1  A    between atoms: C_2  and  C_3 
REMARK    2  A    between atoms: C_3  and  N_4 
REMARK    3  A    between atoms: C_7  and  C_8 
REMARK       I    between atoms: C_8  and  N_9 
REMARK    4  A    between atoms: N_9  and  C_10 
REMARK    5  A    between atoms: C_10  and  C_11 
REMARK    6  A    between atoms: C_11  and  O_12 
REMARK    7  A    between atoms: C_11  and  C_13 
REMARK    8  A    between atoms: C_13  and  O_14 
REMARK    9  A    between atoms: O_14  and  C_15 
REMARK   10  A    between atoms: C_23  and  C_24 
ROOT
HETATM    1  C   UNL     1      41.053 -14.376   3.648  1.00  0.00     0.255 C 
HETATM    2  N   UNL     1      42.067 -14.959   4.374  1.00  0.00    -0.354 N 
HETATM    3  O   UNL     1      39.900 -14.293   4.054  1.00  0.00    -0.268 OA
HETATM    4  H   UNL     1      43.002 -14.881   3.991  1.00  0.00     0.162 HD
ENDROOT
BRANCH   2   5
HETATM    5  C   UNL     1      41.948 -15.289   5.791  1.00  0.00     0.156 C 
BRANCH   5   6
HETATM    6  C   UNL     1      41.337 -16.660   6.148  1.00  0.00     0.160 C 
BRANCH   6   7
HETATM    7  O   UNL     1      39.926 -16.536   6.368  1.00  0.00    -0.392 OA
HETATM    8  H   UNL     1      39.479 -17.185   5.781  1.00  0.00     0.210 HD
ENDBRANCH   6   7
BRANCH   6   9
HETATM    9  C   UNL     1      41.640 -17.742   5.104  1.00  0.00     0.209 C 
BRANCH   9  10
HETATM   10  O   UNL     1      43.040 -17.731   4.806  1.00  0.00    -0.349 OA
BRANCH  10  11
HETATM   11  C   UNL     1      43.508 -18.807   4.101  1.00  0.00     0.069 A 
HETATM   12  C   UNL     1      44.072 -19.825   4.876  1.00  0.00     0.043 A 
HETATM   13  C   UNL     1      44.584 -20.983   4.278  1.00  0.00    -0.059 A 
HETATM   14  C   UNL     1      45.189 -22.075   5.111  1.00  0.00     0.048 C 
HETATM   15  C   UNL     1      44.558 -21.097   2.884  1.00  0.00     0.007 A 
HETATM   16  C   UNL     1      44.013 -20.076   2.106  1.00  0.00     0.003 A 
HETATM   17  C   UNL     1      43.488 -18.932   2.712  1.00  0.00     0.037 A 
ENDBRANCH  10  11
ENDBRANCH   9  10
ENDBRANCH   6   9
ENDBRANCH   5   6
ENDBRANCH   2   5
BRANCH   1  18
HETATM   18  C   UNL     1      41.481 -13.822   2.382  1.00  0.00     0.075 A 
HETATM   19  C   UNL     1      42.150 -12.589   2.225  1.00  0.00     0.158 A 
HETATM   20  N   UNL     1      42.384 -12.283   0.953  1.00  0.00    -0.183 NA
HETATM   21  N   UNL     1      41.805 -13.292   0.267  1.00  0.00    -0.268 N 
HETATM   22  C   UNL     1      41.325 -14.297   1.086  1.00  0.00     0.052 A 
BRANCH  21  23
HETATM   23  C   UNL     1      41.703 -13.175  -1.187  1.00  0.00     0.106 C 
HETATM   24  C   UNL     1      40.347 -12.572  -1.573  1.00  0.00     0.034 C 
BRANCH  23  25
HETATM   25  C   UNL     1      42.856 -12.368  -1.810  1.00  0.00     0.022 C 
HETATM   26  C   UNL     1      42.371 -11.285  -2.765  1.00  0.00     0.007 C 
ENDBRANCH  23  25
ENDBRANCH  21  23
BRANCH  22  27
HETATM   27  C   UNL     1      40.766 -15.633   0.590  1.00  0.00     0.038 A 
HETATM   28  C   UNL     1      41.734 -16.761   0.302  1.00  0.00     0.011 A 
HETATM   29  C   UNL     1      40.788 -16.874   1.447  1.00  0.00     0.011 A 
ENDBRANCH  22  27
ENDBRANCH   1  18
TORSDOF 10
ENDMDL
MODEL 4
REMARK VINA RESULT:      -7.9      5.007      9.054
REMARK  10 active torsions:
REMARK  status: ('A' for Active; 'I' for Inactive)
REMARK    1  A    between atoms: C_2  and  C_3 
REMARK    2  A    between atoms: C_3  and  N_4 
REMARK    3  A    between atoms: C_7  and  C_8 
REMARK       I    between atoms: C_8  and  N_9 
REMARK    4  A    between atoms: N_9  and  C_10 
REMARK    5  A    between atoms: C_10  and  C_11 
REMARK    6  A    between atoms: C_11  and  O_12 
REMARK    7  A    between atoms: C_11  and  C_13 
REMARK    8  A    between atoms: C_13  and  O_14 
REMARK    9  A    between atoms: O_14  and  C_15 
REMARK   10  A    between atoms: C_23  and  C_24 
ROOT
HETATM    1  C   UNL     1      41.833 -15.026   3.871  1.00  0.00     0.255 C 
HETATM    2  N   UNL     1      43.018 -15.244   4.536  1.00  0.00    -0.354 N 
HETATM    3  O   UNL     1      40.740 -15.340   4.329  1.00  0.00    -0.268 OA
HETATM    4  H   UNL     1      43.854 -14.853   4.115  1.00  0.00     0.162 HD
ENDROOT
BRANCH   2   5
HETATM    5  C   UNL     1      43.088 -15.612   5.947  1.00  0.00     0.156 C 
BRANCH   5   6
HETATM    6  C   UNL     1      43.120 -17.118   6.284  1.00  0.00     0.160 C 
BRANCH   6   7
HETATM    7  O   UNL     1      41.927 -17.759   5.817  1.00  0.00    -0.392 OA
HETATM    8  H   UNL     1      41.732 -18.499   6.434  1.00  0.00     0.210 HD
ENDBRANCH   6   7
BRANCH   6   9
HETATM    9  C   UNL     1      44.373 -17.825   5.751  1.00  0.00     0.209 C 
BRANCH   9  10
HETATM   10  O   UNL     1      44.106 -18.330   4.438  1.00  0.00    -0.349 OA
BRANCH  10  11
HETATM   11  C   UNL     1      44.311 -19.673   4.264  1.00  0.00     0.069 A 
HETATM   12  C   UNL     1      44.097 -20.143   2.965  1.00  0.00     0.043 A 
HETATM   13  C   UNL     1      44.275 -21.496   2.652  1.00  0.00    -0.059 A 
HETATM   14  C   UNL     1      44.044 -21.999   1.258  1.00  0.00     0.048 C 
HETATM   15  C   UNL     1      44.640 -22.386   3.667  1.00  0.00     0.007 A 
HETATM   16  C   UNL     1      44.839 -21.925   4.968  1.00  0.00     0.003 A 
HETATM   17  C   UNL     1      44.676 -20.571   5.268  1.00  0.00     0.037 A 
ENDBRANCH  10  11
ENDBRANCH   9  10
ENDBRANCH   6   9
ENDBRANCH   5   6
ENDBRANCH   2   5
BRANCH   1  18
HETATM   18  C   UNL     1      41.987 -14.347   2.603  1.00  0.00     0.075 A 
HETATM   19  C   UNL     1      42.221 -12.962   2.453  1.00  0.00     0.158 A 
HETATM   20  N   UNL     1      42.271 -12.579   1.181  1.00  0.00    -0.183 NA
HETATM   21  N   UNL     1      42.001 -13.710   0.493  1.00  0.00    -0.268 N 
HETATM   22  C   UNL     1      41.912 -14.827   1.302  1.00  0.00     0.052 A 
BRANCH  21  23
HETATM   23  C   UNL     1      41.779 -13.609  -0.949  1.00  0.00     0.106 C 
HETATM   24  C   UNL     1      40.292 -13.374  -1.239  1.00  0.00     0.034 C 
BRANCH  23  25
HETATM   25  C   UNL     1      42.644 -12.525  -1.618  1.00  0.00     0.022 C 
HETATM   26  C   UNL     1      42.463 -12.473  -3.129  1.00  0.00     0.007 C 
ENDBRANCH  23  25
ENDBRANCH  21  23
BRANCH  22  27
HETATM   27  C   UNL     1      41.776 -16.263   0.792  1.00  0.00     0.038 A 
HETATM   28  C   UNL     1      42.968 -17.190   0.908  1.00  0.00     0.011 A 
HETATM   29  C   UNL     1      41.752 -17.445   1.731  1.00  0.00     0.011 A 
ENDBRANCH  22  27
ENDBRANCH   1  18
TORSDOF 10
ENDMDL
MODEL 5
REMARK VINA RESULT:      -7.9      3.858      8.936
REMARK  10 active torsions:
REMARK  status: ('A' for Active; 'I' for Inactive)
REMARK    1  A    between atoms: C_2  and  C_3 
REMARK    2  A    between atoms: C_3  and  N_4 
REMARK    3  A    between atoms: C_7  and  C_8 
REMARK       I    between atoms: C_8  and  N_9 
REMARK    4  A    between atoms: N_9  and  C_10 
REMARK    5  A    between atoms: C_10  and  C_11 
REMARK    6  A    between atoms: C_11  and  O_12 
REMARK    7  A    between atoms: C_11  and  C_13 
REMARK    8  A    between atoms: C_13  and  O_14 
REMARK    9  A    between atoms: O_14  and  C_15 
REMARK   10  A    between atoms: C_23  and  C_24 
ROOT
HETATM    1  C   UNL     1      40.840 -14.445   3.173  1.00  0.00     0.255 C 
HETATM    2  N   UNL     1      41.270 -14.526   1.867  1.00  0.00    -0.354 N 
HETATM    3  O   UNL     1      39.666 -14.572   3.500  1.00  0.00    -0.268 OA
HETATM    4  H   UNL     1      42.273 -14.511   1.718  1.00  0.00     0.162 HD
ENDROOT
BRANCH   2   5
HETATM    5  C   UNL     1      40.438 -15.034   0.781  1.00  0.00     0.156 C 
BRANCH   5   6
HETATM    6  C   UNL     1      40.898 -16.333   0.087  1.00  0.00     0.160 C 
BRANCH   6   7
HETATM    7  O   UNL     1      41.921 -16.049  -0.876  1.00  0.00    -0.392 OA
HETATM    8  H   UNL     1      42.332 -15.192  -0.623  1.00  0.00     0.210 HD
ENDBRANCH   6   7
BRANCH   6   9
HETATM    9  C   UNL     1      41.354 -17.412   1.076  1.00  0.00     0.209 C 
BRANCH   9  10
HETATM   10  O   UNL     1      42.721 -17.177   1.434  1.00  0.00    -0.349 OA
BRANCH  10  11
HETATM   11  C   UNL     1      43.294 -18.118   2.246  1.00  0.00     0.069 A 
HETATM   12  C   UNL     1      43.417 -19.393   1.685  1.00  0.00     0.043 A 
HETATM   13  C   UNL     1      43.990 -20.445   2.409  1.00  0.00    -0.059 A 
HETATM   14  C   UNL     1      44.120 -21.812   1.806  1.00  0.00     0.048 C 
HETATM   15  C   UNL     1      44.411 -20.215   3.723  1.00  0.00     0.007 A 
HETATM   16  C   UNL     1      44.275 -18.950   4.293  1.00  0.00     0.003 A 
HETATM   17  C   UNL     1      43.719 -17.902   3.558  1.00  0.00     0.037 A 
ENDBRANCH  10  11
ENDBRANCH   9  10
ENDBRANCH   6   9
ENDBRANCH   5   6
ENDBRANCH   2   5
BRANCH   1  18
HETATM   18  C   UNL     1      41.906 -14.248   4.131  1.00  0.00     0.075 A 
HETATM   19  C   UNL     1      43.027 -13.413   3.932  1.00  0.00     0.158 A 
HETATM   20  N   UNL     1      43.887 -13.449   4.944  1.00  0.00    -0.183 NA
HETATM   21  N   UNL     1      43.360 -14.366   5.783  1.00  0.00    -0.268 N 
HETATM   22  C   UNL     1      42.114 -14.813   5.383  1.00  0.00     0.052 A 
BRANCH  21  23
HETATM   23  C   UNL     1      44.161 -14.805   6.926  1.00  0.00     0.106 C 
HETATM   24  C   UNL     1      44.819 -16.155   6.620  1.00  0.00     0.034 C 
BRANCH  23  25
HETATM   25  C   UNL     1      45.215 -13.769   7.357  1.00  0.00     0.022 C 
HETATM   26  C   UNL     1      44.711 -12.831   8.446  1.00  0.00     0.007 C 
ENDBRANCH  23  25
ENDBRANCH  21  23
BRANCH  22  27
HETATM   27  C   UNL     1      41.208 -15.726   6.212  1.00  0.00     0.038 A 
HETATM   28  C   UNL     1      40.819 -17.073   5.638  1.00  0.00     0.011 A 
HETATM   29  C   UNL     1      41.716 -17.008   6.827  1.00  0.00     0.011 A 
ENDBRANCH  22  27
ENDBRANCH   1  18
TORSDOF 10
ENDMDL
MODEL 6
REMARK VINA RESULT:      -7.8      5.680      8.854
REMARK  10 active torsions:
REMARK  status: ('A' for Active; 'I' for Inactive)
REMARK    1  A    between atoms: C_2  and  C_3 
REMARK    2  A    between atoms: C_3  and  N_4 
REMARK    3  A    between atoms: C_7  and  C_8 
REMARK       I    between atoms: C_8  and  N_9 
REMARK    4  A    between atoms: N_9  and  C_10 
REMARK    5  A    between atoms: C_10  and  C_11 
REMARK    6  A    between atoms: C_11  and  O_12 
REMARK    7  A    between atoms: C_11  and  C_13 
REMARK    8  A    between atoms: C_13  and  O_14 
REMARK    9  A    between atoms: O_14  and  C_15 
REMARK   10  A    between atoms: C_23  and  C_24 
ROOT
HETATM    1  C   UNL     1      40.334 -13.743   2.585  1.00  0.00     0.255 C 
HETATM    2  N   UNL     1      39.811 -14.681   3.447  1.00  0.00    -0.354 N 
HETATM    3  O   UNL     1      40.645 -12.611   2.937  1.00  0.00    -0.268 OA
HETATM    4  H   UNL     1      39.687 -15.617   3.078  1.00  0.00     0.162 HD
ENDROOT
BRANCH   2   5
HETATM    5  C   UNL     1      39.826 -14.530   4.899  1.00  0.00     0.156 C 
BRANCH   5   6
HETATM    6  C   UNL     1      40.731 -15.490   5.700  1.00  0.00     0.160 C 
BRANCH   6   7
HETATM    7  O   UNL     1      39.952 -16.546   6.277  1.00  0.00    -0.392 OA
HETATM    8  H   UNL     1      40.504 -17.359   6.262  1.00  0.00     0.210 HD
ENDBRANCH   6   7
BRANCH   6   9
HETATM    9  C   UNL     1      41.893 -16.051   4.871  1.00  0.00     0.209 C 
BRANCH   9  10
HETATM   10  O   UNL     1      41.384 -16.999   3.926  1.00  0.00    -0.349 OA
BRANCH  10  11
HETATM   11  C   UNL     1      42.286 -17.916   3.458  1.00  0.00     0.069 A 
HETATM   12  C   UNL     1      43.085 -18.517   4.436  1.00  0.00     0.043 A 
HETATM   13  C   UNL     1      44.045 -19.476   4.090  1.00  0.00    -0.059 A 
HETATM   14  C   UNL     1      44.901 -20.119   5.141  1.00  0.00     0.048 C 
HETATM   15  C   UNL     1      44.223 -19.804   2.743  1.00  0.00     0.007 A 
HETATM   16  C   UNL     1      43.441 -19.195   1.762  1.00  0.00     0.003 A 
HETATM   17  C   UNL     1      42.473 -18.253   2.117  1.00  0.00     0.037 A 
ENDBRANCH  10  11
ENDBRANCH   9  10
ENDBRANCH   6   9
ENDBRANCH   5   6
ENDBRANCH   2   5
BRANCH   1  18
HETATM   18  C   UNL     1      40.531 -14.229   1.237  1.00  0.00     0.075 A 
HETATM   19  C   UNL     1      41.659 -14.954   0.798  1.00  0.00     0.158 A 
HETATM   20  N   UNL     1      41.621 -15.237  -0.500  1.00  0.00    -0.183 NA
HETATM   21  N   UNL     1      40.491 -14.634  -0.929  1.00  0.00    -0.268 N 
HETATM   22  C   UNL     1      39.746 -14.089   0.100  1.00  0.00     0.052 A 
BRANCH  21  23
HETATM   23  C   UNL     1      40.237 -14.577  -2.368  1.00  0.00     0.106 C 
HETATM   24  C   UNL     1      41.179 -13.564  -3.029  1.00  0.00     0.034 C 
BRANCH  23  25
HETATM   25  C   UNL     1      40.344 -15.951  -3.054  1.00  0.00     0.022 C 
HETATM   26  C   UNL     1      39.185 -16.230  -4.003  1.00  0.00     0.007 C 
ENDBRANCH  23  25
ENDBRANCH  21  23
BRANCH  22  27
HETATM   27  C   UNL     1      38.348 -13.487  -0.061  1.00  0.00     0.038 A 
HETATM   28  C   UNL     1      37.202 -14.100   0.715  1.00  0.00     0.011 A 
HETATM   29  C   UNL     1      37.673 -12.728   1.055  1.00  0.00     0.011 A 
ENDBRANCH  22  27
ENDBRANCH   1  18
TORSDOF 10
ENDMDL
MODEL 7
REMARK VINA RESULT:      -7.8      5.690      8.643
REMARK  10 active torsions:
REMARK  status: ('A' for Active; 'I' for Inactive)
REMARK    1  A    between atoms: C_2  and  C_3 
REMARK    2  A    between atoms: C_3  and  N_4 
REMARK    3  A    between atoms: C_7  and  C_8 
REMARK       I    between atoms: C_8  and  N_9 
REMARK    4  A    between atoms: N_9  and  C_10 
REMARK    5  A    between atoms: C_10  and  C_11 
REMARK    6  A    between atoms: C_11  and  O_12 
REMARK    7  A    between atoms: C_11  and  C_13 
REMARK    8  A    between atoms: C_13  and  O_14 
REMARK    9  A    between atoms: O_14  and  C_15 
REMARK   10  A    between atoms: C_23  and  C_24 
ROOT
HETATM    1  C   UNL     1      40.782 -16.127   3.136  1.00  0.00     0.255 C 
HETATM    2  N   UNL     1      40.843 -14.819   3.559  1.00  0.00    -0.354 N 
HETATM    3  O   UNL     1      40.098 -16.493   2.187  1.00  0.00    -0.268 OA
HETATM    4  H   UNL     1      41.518 -14.608   4.285  1.00  0.00     0.162 HD
ENDROOT
BRANCH   2   5
HETATM    5  C   UNL     1      40.329 -13.699   2.776  1.00  0.00     0.156 C 
BRANCH   5   6
HETATM    6  C   UNL     1      41.296 -12.529   2.498  1.00  0.00     0.160 C 
BRANCH   6   7
HETATM    7  O   UNL     1      42.261 -12.417   3.551  1.00  0.00    -0.392 OA
HETATM    8  H   UNL     1      42.943 -13.109   3.398  1.00  0.00     0.210 HD
ENDBRANCH   6   7
BRANCH   6   9
HETATM    9  C   UNL     1      41.981 -12.630   1.129  1.00  0.00     0.209 C 
BRANCH   9  10
HETATM   10  O   UNL     1      41.905 -13.982   0.662  1.00  0.00    -0.349 OA
BRANCH  10  11
HETATM   11  C   UNL     1      41.661 -14.137  -0.676  1.00  0.00     0.069 A 
HETATM   12  C   UNL     1      42.066 -13.069  -1.482  1.00  0.00     0.043 A 
HETATM   13  C   UNL     1      41.878 -13.103  -2.869  1.00  0.00    -0.059 A 
HETATM   14  C   UNL     1      42.313 -11.956  -3.732  1.00  0.00     0.048 C 
HETATM   15  C   UNL     1      41.244 -14.210  -3.441  1.00  0.00     0.007 A 
HETATM   16  C   UNL     1      40.822 -15.271  -2.640  1.00  0.00     0.003 A 
HETATM   17  C   UNL     1      41.030 -15.236  -1.259  1.00  0.00     0.037 A 
ENDBRANCH  10  11
ENDBRANCH   9  10
ENDBRANCH   6   9
ENDBRANCH   5   6
ENDBRANCH   2   5
BRANCH   1  18
HETATM   18  C   UNL     1      41.638 -17.026   3.879  1.00  0.00     0.075 A 
HETATM   19  C   UNL     1      41.296 -17.637   5.105  1.00  0.00     0.158 A 
HETATM   20  N   UNL     1      42.280 -18.376   5.608  1.00  0.00    -0.183 NA
HETATM   21  N   UNL     1      43.298 -18.193   4.739  1.00  0.00    -0.268 N 
HETATM   22  C   UNL     1      42.933 -17.459   3.626  1.00  0.00     0.052 A 
BRANCH  21  23
HETATM   23  C   UNL     1      44.618 -18.714   5.095  1.00  0.00     0.106 C 
HETATM   24  C   UNL     1      45.092 -18.090   6.412  1.00  0.00     0.034 C 
BRANCH  23  25
HETATM   25  C   UNL     1      44.659 -20.250   5.173  1.00  0.00     0.022 C 
HETATM   26  C   UNL     1      44.727 -20.910   3.802  1.00  0.00     0.007 C 
ENDBRANCH  23  25
ENDBRANCH  21  23
BRANCH  22  27
HETATM   27  C   UNL     1      43.824 -17.230   2.403  1.00  0.00     0.038 A 
HETATM   28  C   UNL     1      43.985 -18.355   1.403  1.00  0.00     0.011 A 
HETATM   29  C   UNL     1      43.255 -17.117   1.010  1.00  0.00     0.011 A 
ENDBRANCH  22  27
ENDBRANCH   1  18
TORSDOF 10
ENDMDL
MODEL 8
REMARK VINA RESULT:      -7.8      4.012      8.318
REMARK  10 active torsions:
REMARK  status: ('A' for Active; 'I' for Inactive)
REMARK    1  A    between atoms: C_2  and  C_3 
REMARK    2  A    between atoms: C_3  and  N_4 
REMARK    3  A    between atoms: C_7  and  C_8 
REMARK       I    between atoms: C_8  and  N_9 
REMARK    4  A    between atoms: N_9  and  C_10 
REMARK    5  A    between atoms: C_10  and  C_11 
REMARK    6  A    between atoms: C_11  and  O_12 
REMARK    7  A    between atoms: C_11  and  C_13 
REMARK    8  A    between atoms: C_13  and  O_14 
REMARK    9  A    between atoms: O_14  and  C_15 
REMARK   10  A    between atoms: C_23  and  C_24 
ROOT
HETATM    1  C   UNL     1      42.935 -15.829   6.129  1.00  0.00     0.255 C 
HETATM    2  N   UNL     1      42.412 -16.658   7.096  1.00  0.00    -0.354 N 
HETATM    3  O   UNL     1      44.033 -15.293   6.228  1.00  0.00    -0.268 OA
HETATM    4  H   UNL     1      41.545 -17.131   6.868  1.00  0.00     0.162 HD
ENDROOT
BRANCH   2   5
HETATM    5  C   UNL     1      43.202 -17.200   8.197  1.00  0.00     0.156 C 
BRANCH   5   6
HETATM    6  C   UNL     1      44.104 -18.413   7.889  1.00  0.00     0.160 C 
BRANCH   6   7
HETATM    7  O   UNL     1      44.179 -19.281   9.027  1.00  0.00    -0.392 OA
HETATM    8  H   UNL     1      43.627 -18.883   9.736  1.00  0.00     0.210 HD
ENDBRANCH   6   7
BRANCH   6   9
HETATM    9  C   UNL     1      43.668 -19.182   6.635  1.00  0.00     0.209 C 
BRANCH   9  10
HETATM   10  O   UNL     1      44.824 -19.506   5.855  1.00  0.00    -0.349 OA
BRANCH  10  11
HETATM   11  C   UNL     1      44.579 -19.973   4.592  1.00  0.00     0.069 A 
HETATM   12  C   UNL     1      44.131 -19.013   3.680  1.00  0.00     0.043 A 
HETATM   13  C   UNL     1      43.847 -19.360   2.353  1.00  0.00    -0.059 A 
HETATM   14  C   UNL     1      43.365 -18.328   1.376  1.00  0.00     0.048 C 
HETATM   15  C   UNL     1      43.984 -20.693   1.955  1.00  0.00     0.007 A 
HETATM   16  C   UNL     1      44.414 -21.658   2.866  1.00  0.00     0.003 A 
HETATM   17  C   UNL     1      44.712 -21.300   4.182  1.00  0.00     0.037 A 
ENDBRANCH  10  11
ENDBRANCH   9  10
ENDBRANCH   6   9
ENDBRANCH   5   6
ENDBRANCH   2   5
BRANCH   1  18
HETATM   18  C   UNL     1      42.095 -15.688   4.959  1.00  0.00     0.075 A 
HETATM   19  C   UNL     1      41.472 -16.757   4.279  1.00  0.00     0.158 A 
HETATM   20  N   UNL     1      40.798 -16.365   3.203  1.00  0.00    -0.183 NA
HETATM   21  N   UNL     1      41.036 -15.037   3.139  1.00  0.00    -0.268 N 
HETATM   22  C   UNL     1      41.739 -14.560   4.230  1.00  0.00     0.052 A 
BRANCH  21  23
HETATM   23  C   UNL     1      40.599 -14.309   1.948  1.00  0.00     0.106 C 
HETATM   24  C   UNL     1      40.696 -15.212   0.713  1.00  0.00     0.034 C 
BRANCH  23  25
HETATM   25  C   UNL     1      39.182 -13.723   2.086  1.00  0.00     0.022 C 
HETATM   26  C   UNL     1      38.165 -14.419   1.191  1.00  0.00     0.007 C 
ENDBRANCH  23  25
ENDBRANCH  21  23
BRANCH  22  27
HETATM   27  C   UNL     1      42.014 -13.082   4.511  1.00  0.00     0.038 A 
HETATM   28  C   UNL     1      40.861 -12.200   4.941  1.00  0.00     0.011 A 
HETATM   29  C   UNL     1      41.954 -12.510   5.906  1.00  0.00     0.011 A 
ENDBRANCH  22  27
ENDBRANCH   1  18
TORSDOF 10
ENDMDL
MODEL 9
REMARK VINA RESULT:      -7.6      5.293      8.295
REMARK  10 active torsions:
REMARK  status: ('A' for Active; 'I' for Inactive)
REMARK    1  A    between atoms: C_2  and  C_3 
REMARK    2  A    between atoms: C_3  and  N_4 
REMARK    3  A    between atoms: C_7  and  C_8 
REMARK       I    between atoms: C_8  and  N_9 
REMARK    4  A    between atoms: N_9  and  C_10 
REMARK    5  A    between atoms: C_10  and  C_11 
REMARK    6  A    between atoms: C_11  and  O_12 
REMARK    7  A    between atoms: C_11  and  C_13 
REMARK    8  A    between atoms: C_13  and  O_14 
REMARK    9  A    between atoms: O_14  and  C_15 
REMARK   10  A    between atoms: C_23  and  C_24 
ROOT
HETATM    1  C   UNL     1      42.522 -15.460   4.448  1.00  0.00     0.255 C 
HETATM    2  N   UNL     1      41.404 -15.124   3.719  1.00  0.00    -0.354 N 
HETATM    3  O   UNL     1      43.155 -14.651   5.117  1.00  0.00    -0.268 OA
HETATM    4  H   UNL     1      40.897 -15.888   3.288  1.00  0.00     0.162 HD
ENDROOT
BRANCH   2   5
HETATM    5  C   UNL     1      40.699 -13.855   3.875  1.00  0.00     0.156 C 
BRANCH   5   6
HETATM    6  C   UNL     1      41.286 -12.627   3.149  1.00  0.00     0.160 C 
BRANCH   6   7
HETATM    7  O   UNL     1      42.192 -11.924   4.009  1.00  0.00    -0.392 OA
HETATM    8  H   UNL     1      42.299 -12.463   4.824  1.00  0.00     0.210 HD
ENDBRANCH   6   7
BRANCH   6   9
HETATM    9  C   UNL     1      41.953 -12.981   1.814  1.00  0.00     0.209 C 
BRANCH   9  10
HETATM   10  O   UNL     1      41.010 -13.668   0.984  1.00  0.00    -0.349 OA
BRANCH  10  11
HETATM   11  C   UNL     1      41.301 -13.691  -0.354  1.00  0.00     0.069 A 
HETATM   12  C   UNL     1      40.695 -14.724  -1.076  1.00  0.00     0.043 A 
HETATM   13  C   UNL     1      40.907 -14.858  -2.454  1.00  0.00    -0.059 A 
HETATM   14  C   UNL     1      40.256 -15.966  -3.226  1.00  0.00     0.048 C 
HETATM   15  C   UNL     1      41.766 -13.963  -3.099  1.00  0.00     0.007 A 
HETATM   16  C   UNL     1      42.387 -12.941  -2.380  1.00  0.00     0.003 A 
HETATM   17  C   UNL     1      42.156 -12.804  -1.010  1.00  0.00     0.037 A 
ENDBRANCH  10  11
ENDBRANCH   9  10
ENDBRANCH   6   9
ENDBRANCH   5   6
ENDBRANCH   2   5
BRANCH   1  18
HETATM   18  C   UNL     1      42.856 -16.867   4.397  1.00  0.00     0.075 A 
HETATM   19  C   UNL     1      42.567 -17.803   5.414  1.00  0.00     0.158 A 
HETATM   20  N   UNL     1      43.027 -19.020   5.145  1.00  0.00    -0.183 NA
HETATM   21  N   UNL     1      43.681 -18.867   3.973  1.00  0.00    -0.268 N 
HETATM   22  C   UNL     1      43.529 -17.604   3.431  1.00  0.00     0.052 A 
BRANCH  21  23
HETATM   23  C   UNL     1      44.486 -19.981   3.475  1.00  0.00     0.106 C 
HETATM   24  C   UNL     1      45.153 -20.714   4.645  1.00  0.00     0.034 C 
BRANCH  23  25
HETATM   25  C   UNL     1      43.682 -20.963   2.604  1.00  0.00     0.022 C 
HETATM   26  C   UNL     1      44.571 -21.889   1.784  1.00  0.00     0.007 C 
ENDBRANCH  23  25
ENDBRANCH  21  23
BRANCH  22  27
HETATM   27  C   UNL     1      44.019 -17.188   2.042  1.00  0.00     0.038 A 
HETATM   28  C   UNL     1      43.517 -17.956   0.838  1.00  0.00     0.011 A 
HETATM   29  C   UNL     1      43.101 -16.539   1.035  1.00  0.00     0.011 A 
ENDBRANCH  22  27
ENDBRANCH   1  18
TORSDOF 10
ENDMDL
MODEL 10
REMARK VINA RESULT:      -7.5      5.292      8.778
REMARK  10 active torsions:
REMARK  status: ('A' for Active; 'I' for Inactive)
REMARK    1  A    between atoms: C_2  and  C_3 
REMARK    2  A    between atoms: C_3  and  N_4 
REMARK    3  A    between atoms: C_7  and  C_8 
REMARK       I    between atoms: C_8  and  N_9 
REMARK    4  A    between atoms: N_9  and  C_10 
REMARK    5  A    between atoms: C_10  and  C_11 
REMARK    6  A    between atoms: C_11  and  O_12 
REMARK    7  A    between atoms: C_11  and  C_13 
REMARK    8  A    between atoms: C_13  and  O_14 
REMARK    9  A    between atoms: O_14  and  C_15 
REMARK   10  A    between atoms: C_23  and  C_24 
ROOT
HETATM    1  C   UNL     1      42.018 -14.053   2.282  1.00  0.00     0.255 C 
HETATM    2  N   UNL     1      41.302 -14.540   3.353  1.00  0.00    -0.354 N 
HETATM    3  O   UNL     1      42.963 -13.283   2.402  1.00  0.00    -0.268 OA
HETATM    4  H   UNL     1      40.609 -15.251   3.150  1.00  0.00     0.162 HD
ENDROOT
BRANCH   2   5
HETATM    5  C   UNL     1      41.750 -14.415   4.736  1.00  0.00     0.156 C 
BRANCH   5   6
HETATM    6  C   UNL     1      41.049 -15.301   5.788  1.00  0.00     0.160 C 
BRANCH   6   7
HETATM    7  O   UNL     1      39.626 -15.153   5.697  1.00  0.00    -0.392 OA
HETATM    8  H   UNL     1      39.328 -14.680   6.505  1.00  0.00     0.210 HD
ENDBRANCH   6   7
BRANCH   6   9
HETATM    9  C   UNL     1      41.459 -16.776   5.699  1.00  0.00     0.209 C 
BRANCH   9  10
HETATM   10  O   UNL     1      42.043 -17.027   4.416  1.00  0.00    -0.349 OA
BRANCH  10  11
HETATM   11  C   UNL     1      42.981 -18.022   4.373  1.00  0.00     0.069 A 
HETATM   12  C   UNL     1      42.950 -18.819   3.225  1.00  0.00     0.043 A 
HETATM   13  C   UNL     1      43.860 -19.871   3.054  1.00  0.00    -0.059 A 
HETATM   14  C   UNL     1      43.824 -20.724   1.822  1.00  0.00     0.048 C 
HETATM   15  C   UNL     1      44.784 -20.140   4.068  1.00  0.00     0.007 A 
HETATM   16  C   UNL     1      44.808 -19.359   5.224  1.00  0.00     0.003 A 
HETATM   17  C   UNL     1      43.909 -18.301   5.377  1.00  0.00     0.037 A 
ENDBRANCH  10  11
ENDBRANCH   9  10
ENDBRANCH   6   9
ENDBRANCH   5   6
ENDBRANCH   2   5
BRANCH   1  18
HETATM   18  C   UNL     1      41.587 -14.574   1.003  1.00  0.00     0.075 A 
HETATM   19  C   UNL     1      41.826 -15.888   0.544  1.00  0.00     0.158 A 
HETATM   20  N   UNL     1      41.373 -16.098  -0.688  1.00  0.00    -0.183 NA
HETATM   21  N   UNL     1      40.893 -14.893  -1.065  1.00  0.00    -0.268 N 
HETATM   22  C   UNL     1      40.914 -13.959  -0.046  1.00  0.00     0.052 A 
BRANCH  21  23
HETATM   23  C   UNL     1      40.489 -14.711  -2.459  1.00  0.00     0.106 C 
HETATM   24  C   UNL     1      41.571 -13.940  -3.225  1.00  0.00     0.034 C 
BRANCH  23  25
HETATM   25  C   UNL     1      40.158 -16.036  -3.169  1.00  0.00     0.022 C 
HETATM   26  C   UNL     1      39.030 -15.898  -4.182  1.00  0.00     0.007 C 
ENDBRANCH  23  25
ENDBRANCH  21  23
BRANCH  22  27
HETATM   27  C   UNL     1      40.290 -12.565  -0.129  1.00  0.00     0.038 A 
HETATM   28  C   UNL     1      38.823 -12.406   0.211  1.00  0.00     0.011 A 
HETATM   29  C   UNL     1      39.857 -11.810   1.104  1.00  0.00     0.011 A 
ENDBRANCH  22  27
ENDBRANCH   1  18
TORSDOF 10
ENDMDL
