MODEL 1
REMARK VINA RESULT:      -8.1      0.000      0.000
REMARK  3 active torsions:
REMARK  status: ('A' for Active; 'I' for Inactive)
REMARK    1  A    between atoms: C_9  and  C_10 
REMARK    2  A    between atoms: C_16  and  C_17 
REMARK       I    between atoms: C_17  and  N_18 
REMARK    3  A    between atoms: N_18  and  C_19 
ROOT
HETATM    1  C   UNL     1      41.315 -16.627   0.257  1.00  0.00     0.070 C 
HETATM    2  C   UNL     1      41.686 -15.856   1.499  1.00  0.00     0.037 C 
HETATM    3  N   UNL     1      40.999 -14.661   1.693  1.00  0.00    -0.192 N 
HETATM    4  C   UNL     1      41.377 -13.742   2.602  1.00  0.00     0.725 A 
HETATM    5  N   UNL     1      42.371 -14.046   3.494  1.00  0.00    -0.082 N 
HETATM    6  N   UNL     1      42.721 -12.963   4.226  1.00  0.00    -0.149 NA
HETATM    7  C   UNL     1      41.836 -12.067   3.772  1.00  0.00     0.275 A 
HETATM    8  N   UNL     1      40.997 -12.501   2.779  1.00  0.00    -0.054 NA
HETATM    9  C   UNL     1      43.054 -15.339   3.552  1.00  0.00     0.221 C 
HETATM   10  C   UNL     1      42.664 -16.215   2.368  1.00  0.00     0.064 C 
HETATM   11  H   UNL     1      40.332 -14.381   0.981  1.00  0.00     0.184 HD
ENDROOT
BRANCH  10  12
HETATM   12  C   UNL     1      43.524 -17.417   2.220  1.00  0.00     0.257 C 
HETATM   13  N   UNL     1      43.112 -18.480   2.986  1.00  0.00    -0.308 N 
HETATM   14  H   UNL     1      42.356 -18.326   3.637  1.00  0.00     0.170 HD
HETATM   15  O   UNL     1      44.502 -17.336   1.488  1.00  0.00    -0.267 OA
BRANCH  13  16
HETATM   16  C   UNL     1      43.650 -19.772   2.923  1.00  0.00     0.129 A 
HETATM   17  N   UNL     1      44.425 -20.242   3.915  1.00  0.00    -0.243 NA
HETATM   18  C   UNL     1      44.944 -21.481   3.787  1.00  0.00     0.119 A 
HETATM   19  C   UNL     1      44.737 -22.290   2.685  1.00  0.00     0.019 A 
HETATM   20  C   UNL     1      43.942 -21.796   1.660  1.00  0.00     0.005 A 
HETATM   21  C   UNL     1      43.385 -20.523   1.780  1.00  0.00     0.050 A 
ENDBRANCH  13  16
ENDBRANCH  10  12
BRANCH   9  22
HETATM   22  C   UNL     1      42.742 -15.992   4.894  1.00  0.00     0.064 A 
HETATM   23  N   UNL     1      41.484 -16.473   5.108  1.00  0.00    -0.263 NA
HETATM   24  C   UNL     1      41.212 -16.982   6.331  1.00  0.00     0.117 A 
HETATM   25  C   UNL     1      42.132 -17.052   7.362  1.00  0.00     0.019 A 
HETATM   26  C   UNL     1      43.415 -16.573   7.130  1.00  0.00     0.003 A 
HETATM   27  C   UNL     1      43.727 -16.034   5.886  1.00  0.00     0.030 A 
ENDBRANCH   9  22
TORSDOF 3
ENDMDL
MODEL 2
REMARK VINA RESULT:      -8.0      1.817      3.894
REMARK  3 active torsions:
REMARK  status: ('A' for Active; 'I' for Inactive)
REMARK    1  A    between atoms: C_9  and  C_10 
REMARK    2  A    between atoms: C_16  and  C_17 
REMARK       I    between atoms: C_17  and  N_18 
REMARK    3  A    between atoms: N_18  and  C_19 
ROOT
HETATM    1  C   UNL     1      44.239 -16.064   6.687  1.00  0.00     0.070 C 
HETATM    2  C   UNL     1      43.123 -15.367   5.951  1.00  0.00     0.037 C 
HETATM    3  N   UNL     1      42.935 -14.025   6.273  1.00  0.00    -0.192 N 
HETATM    4  C   UNL     1      41.843 -13.331   5.901  1.00  0.00     0.725 A 
HETATM    5  N   UNL     1      40.948 -13.898   5.033  1.00  0.00    -0.082 N 
HETATM    6  N   UNL     1      39.846 -13.125   4.891  1.00  0.00    -0.149 NA
HETATM    7  C   UNL     1      40.189 -12.072   5.643  1.00  0.00     0.275 A 
HETATM    8  N   UNL     1      41.401 -12.158   6.279  1.00  0.00    -0.054 NA
HETATM    9  C   UNL     1      41.108 -15.227   4.442  1.00  0.00     0.221 C 
HETATM   10  C   UNL     1      42.278 -15.969   5.077  1.00  0.00     0.064 C 
HETATM   11  H   UNL     1      43.532 -13.626   6.992  1.00  0.00     0.184 HD
ENDROOT
BRANCH  10  12
HETATM   12  C   UNL     1      42.320 -17.411   4.723  1.00  0.00     0.257 C 
HETATM   13  N   UNL     1      43.336 -17.729   3.855  1.00  0.00    -0.308 N 
HETATM   14  H   UNL     1      43.877 -16.971   3.466  1.00  0.00     0.170 HD
HETATM   15  O   UNL     1      41.455 -18.141   5.187  1.00  0.00    -0.267 OA
BRANCH  13  16
HETATM   16  C   UNL     1      43.693 -19.030   3.478  1.00  0.00     0.129 A 
HETATM   17  N   UNL     1      44.501 -19.772   4.254  1.00  0.00    -0.243 NA
HETATM   18  C   UNL     1      44.839 -21.007   3.827  1.00  0.00     0.119 A 
HETATM   19  C   UNL     1      44.414 -21.547   2.627  1.00  0.00     0.019 A 
HETATM   20  C   UNL     1      43.585 -20.773   1.826  1.00  0.00     0.005 A 
HETATM   21  C   UNL     1      43.214 -19.500   2.257  1.00  0.00     0.050 A 
ENDBRANCH  13  16
ENDBRANCH  10  12
BRANCH   9  22
HETATM   22  C   UNL     1      41.261 -15.072   2.933  1.00  0.00     0.064 A 
HETATM   23  N   UNL     1      42.062 -14.076   2.458  1.00  0.00    -0.263 NA
HETATM   24  C   UNL     1      42.124 -13.912   1.117  1.00  0.00     0.117 A 
HETATM   25  C   UNL     1      41.437 -14.699   0.210  1.00  0.00     0.019 A 
HETATM   26  C   UNL     1      40.635 -15.720   0.702  1.00  0.00     0.003 A 
HETATM   27  C   UNL     1      40.540 -15.910   2.077  1.00  0.00     0.030 A 
ENDBRANCH   9  22
TORSDOF 3
ENDMDL
MODEL 3
REMARK VINA RESULT:      -7.5      2.263      5.639
REMARK  3 active torsions:
REMARK  status: ('A' for Active; 'I' for Inactive)
REMARK    1  A    between atoms: C_9  and  C_10 
REMARK    2  A    between atoms: C_16  and  C_17 
REMARK       I    between atoms: C_17  and  N_18 
REMARK    3  A    between atoms: N_18  and  C_19 
ROOT
HETATM    1  C   UNL     1      43.833 -18.072   1.746  1.00  0.00     0.070 C 
HETATM    2  C   UNL     1      43.249 -17.559   3.038  1.00  0.00     0.037 C 
HETATM    3  N   UNL     1      43.985 -17.842   4.185  1.00  0.00    -0.192 N 
HETATM    4  C   UNL     1      43.492 -17.680   5.428  1.00  0.00     0.725 A 
HETATM    5  N   UNL     1      42.284 -17.056   5.596  1.00  0.00    -0.082 N 
HETATM    6  N   UNL     1      41.878 -17.115   6.886  1.00  0.00    -0.149 NA
HETATM    7  C   UNL     1      42.934 -17.719   7.446  1.00  0.00     0.275 A 
HETATM    8  N   UNL     1      43.941 -18.082   6.590  1.00  0.00    -0.054 NA
HETATM    9  C   UNL     1      41.480 -16.516   4.500  1.00  0.00     0.221 C 
HETATM   10  C   UNL     1      42.057 -16.921   3.149  1.00  0.00     0.064 C 
HETATM   11  H   UNL     1      44.832 -18.393   4.077  1.00  0.00     0.184 HD
ENDROOT
BRANCH  10  12
HETATM   12  C   UNL     1      41.142 -16.642   2.012  1.00  0.00     0.257 C 
HETATM   13  N   UNL     1      41.466 -15.501   1.320  1.00  0.00    -0.308 N 
HETATM   14  H   UNL     1      42.201 -14.917   1.692  1.00  0.00     0.170 HD
HETATM   15  O   UNL     1      40.201 -17.404   1.834  1.00  0.00    -0.267 OA
BRANCH  13  16
HETATM   16  C   UNL     1      40.864 -15.089   0.124  1.00  0.00     0.129 A 
HETATM   17  N   UNL     1      39.882 -14.172   0.130  1.00  0.00    -0.243 NA
HETATM   18  C   UNL     1      39.314 -13.837  -1.048  1.00  0.00     0.119 A 
HETATM   19  C   UNL     1      39.675 -14.395  -2.260  1.00  0.00     0.019 A 
HETATM   20  C   UNL     1      40.685 -15.348  -2.259  1.00  0.00     0.005 A 
HETATM   21  C   UNL     1      41.293 -15.697  -1.054  1.00  0.00     0.050 A 
ENDBRANCH  13  16
ENDBRANCH  10  12
BRANCH   9  22
HETATM   22  C   UNL     1      41.386 -15.003   4.667  1.00  0.00     0.064 A 
HETATM   23  N   UNL     1      42.447 -14.237   4.284  1.00  0.00    -0.263 NA
HETATM   24  C   UNL     1      42.369 -12.906   4.510  1.00  0.00     0.117 A 
HETATM   25  C   UNL     1      41.278 -12.283   5.091  1.00  0.00     0.019 A 
HETATM   26  C   UNL     1      40.196 -13.069   5.464  1.00  0.00     0.003 A 
HETATM   27  C   UNL     1      40.247 -14.444   5.255  1.00  0.00     0.030 A 
ENDBRANCH   9  22
TORSDOF 3
ENDMDL
MODEL 4
REMARK VINA RESULT:      -7.2      2.303      6.170
REMARK  3 active torsions:
REMARK  status: ('A' for Active; 'I' for Inactive)
REMARK    1  A    between atoms: C_9  and  C_10 
REMARK    2  A    between atoms: C_16  and  C_17 
REMARK       I    between atoms: C_17  and  N_18 
REMARK    3  A    between atoms: N_18  and  C_19 
ROOT
HETATM    1  C   UNL     1      40.045 -14.274   5.477  1.00  0.00     0.070 C 
HETATM    2  C   UNL     1      41.238 -15.196   5.455  1.00  0.00     0.037 C 
HETATM    3  N   UNL     1      41.330 -16.085   6.523  1.00  0.00    -0.192 N 
HETATM    4  C   UNL     1      42.444 -16.795   6.787  1.00  0.00     0.725 A 
HETATM    5  N   UNL     1      43.478 -16.784   5.889  1.00  0.00    -0.082 N 
HETATM    6  N   UNL     1      44.563 -17.423   6.384  1.00  0.00    -0.149 NA
HETATM    7  C   UNL     1      44.076 -17.862   7.552  1.00  0.00     0.275 A 
HETATM    8  N   UNL     1      42.785 -17.499   7.837  1.00  0.00    -0.054 NA
HETATM    9  C   UNL     1      43.453 -16.060   4.618  1.00  0.00     0.221 C 
HETATM   10  C   UNL     1      42.225 -15.164   4.525  1.00  0.00     0.064 C 
HETATM   11  H   UNL     1      40.619 -16.028   7.246  1.00  0.00     0.184 HD
ENDROOT
BRANCH  10  12
HETATM   12  C   UNL     1      42.284 -14.203   3.393  1.00  0.00     0.257 C 
HETATM   13  N   UNL     1      41.522 -14.585   2.315  1.00  0.00    -0.308 N 
HETATM   14  H   UNL     1      41.092 -15.497   2.343  1.00  0.00     0.170 HD
HETATM   15  O   UNL     1      43.008 -13.224   3.509  1.00  0.00    -0.267 OA
BRANCH  13  16
HETATM   16  C   UNL     1      41.281 -13.796   1.183  1.00  0.00     0.129 A 
HETATM   17  N   UNL     1      40.603 -12.640   1.283  1.00  0.00    -0.243 NA
HETATM   18  C   UNL     1      40.371 -11.937   0.155  1.00  0.00     0.119 A 
HETATM   19  C   UNL     1      40.777 -12.345  -1.102  1.00  0.00     0.019 A 
HETATM   20  C   UNL     1      41.471 -13.544  -1.200  1.00  0.00     0.005 A 
HETATM   21  C   UNL     1      41.733 -14.278  -0.044  1.00  0.00     0.050 A 
ENDBRANCH  13  16
ENDBRANCH  10  12
BRANCH   9  22
HETATM   22  C   UNL     1      43.526 -17.074   3.481  1.00  0.00     0.064 A 
HETATM   23  N   UNL     1      43.966 -16.653   2.260  1.00  0.00    -0.263 NA
HETATM   24  C   UNL     1      43.953 -17.552   1.250  1.00  0.00     0.117 A 
HETATM   25  C   UNL     1      43.535 -18.864   1.387  1.00  0.00     0.019 A 
HETATM   26  C   UNL     1      43.102 -19.287   2.637  1.00  0.00     0.003 A 
HETATM   27  C   UNL     1      43.093 -18.385   3.697  1.00  0.00     0.030 A 
ENDBRANCH   9  22
TORSDOF 3
ENDMDL
MODEL 5
REMARK VINA RESULT:      -7.2      2.906      4.573
REMARK  3 active torsions:
REMARK  status: ('A' for Active; 'I' for Inactive)
REMARK    1  A    between atoms: C_9  and  C_10 
REMARK    2  A    between atoms: C_16  and  C_17 
REMARK       I    between atoms: C_17  and  N_18 
REMARK    3  A    between atoms: N_18  and  C_19 
ROOT
HETATM    1  C   UNL     1      40.942 -15.781  -2.181  1.00  0.00     0.070 C 
HETATM    2  C   UNL     1      41.307 -14.518  -1.442  1.00  0.00     0.037 C 
HETATM    3  N   UNL     1      41.394 -13.368  -2.222  1.00  0.00    -0.192 N 
HETATM    4  C   UNL     1      41.944 -12.223  -1.776  1.00  0.00     0.725 A 
HETATM    5  N   UNL     1      42.286 -12.111  -0.455  1.00  0.00    -0.082 N 
HETATM    6  N   UNL     1      42.958 -10.961  -0.219  1.00  0.00    -0.149 NA
HETATM    7  C   UNL     1      42.908 -10.396  -1.432  1.00  0.00     0.275 A 
HETATM    8  N   UNL     1      42.299 -11.135  -2.412  1.00  0.00    -0.054 NA
HETATM    9  C   UNL     1      42.069 -13.161   0.541  1.00  0.00     0.221 C 
HETATM   10  C   UNL     1      41.612 -14.455  -0.122  1.00  0.00     0.064 C 
HETATM   11  H   UNL     1      41.240 -13.465  -3.222  1.00  0.00     0.184 HD
ENDROOT
BRANCH  10  12
HETATM   12  C   UNL     1      41.643 -15.625   0.792  1.00  0.00     0.257 C 
HETATM   13  N   UNL     1      42.899 -16.158   0.954  1.00  0.00    -0.308 N 
HETATM   14  H   UNL     1      43.643 -15.792   0.379  1.00  0.00     0.170 HD
HETATM   15  O   UNL     1      40.582 -16.012   1.264  1.00  0.00    -0.267 OA
BRANCH  13  16
HETATM   16  C   UNL     1      43.232 -17.165   1.870  1.00  0.00     0.129 A 
HETATM   17  N   UNL     1      43.368 -16.885   3.177  1.00  0.00    -0.243 NA
HETATM   18  C   UNL     1      43.723 -17.886   4.010  1.00  0.00     0.119 A 
HETATM   19  C   UNL     1      43.972 -19.181   3.592  1.00  0.00     0.019 A 
HETATM   20  C   UNL     1      43.838 -19.461   2.239  1.00  0.00     0.005 A 
HETATM   21  C   UNL     1      43.458 -18.443   1.365  1.00  0.00     0.050 A 
ENDBRANCH  13  16
ENDBRANCH  10  12
BRANCH   9  22
HETATM   22  C   UNL     1      41.074 -12.650   1.577  1.00  0.00     0.064 A 
HETATM   23  N   UNL     1      41.510 -12.446   2.853  1.00  0.00    -0.263 NA
HETATM   24  C   UNL     1      40.593 -12.063   3.770  1.00  0.00     0.117 A 
HETATM   25  C   UNL     1      39.254 -11.856   3.486  1.00  0.00     0.019 A 
HETATM   26  C   UNL     1      38.823 -12.052   2.181  1.00  0.00     0.003 A 
HETATM   27  C   UNL     1      39.738 -12.456   1.213  1.00  0.00     0.030 A 
ENDBRANCH   9  22
TORSDOF 3
ENDMDL
MODEL 6
REMARK VINA RESULT:      -6.9      2.179      5.926
REMARK  3 active torsions:
REMARK  status: ('A' for Active; 'I' for Inactive)
REMARK    1  A    between atoms: C_9  and  C_10 
REMARK    2  A    between atoms: C_16  and  C_17 
REMARK       I    between atoms: C_17  and  N_18 
REMARK    3  A    between atoms: N_18  and  C_19 
ROOT
HETATM    1  C   UNL     1      43.762 -18.257   1.530  1.00  0.00     0.070 C 
HETATM    2  C   UNL     1      43.582 -18.098   3.019  1.00  0.00     0.037 C 
HETATM    3  N   UNL     1      44.270 -19.014   3.810  1.00  0.00    -0.192 N 
HETATM    4  C   UNL     1      44.028 -19.170   5.125  1.00  0.00     0.725 A 
HETATM    5  N   UNL     1      43.196 -18.290   5.765  1.00  0.00    -0.082 N 
HETATM    6  N   UNL     1      42.949 -18.685   7.036  1.00  0.00    -0.149 NA
HETATM    7  C   UNL     1      43.734 -19.767   7.111  1.00  0.00     0.275 A 
HETATM    8  N   UNL     1      44.409 -20.099   5.965  1.00  0.00    -0.054 NA
HETATM    9  C   UNL     1      42.554 -17.147   5.115  1.00  0.00     0.221 C 
HETATM   10  C   UNL     1      42.764 -17.189   3.607  1.00  0.00     0.064 C 
HETATM   11  H   UNL     1      44.809 -19.733   3.336  1.00  0.00     0.184 HD
ENDROOT
BRANCH  10  12
HETATM   12  C   UNL     1      41.913 -16.221   2.868  1.00  0.00     0.257 C 
HETATM   13  N   UNL     1      42.600 -15.115   2.430  1.00  0.00    -0.308 N 
HETATM   14  H   UNL     1      43.559 -15.009   2.727  1.00  0.00     0.170 HD
HETATM   15  O   UNL     1      40.720 -16.472   2.760  1.00  0.00    -0.267 OA
BRANCH  13  16
HETATM   16  C   UNL     1      42.077 -14.126   1.587  1.00  0.00     0.129 A 
HETATM   17  N   UNL     1      41.765 -14.408   0.310  1.00  0.00    -0.243 NA
HETATM   18  C   UNL     1      41.295 -13.410  -0.467  1.00  0.00     0.119 A 
HETATM   19  C   UNL     1      41.132 -12.108  -0.030  1.00  0.00     0.019 A 
HETATM   20  C   UNL     1      41.464 -11.822   1.287  1.00  0.00     0.005 A 
HETATM   21  C   UNL     1      41.937 -12.843   2.110  1.00  0.00     0.050 A 
ENDBRANCH  13  16
ENDBRANCH  10  12
BRANCH   9  22
HETATM   22  C   UNL     1      43.089 -15.866   5.746  1.00  0.00     0.064 A 
HETATM   23  N   UNL     1      42.397 -14.707   5.555  1.00  0.00    -0.263 NA
HETATM   24  C   UNL     1      42.930 -13.572   6.063  1.00  0.00     0.117 A 
HETATM   25  C   UNL     1      44.120 -13.525   6.768  1.00  0.00     0.019 A 
HETATM   26  C   UNL     1      44.810 -14.712   6.970  1.00  0.00     0.003 A 
HETATM   27  C   UNL     1      44.295 -15.897   6.453  1.00  0.00     0.030 A 
ENDBRANCH   9  22
TORSDOF 3
ENDMDL
MODEL 7
REMARK VINA RESULT:      -6.9      2.768      5.622
REMARK  3 active torsions:
REMARK  status: ('A' for Active; 'I' for Inactive)
REMARK    1  A    between atoms: C_9  and  C_10 
REMARK    2  A    between atoms: C_16  and  C_17 
REMARK       I    between atoms: C_17  and  N_18 
REMARK    3  A    between atoms: N_18  and  C_19 
ROOT
HETATM    1  C   UNL     1      39.414 -12.088   2.625  1.00  0.00     0.070 C 
HETATM    2  C   UNL     1      40.646 -12.827   3.085  1.00  0.00     0.037 C 
HETATM    3  N   UNL     1      40.889 -12.798   4.455  1.00  0.00    -0.192 N 
HETATM    4  C   UNL     1      42.058 -13.187   4.997  1.00  0.00     0.725 A 
HETATM    5  N   UNL     1      42.998 -13.794   4.207  1.00  0.00    -0.082 N 
HETATM    6  N   UNL     1      44.158 -13.978   4.878  1.00  0.00    -0.149 NA
HETATM    7  C   UNL     1      43.811 -13.530   6.091  1.00  0.00     0.275 A 
HETATM    8  N   UNL     1      42.538 -13.036   6.207  1.00  0.00    -0.054 NA
HETATM    9  C   UNL     1      42.811 -14.083   2.785  1.00  0.00     0.221 C 
HETATM   10  C   UNL     1      41.534 -13.437   2.261  1.00  0.00     0.064 C 
HETATM   11  H   UNL     1      40.249 -12.263   5.036  1.00  0.00     0.184 HD
ENDROOT
BRANCH  10  12
HETATM   12  C   UNL     1      41.431 -13.458   0.779  1.00  0.00     0.257 C 
HETATM   13  N   UNL     1      40.669 -14.496   0.300  1.00  0.00    -0.308 N 
HETATM   14  H   UNL     1      40.347 -15.187   0.961  1.00  0.00     0.170 HD
HETATM   15  O   UNL     1      42.045 -12.606   0.149  1.00  0.00    -0.267 OA
BRANCH  13  16
HETATM   16  C   UNL     1      40.288 -14.662  -1.038  1.00  0.00     0.129 A 
HETATM   17  N   UNL     1      39.197 -14.046  -1.522  1.00  0.00    -0.243 NA
HETATM   18  C   UNL     1      38.857 -14.269  -2.810  1.00  0.00     0.119 A 
HETATM   19  C   UNL     1      39.560 -15.107  -3.655  1.00  0.00     0.019 A 
HETATM   20  C   UNL     1      40.683 -15.746  -3.146  1.00  0.00     0.005 A 
HETATM   21  C   UNL     1      41.057 -15.519  -1.822  1.00  0.00     0.050 A 
ENDBRANCH  13  16
ENDBRANCH  10  12
BRANCH   9  22
HETATM   22  C   UNL     1      42.826 -15.595   2.590  1.00  0.00     0.064 A 
HETATM   23  N   UNL     1      41.782 -16.325   3.078  1.00  0.00    -0.263 NA
HETATM   24  C   UNL     1      41.854 -17.670   2.958  1.00  0.00     0.117 A 
HETATM   25  C   UNL     1      42.910 -18.339   2.364  1.00  0.00     0.019 A 
HETATM   26  C   UNL     1      43.961 -17.586   1.858  1.00  0.00     0.003 A 
HETATM   27  C   UNL     1      43.925 -16.200   1.973  1.00  0.00     0.030 A 
ENDBRANCH   9  22
TORSDOF 3
ENDMDL
MODEL 8
REMARK VINA RESULT:      -6.8      2.071      7.103
REMARK  3 active torsions:
REMARK  status: ('A' for Active; 'I' for Inactive)
REMARK    1  A    between atoms: C_9  and  C_10 
REMARK    2  A    between atoms: C_16  and  C_17 
REMARK       I    between atoms: C_17  and  N_18 
REMARK    3  A    between atoms: N_18  and  C_19 
ROOT
HETATM    1  C   UNL     1      43.229 -16.274   7.006  1.00  0.00     0.070 C 
HETATM    2  C   UNL     1      43.207 -16.558   5.525  1.00  0.00     0.037 C 
HETATM    3  N   UNL     1      43.255 -17.903   5.169  1.00  0.00    -0.192 N 
HETATM    4  C   UNL     1      43.493 -18.317   3.910  1.00  0.00     0.725 A 
HETATM    5  N   UNL     1      43.525 -17.399   2.894  1.00  0.00    -0.082 N 
HETATM    6  N   UNL     1      43.923 -17.967   1.732  1.00  0.00    -0.149 NA
HETATM    7  C   UNL     1      44.032 -19.246   2.112  1.00  0.00     0.275 A 
HETATM    8  N   UNL     1      43.780 -19.503   3.435  1.00  0.00    -0.054 NA
HETATM    9  C   UNL     1      43.289 -15.966   3.076  1.00  0.00     0.221 C 
HETATM   10  C   UNL     1      43.212 -15.609   4.555  1.00  0.00     0.064 C 
HETATM   11  H   UNL     1      43.334 -18.585   5.918  1.00  0.00     0.184 HD
ENDROOT
BRANCH  10  12
HETATM   12  C   UNL     1      43.252 -14.146   4.808  1.00  0.00     0.257 C 
HETATM   13  N   UNL     1      42.017 -13.606   5.074  1.00  0.00    -0.308 N 
HETATM   14  H   UNL     1      41.210 -14.203   4.973  1.00  0.00     0.170 HD
HETATM   15  O   UNL     1      44.332 -13.577   4.720  1.00  0.00    -0.267 OA
BRANCH  13  16
HETATM   16  C   UNL     1      41.790 -12.288   5.492  1.00  0.00     0.129 A 
HETATM   17  N   UNL     1      41.939 -11.941   6.781  1.00  0.00    -0.243 NA
HETATM   18  C   UNL     1      41.675 -10.665   7.134  1.00  0.00     0.119 A 
HETATM   19  C   UNL     1      41.244  -9.697   6.246  1.00  0.00     0.019 A 
HETATM   20  C   UNL     1      41.085 -10.063   4.917  1.00  0.00     0.005 A 
HETATM   21  C   UNL     1      41.366 -11.373   4.530  1.00  0.00     0.050 A 
ENDBRANCH  13  16
ENDBRANCH  10  12
BRANCH   9  22
HETATM   22  C   UNL     1      42.025 -15.582   2.314  1.00  0.00     0.064 A 
HETATM   23  N   UNL     1      42.125 -14.673   1.302  1.00  0.00    -0.263 NA
HETATM   24  C   UNL     1      40.980 -14.294   0.690  1.00  0.00     0.117 A 
HETATM   25  C   UNL     1      39.728 -14.782   1.021  1.00  0.00     0.019 A 
HETATM   26  C   UNL     1      39.638 -15.719   2.042  1.00  0.00     0.003 A 
HETATM   27  C   UNL     1      40.795 -16.124   2.700  1.00  0.00     0.030 A 
ENDBRANCH   9  22
TORSDOF 3
ENDMDL
MODEL 9
REMARK VINA RESULT:      -6.7      2.118      4.747
REMARK  3 active torsions:
REMARK  status: ('A' for Active; 'I' for Inactive)
REMARK    1  A    between atoms: C_9  and  C_10 
REMARK    2  A    between atoms: C_16  and  C_17 
REMARK       I    between atoms: C_17  and  N_18 
REMARK    3  A    between atoms: N_18  and  C_19 
ROOT
HETATM    1  C   UNL     1      43.610 -13.753   4.035  1.00  0.00     0.070 C 
HETATM    2  C   UNL     1      42.442 -13.817   3.083  1.00  0.00     0.037 C 
HETATM    3  N   UNL     1      41.525 -12.775   3.185  1.00  0.00    -0.192 N 
HETATM    4  C   UNL     1      40.314 -12.807   2.595  1.00  0.00     0.725 A 
HETATM    5  N   UNL     1      40.019 -13.818   1.720  1.00  0.00    -0.082 N 
HETATM    6  N   UNL     1      38.720 -13.776   1.344  1.00  0.00    -0.149 NA
HETATM    7  C   UNL     1      38.321 -12.662   1.971  1.00  0.00     0.275 A 
HETATM    8  N   UNL     1      39.263 -12.041   2.747  1.00  0.00    -0.054 NA
HETATM    9  C   UNL     1      40.954 -14.881   1.349  1.00  0.00     0.221 C 
HETATM   10  C   UNL     1      42.207 -14.831   2.213  1.00  0.00     0.064 C 
HETATM   11  H   UNL     1      41.686 -12.074   3.903  1.00  0.00     0.184 HD
ENDROOT
BRANCH  10  12
HETATM   12  C   UNL     1      43.062 -16.038   2.076  1.00  0.00     0.257 C 
HETATM   13  N   UNL     1      42.682 -17.071   2.898  1.00  0.00    -0.308 N 
HETATM   14  H   UNL     1      41.952 -16.893   3.572  1.00  0.00     0.170 HD
HETATM   15  O   UNL     1      44.011 -15.985   1.305  1.00  0.00    -0.267 OA
BRANCH  13  16
HETATM   16  C   UNL     1      43.219 -18.365   2.863  1.00  0.00     0.129 A 
HETATM   17  N   UNL     1      42.917 -19.206   1.860  1.00  0.00    -0.243 NA
HETATM   18  C   UNL     1      43.436 -20.452   1.893  1.00  0.00     0.119 A 
HETATM   19  C   UNL     1      44.249 -20.918   2.910  1.00  0.00     0.019 A 
HETATM   20  C   UNL     1      44.551 -20.046   3.947  1.00  0.00     0.005 A 
HETATM   21  C   UNL     1      44.036 -18.750   3.923  1.00  0.00     0.050 A 
ENDBRANCH  13  16
ENDBRANCH  10  12
BRANCH   9  22
HETATM   22  C   UNL     1      41.262 -14.757  -0.140  1.00  0.00     0.064 A 
HETATM   23  N   UNL     1      41.803 -13.592  -0.598  1.00  0.00    -0.263 NA
HETATM   24  C   UNL     1      41.999 -13.479  -1.932  1.00  0.00     0.117 A 
HETATM   25  C   UNL     1      41.697 -14.474  -2.845  1.00  0.00     0.019 A 
HETATM   26  C   UNL     1      41.161 -15.662  -2.367  1.00  0.00     0.003 A 
HETATM   27  C   UNL     1      40.936 -15.809  -1.001  1.00  0.00     0.030 A 
ENDBRANCH   9  22
TORSDOF 3
ENDMDL
MODEL 10
REMARK VINA RESULT:      -6.7      6.451      9.010
REMARK  3 active torsions:
REMARK  status: ('A' for Active; 'I' for Inactive)
REMARK    1  A    between atoms: C_9  and  C_10 
REMARK    2  A    between atoms: C_16  and  C_17 
REMARK       I    between atoms: C_17  and  N_18 
REMARK    3  A    between atoms: N_18  and  C_19 
ROOT
HETATM    1  C   UNL     1      38.868 -11.212   8.816  1.00  0.00     0.070 C 
HETATM    2  C   UNL     1      39.972 -10.640   9.669  1.00  0.00     0.037 C 
HETATM    3  N   UNL     1      39.631 -10.364  10.990  1.00  0.00    -0.192 N 
HETATM    4  C   UNL     1      40.410  -9.630  11.808  1.00  0.00     0.725 A 
HETATM    5  N   UNL     1      41.667  -9.273  11.398  1.00  0.00    -0.082 N 
HETATM    6  N   UNL     1      42.244  -8.419  12.274  1.00  0.00    -0.149 NA
HETATM    7  C   UNL     1      41.303  -8.375  13.226  1.00  0.00     0.275 A 
HETATM    8  N   UNL     1      40.166  -9.099  12.979  1.00  0.00    -0.054 NA
HETATM    9  C   UNL     1      42.252  -9.661  10.114  1.00  0.00     0.221 C 
HETATM   10  C   UNL     1      41.214 -10.328   9.220  1.00  0.00     0.064 C 
HETATM   11  H   UNL     1      38.669 -10.533  11.273  1.00  0.00     0.184 HD
ENDROOT
BRANCH  10  12
HETATM   12  C   UNL     1      41.667 -10.492   7.815  1.00  0.00     0.257 C 
HETATM   13  N   UNL     1      41.692 -11.801   7.400  1.00  0.00    -0.308 N 
HETATM   14  H   UNL     1      41.510 -12.517   8.089  1.00  0.00     0.170 HD
HETATM   15  O   UNL     1      42.000  -9.489   7.199  1.00  0.00    -0.267 OA
BRANCH  13  16
HETATM   16  C   UNL     1      41.934 -12.223   6.087  1.00  0.00     0.129 A 
HETATM   17  N   UNL     1      41.217 -11.729   5.064  1.00  0.00    -0.243 NA
HETATM   18  C   UNL     1      41.470 -12.195   3.822  1.00  0.00     0.119 A 
HETATM   19  C   UNL     1      42.416 -13.165   3.545  1.00  0.00     0.019 A 
HETATM   20  C   UNL     1      43.148 -13.677   4.607  1.00  0.00     0.005 A 
HETATM   21  C   UNL     1      42.911 -13.198   5.895  1.00  0.00     0.050 A 
ENDBRANCH  13  16
ENDBRANCH  10  12
BRANCH   9  22
HETATM   22  C   UNL     1      43.458 -10.556  10.381  1.00  0.00     0.064 A 
HETATM   23  N   UNL     1      44.633 -10.271   9.751  1.00  0.00    -0.263 NA
HETATM   24  C   UNL     1      45.666 -11.121   9.946  1.00  0.00     0.117 A 
HETATM   25  C   UNL     1      45.602 -12.245  10.752  1.00  0.00     0.019 A 
HETATM   26  C   UNL     1      44.405 -12.519  11.400  1.00  0.00     0.003 A 
HETATM   27  C   UNL     1      43.318 -11.671  11.213  1.00  0.00     0.030 A 
ENDBRANCH   9  22
TORSDOF 3
ENDMDL
