MODEL 1
REMARK VINA RESULT:      -9.2      0.000      0.000
REMARK  4 active torsions:
REMARK  status: ('A' for Active; 'I' for Inactive)
REMARK    1  A    between atoms: C_9  and  C_10 
REMARK       I    between atoms: C_10  and  N_11 
REMARK    2  A    between atoms: N_11  and  N_12 
REMARK       I    between atoms: N_12  and  C_13 
REMARK    3  A    between atoms: C_13  and  C_14 
REMARK    4  A    between atoms: C_14  and  C_15 
ROOT
HETATM    1  C   UNL     1      41.239 -17.055   2.103  1.00  0.00     0.291 C 
HETATM    2  N   UNL     1      40.072 -16.554   2.649  1.00  0.00    -0.262 N 
HETATM    3  O   UNL     1      41.427 -17.114   0.888  1.00  0.00    -0.264 OA
HETATM    4  H   UNL     1      40.026 -16.378   3.655  1.00  0.00     0.190 HD
ENDROOT
BRANCH   2   5
HETATM    5  N   UNL     1      39.131 -15.937   1.820  1.00  0.00    -0.267 N 
HETATM    6  C   UNL     1      39.152 -14.556   1.731  1.00  0.00     0.236 C 
HETATM    7  O   UNL     1      39.870 -13.861   2.442  1.00  0.00    -0.272 OA
HETATM    8  H   UNL     1      38.721 -16.521   1.093  1.00  0.00     0.190 HD
BRANCH   6   9
HETATM    9  C   UNL     1      38.184 -14.033   0.679  1.00  0.00     0.114 C 
BRANCH   9  10
HETATM   10  C   UNL     1      38.770 -13.633  -0.693  1.00  0.00    -0.031 C 
HETATM   11  C   UNL     1      37.827 -14.018  -1.862  1.00  0.00     0.014 C 
HETATM   12  C   UNL     1      38.410 -13.550  -3.208  1.00  0.00    -0.013 C 
HETATM   13  C   UNL     1      39.788 -14.200  -3.417  1.00  0.00     0.009 C 
HETATM   14  C   UNL     1      38.569 -12.021  -3.190  1.00  0.00     0.009 C 
HETATM   15  C   UNL     1      40.745 -13.790  -2.286  1.00  0.00    -0.013 C 
HETATM   16  C   UNL     1      40.168 -14.258  -0.938  1.00  0.00     0.014 C 
HETATM   17  C   UNL     1      40.890 -12.261  -2.274  1.00  0.00     0.009 C 
HETATM   18  C   UNL     1      39.517 -11.607  -2.054  1.00  0.00    -0.013 C 
HETATM   19  C   UNL     1      38.938 -12.085  -0.713  1.00  0.00     0.014 C 
ENDBRANCH   9  10
ENDBRANCH   6   9
ENDBRANCH   2   5
BRANCH   1  20
HETATM   20  C   UNL     1      42.214 -17.490   3.111  1.00  0.00     0.158 A 
HETATM   21  C   UNL     1      43.018 -18.668   3.090  1.00  0.00     0.029 A 
HETATM   22  C   UNL     1      43.196 -19.761   2.217  1.00  0.00     0.023 A 
HETATM   23  C   UNL     1      43.761 -18.621   4.262  1.00  0.00     0.063 A 
HETATM   24  C   UNL     1      44.121 -20.767   2.547  1.00  0.00    -0.061 A 
HETATM   25  C   UNL     1      44.310 -21.950   1.642  1.00  0.00     0.048 C 
HETATM   26  C   UNL     1      44.842 -20.685   3.746  1.00  0.00     0.009 A 
HETATM   27  C   UNL     1      44.680 -19.609   4.627  1.00  0.00     0.032 A 
HETATM   28  N   UNL     1      43.378 -17.467   4.887  1.00  0.00    -0.277 N 
HETATM   29  H   UNL     1      43.716 -17.106   5.772  1.00  0.00     0.189 HD
HETATM   30  N   UNL     1      42.448 -16.759   4.223  1.00  0.00    -0.168 NA
ENDBRANCH   1  20
TORSDOF 4
ENDMDL
MODEL 2
REMARK VINA RESULT:      -9.2      8.753     11.053
REMARK  4 active torsions:
REMARK  status: ('A' for Active; 'I' for Inactive)
REMARK    1  A    between atoms: C_9  and  C_10 
REMARK       I    between atoms: C_10  and  N_11 
REMARK    2  A    between atoms: N_11  and  N_12 
REMARK       I    between atoms: N_12  and  C_13 
REMARK    3  A    between atoms: C_13  and  C_14 
REMARK    4  A    between atoms: C_14  and  C_15 
ROOT
HETATM    1  C   UNL     1      44.768 -13.446   7.242  1.00  0.00     0.291 C 
HETATM    2  N   UNL     1      43.848 -12.948   8.146  1.00  0.00    -0.262 N 
HETATM    3  O   UNL     1      45.977 -13.239   7.349  1.00  0.00    -0.264 OA
HETATM    4  H   UNL     1      42.879 -13.275   8.105  1.00  0.00     0.190 HD
ENDROOT
BRANCH   2   5
HETATM    5  N   UNL     1      44.295 -12.329   9.316  1.00  0.00    -0.267 N 
HETATM    6  C   UNL     1      43.854 -11.043   9.578  1.00  0.00     0.236 C 
HETATM    7  O   UNL     1      43.203 -10.392   8.769  1.00  0.00    -0.272 OA
HETATM    8  H   UNL     1      44.628 -12.949  10.053  1.00  0.00     0.190 HD
BRANCH   6   9
HETATM    9  C   UNL     1      44.289 -10.556  10.953  1.00  0.00     0.114 C 
BRANCH   9  10
HETATM   10  C   UNL     1      43.180 -10.155  11.950  1.00  0.00    -0.031 C 
HETATM   11  C   UNL     1      43.761  -9.540  13.250  1.00  0.00     0.014 C 
HETATM   12  C   UNL     1      42.629  -9.093  14.194  1.00  0.00    -0.013 C 
HETATM   13  C   UNL     1      41.751 -10.307  14.542  1.00  0.00     0.009 C 
HETATM   14  C   UNL     1      41.770  -8.030  13.491  1.00  0.00     0.009 C 
HETATM   15  C   UNL     1      41.134 -10.898  13.264  1.00  0.00    -0.013 C 
HETATM   16  C   UNL     1      42.261 -11.348  12.317  1.00  0.00     0.014 C 
HETATM   17  C   UNL     1      40.284  -9.826  12.567  1.00  0.00     0.009 C 
HETATM   18  C   UNL     1      41.160  -8.615  12.208  1.00  0.00    -0.013 C 
HETATM   19  C   UNL     1      42.291  -9.070  11.272  1.00  0.00     0.014 C 
ENDBRANCH   9  10
ENDBRANCH   6   9
ENDBRANCH   2   5
BRANCH   1  20
HETATM   20  C   UNL     1      44.158 -14.239   6.167  1.00  0.00     0.158 A 
HETATM   21  C   UNL     1      43.876 -15.638   6.175  1.00  0.00     0.029 A 
HETATM   22  C   UNL     1      44.039 -16.703   7.084  1.00  0.00     0.023 A 
HETATM   23  C   UNL     1      43.309 -15.900   4.934  1.00  0.00     0.063 A 
HETATM   24  C   UNL     1      43.618 -17.994   6.721  1.00  0.00    -0.061 A 
HETATM   25  C   UNL     1      43.803 -19.146   7.666  1.00  0.00     0.048 C 
HETATM   26  C   UNL     1      43.062 -18.215   5.454  1.00  0.00     0.009 A 
HETATM   27  C   UNL     1      42.892 -17.173   4.536  1.00  0.00     0.032 A 
HETATM   28  N   UNL     1      43.283 -14.696   4.287  1.00  0.00    -0.277 N 
HETATM   29  H   UNL     1      42.934 -14.507   3.354  1.00  0.00     0.189 HD
HETATM   30  N   UNL     1      43.785 -13.672   4.999  1.00  0.00    -0.168 NA
ENDBRANCH   1  20
TORSDOF 4
ENDMDL
MODEL 3
REMARK VINA RESULT:      -9.2      0.056      1.449
REMARK  4 active torsions:
REMARK  status: ('A' for Active; 'I' for Inactive)
REMARK    1  A    between atoms: C_9  and  C_10 
REMARK       I    between atoms: C_10  and  N_11 
REMARK    2  A    between atoms: N_11  and  N_12 
REMARK       I    between atoms: N_12  and  C_13 
REMARK    3  A    between atoms: C_13  and  C_14 
REMARK    4  A    between atoms: C_14  and  C_15 
ROOT
HETATM    1  C   UNL     1      41.249 -17.058   2.108  1.00  0.00     0.291 C 
HETATM    2  N   UNL     1      40.082 -16.559   2.656  1.00  0.00    -0.262 N 
HETATM    3  O   UNL     1      41.438 -17.112   0.893  1.00  0.00    -0.264 OA
HETATM    4  H   UNL     1      40.036 -16.388   3.664  1.00  0.00     0.190 HD
ENDROOT
BRANCH   2   5
HETATM    5  N   UNL     1      39.142 -15.937   1.830  1.00  0.00    -0.267 N 
HETATM    6  C   UNL     1      39.166 -14.555   1.748  1.00  0.00     0.236 C 
HETATM    7  O   UNL     1      39.884 -13.864   2.463  1.00  0.00    -0.272 OA
HETATM    8  H   UNL     1      38.732 -16.517   1.101  1.00  0.00     0.190 HD
BRANCH   6   9
HETATM    9  C   UNL     1      38.199 -14.026   0.699  1.00  0.00     0.114 C 
BRANCH   9  10
HETATM   10  C   UNL     1      38.791 -13.579  -0.656  1.00  0.00    -0.031 C 
HETATM   11  C   UNL     1      40.157 -14.255  -0.943  1.00  0.00     0.014 C 
HETATM   12  C   UNL     1      40.690 -13.839  -2.327  1.00  0.00    -0.013 C 
HETATM   13  C   UNL     1      40.847 -12.309  -2.371  1.00  0.00     0.009 C 
HETATM   14  C   UNL     1      39.690 -14.277  -3.409  1.00  0.00     0.009 C 
HETATM   15  C   UNL     1      39.490 -11.630  -2.130  1.00  0.00    -0.013 C 
HETATM   16  C   UNL     1      38.954 -12.040  -0.747  1.00  0.00     0.014 C 
HETATM   17  C   UNL     1      38.498 -12.080  -3.213  1.00  0.00     0.009 C 
HETATM   18  C   UNL     1      38.329 -13.606  -3.166  1.00  0.00    -0.013 C 
HETATM   19  C   UNL     1      37.805 -14.015  -1.780  1.00  0.00     0.014 C 
ENDBRANCH   9  10
ENDBRANCH   6   9
ENDBRANCH   2   5
BRANCH   1  20
HETATM   20  C   UNL     1      42.223 -17.500   3.115  1.00  0.00     0.158 A 
HETATM   21  C   UNL     1      43.023 -18.681   3.089  1.00  0.00     0.029 A 
HETATM   22  C   UNL     1      43.197 -19.771   2.213  1.00  0.00     0.023 A 
HETATM   23  C   UNL     1      43.767 -18.640   4.261  1.00  0.00     0.063 A 
HETATM   24  C   UNL     1      44.120 -20.781   2.539  1.00  0.00    -0.061 A 
HETATM   25  C   UNL     1      44.304 -21.962   1.630  1.00  0.00     0.048 C 
HETATM   26  C   UNL     1      44.841 -20.706   3.737  1.00  0.00     0.009 A 
HETATM   27  C   UNL     1      44.683 -19.632   4.622  1.00  0.00     0.032 A 
HETATM   28  N   UNL     1      43.389 -17.487   4.889  1.00  0.00    -0.277 N 
HETATM   29  H   UNL     1      43.728 -17.130   5.776  1.00  0.00     0.189 HD
HETATM   30  N   UNL     1      42.460 -16.774   4.229  1.00  0.00    -0.168 NA
ENDBRANCH   1  20
TORSDOF 4
ENDMDL
MODEL 4
REMARK VINA RESULT:      -8.6      1.541      2.117
REMARK  4 active torsions:
REMARK  status: ('A' for Active; 'I' for Inactive)
REMARK    1  A    between atoms: C_9  and  C_10 
REMARK       I    between atoms: C_10  and  N_11 
REMARK    2  A    between atoms: N_11  and  N_12 
REMARK       I    between atoms: N_12  and  C_13 
REMARK    3  A    between atoms: C_13  and  C_14 
REMARK    4  A    between atoms: C_14  and  C_15 
ROOT
HETATM    1  C   UNL     1      43.130 -16.474   3.229  1.00  0.00     0.291 C 
HETATM    2  N   UNL     1      41.809 -16.672   2.872  1.00  0.00    -0.262 N 
HETATM    3  O   UNL     1      43.780 -15.503   2.841  1.00  0.00    -0.264 OA
HETATM    4  H   UNL     1      41.268 -17.401   3.343  1.00  0.00     0.190 HD
ENDROOT
BRANCH   2   5
HETATM    5  N   UNL     1      41.120 -15.667   2.188  1.00  0.00    -0.267 N 
HETATM    6  C   UNL     1      40.972 -15.800   0.818  1.00  0.00     0.236 C 
HETATM    7  O   UNL     1      41.527 -16.687   0.178  1.00  0.00    -0.272 OA
HETATM    8  H   UNL     1      40.495 -15.090   2.747  1.00  0.00     0.190 HD
BRANCH   6   9
HETATM    9  C   UNL     1      40.072 -14.723   0.230  1.00  0.00     0.114 C 
BRANCH   9  10
HETATM   10  C   UNL     1      40.675 -13.806  -0.857  1.00  0.00    -0.031 C 
HETATM   11  C   UNL     1      41.025 -14.588  -2.149  1.00  0.00     0.014 C 
HETATM   12  C   UNL     1      41.564 -13.636  -3.233  1.00  0.00    -0.013 C 
HETATM   13  C   UNL     1      42.819 -12.922  -2.702  1.00  0.00     0.009 C 
HETATM   14  C   UNL     1      40.490 -12.589  -3.570  1.00  0.00     0.009 C 
HETATM   15  C   UNL     1      42.474 -12.108  -1.445  1.00  0.00    -0.013 C 
HETATM   16  C   UNL     1      41.936 -13.055  -0.357  1.00  0.00     0.014 C 
HETATM   17  C   UNL     1      41.396 -11.071  -1.792  1.00  0.00     0.009 C 
HETATM   18  C   UNL     1      40.136 -11.779  -2.313  1.00  0.00    -0.013 C 
HETATM   19  C   UNL     1      39.608 -12.734  -1.229  1.00  0.00     0.014 C 
ENDBRANCH   9  10
ENDBRANCH   6   9
ENDBRANCH   2   5
BRANCH   1  20
HETATM   20  C   UNL     1      43.659 -17.522   4.110  1.00  0.00     0.158 A 
HETATM   21  C   UNL     1      43.937 -18.881   3.773  1.00  0.00     0.029 A 
HETATM   22  C   UNL     1      43.838 -19.681   2.617  1.00  0.00     0.023 A 
HETATM   23  C   UNL     1      44.411 -19.455   4.945  1.00  0.00     0.063 A 
HETATM   24  C   UNL     1      44.228 -21.031   2.675  1.00  0.00    -0.061 A 
HETATM   25  C   UNL     1      44.110 -21.907   1.460  1.00  0.00     0.048 C 
HETATM   26  C   UNL     1      44.690 -21.572   3.881  1.00  0.00     0.009 A 
HETATM   27  C   UNL     1      44.795 -20.795   5.041  1.00  0.00     0.032 A 
HETATM   28  N   UNL     1      44.394 -18.451   5.873  1.00  0.00    -0.277 N 
HETATM   29  H   UNL     1      44.675 -18.507   6.845  1.00  0.00     0.189 HD
HETATM   30  N   UNL     1      43.947 -17.272   5.406  1.00  0.00    -0.168 NA
ENDBRANCH   1  20
TORSDOF 4
ENDMDL
MODEL 5
REMARK VINA RESULT:      -8.6      2.833      8.376
REMARK  4 active torsions:
REMARK  status: ('A' for Active; 'I' for Inactive)
REMARK    1  A    between atoms: C_9  and  C_10 
REMARK       I    between atoms: C_10  and  N_11 
REMARK    2  A    between atoms: N_11  and  N_12 
REMARK       I    between atoms: N_12  and  C_13 
REMARK    3  A    between atoms: C_13  and  C_14 
REMARK    4  A    between atoms: C_14  and  C_15 
ROOT
HETATM    1  C   UNL     1      41.331 -15.217  -0.130  1.00  0.00     0.291 C 
HETATM    2  N   UNL     1      41.704 -16.547  -0.188  1.00  0.00    -0.262 N 
HETATM    3  O   UNL     1      40.883 -14.702   0.894  1.00  0.00    -0.264 OA
HETATM    4  H   UNL     1      42.216 -16.888  -1.006  1.00  0.00     0.190 HD
ENDROOT
BRANCH   2   5
HETATM    5  N   UNL     1      41.740 -17.306   0.985  1.00  0.00    -0.267 N 
HETATM    6  C   UNL     1      42.977 -17.579   1.543  1.00  0.00     0.236 C 
HETATM    7  O   UNL     1      44.030 -17.294   0.983  1.00  0.00    -0.272 OA
HETATM    8  H   UNL     1      40.881 -17.328   1.532  1.00  0.00     0.190 HD
BRANCH   6   9
HETATM    9  C   UNL     1      42.858 -18.273   2.892  1.00  0.00     0.114 C 
BRANCH   9  10
HETATM   10  C   UNL     1      42.762 -17.379   4.148  1.00  0.00    -0.031 C 
HETATM   11  C   UNL     1      42.838 -15.871   3.795  1.00  0.00     0.014 C 
HETATM   12  C   UNL     1      42.676 -15.007   5.059  1.00  0.00    -0.013 C 
HETATM   13  C   UNL     1      43.788 -15.361   6.061  1.00  0.00     0.009 C 
HETATM   14  C   UNL     1      41.307 -15.292   5.699  1.00  0.00     0.009 C 
HETATM   15  C   UNL     1      43.696 -16.845   6.452  1.00  0.00    -0.013 C 
HETATM   16  C   UNL     1      43.859 -17.714   5.192  1.00  0.00     0.014 C 
HETATM   17  C   UNL     1      42.323 -17.120   7.083  1.00  0.00     0.009 C 
HETATM   18  C   UNL     1      41.208 -16.777   6.082  1.00  0.00    -0.013 C 
HETATM   19  C   UNL     1      41.381 -17.637   4.820  1.00  0.00     0.014 C 
ENDBRANCH   9  10
ENDBRANCH   6   9
ENDBRANCH   2   5
BRANCH   1  20
HETATM   20  C   UNL     1      41.532 -14.500  -1.395  1.00  0.00     0.158 A 
HETATM   21  C   UNL     1      41.997 -13.163  -1.570  1.00  0.00     0.029 A 
HETATM   22  C   UNL     1      42.404 -12.110  -0.726  1.00  0.00     0.023 A 
HETATM   23  C   UNL     1      42.008 -12.960  -2.944  1.00  0.00     0.063 A 
HETATM   24  C   UNL     1      42.817 -10.890  -1.291  1.00  0.00    -0.061 A 
HETATM   25  C   UNL     1      43.233  -9.748  -0.408  1.00  0.00     0.048 C 
HETATM   26  C   UNL     1      42.802 -10.725  -2.682  1.00  0.00     0.009 A 
HETATM   27  C   UNL     1      42.401 -11.758  -3.538  1.00  0.00     0.032 A 
HETATM   28  N   UNL     1      41.573 -14.137  -3.487  1.00  0.00    -0.277 N 
HETATM   29  H   UNL     1      41.454 -14.353  -4.470  1.00  0.00     0.189 HD
HETATM   30  N   UNL     1      41.277 -15.088  -2.585  1.00  0.00    -0.168 NA
ENDBRANCH   1  20
TORSDOF 4
ENDMDL
MODEL 6
REMARK VINA RESULT:      -8.5      1.622      2.582
REMARK  4 active torsions:
REMARK  status: ('A' for Active; 'I' for Inactive)
REMARK    1  A    between atoms: C_9  and  C_10 
REMARK       I    between atoms: C_10  and  N_11 
REMARK    2  A    between atoms: N_11  and  N_12 
REMARK       I    between atoms: N_12  and  C_13 
REMARK    3  A    between atoms: C_13  and  C_14 
REMARK    4  A    between atoms: C_14  and  C_15 
ROOT
HETATM    1  C   UNL     1      41.865 -17.152   1.394  1.00  0.00     0.291 C 
HETATM    2  N   UNL     1      42.333 -16.019   0.754  1.00  0.00    -0.262 N 
HETATM    3  O   UNL     1      40.887 -17.781   0.991  1.00  0.00    -0.264 OA
HETATM    4  H   UNL     1      43.236 -15.625   1.031  1.00  0.00     0.190 HD
ENDROOT
BRANCH   2   5
HETATM    5  N   UNL     1      41.796 -15.652  -0.483  1.00  0.00    -0.267 N 
HETATM    6  C   UNL     1      40.758 -14.737  -0.493  1.00  0.00     0.236 C 
HETATM    7  O   UNL     1      40.215 -14.344   0.534  1.00  0.00    -0.272 OA
HETATM    8  H   UNL     1      42.392 -15.805  -1.294  1.00  0.00     0.190 HD
BRANCH   6   9
HETATM    9  C   UNL     1      40.379 -14.313  -1.905  1.00  0.00     0.114 C 
BRANCH   9  10
HETATM   10  C   UNL     1      40.879 -12.935  -2.393  1.00  0.00    -0.031 C 
HETATM   11  C   UNL     1      42.393 -12.952  -2.729  1.00  0.00     0.014 C 
HETATM   12  C   UNL     1      42.845 -11.584  -3.272  1.00  0.00    -0.013 C 
HETATM   13  C   UNL     1      42.560 -10.501  -2.217  1.00  0.00     0.009 C 
HETATM   14  C   UNL     1      42.062 -11.261  -4.555  1.00  0.00     0.009 C 
HETATM   15  C   UNL     1      41.055 -10.446  -1.908  1.00  0.00    -0.013 C 
HETATM   16  C   UNL     1      40.598 -11.811  -1.363  1.00  0.00     0.014 C 
HETATM   17  C   UNL     1      40.283 -10.130  -3.198  1.00  0.00     0.009 C 
HETATM   18  C   UNL     1      40.557 -11.215  -4.251  1.00  0.00    -0.013 C 
HETATM   19  C   UNL     1      40.110 -12.579  -3.699  1.00  0.00     0.014 C 
ENDBRANCH   9  10
ENDBRANCH   6   9
ENDBRANCH   2   5
BRANCH   1  20
HETATM   20  C   UNL     1      42.654 -17.521   2.576  1.00  0.00     0.158 A 
HETATM   21  C   UNL     1      43.353 -18.743   2.806  1.00  0.00     0.029 A 
HETATM   22  C   UNL     1      43.557 -19.946   2.099  1.00  0.00     0.023 A 
HETATM   23  C   UNL     1      43.931 -18.599   4.060  1.00  0.00     0.063 A 
HETATM   24  C   UNL     1      44.343 -20.961   2.672  1.00  0.00    -0.061 A 
HETATM   25  C   UNL     1      44.554 -22.258   1.945  1.00  0.00     0.048 C 
HETATM   26  C   UNL     1      44.898 -20.778   3.945  1.00  0.00     0.009 A 
HETATM   27  C   UNL     1      44.707 -19.593   4.665  1.00  0.00     0.032 A 
HETATM   28  N   UNL     1      43.564 -17.354   4.487  1.00  0.00    -0.277 N 
HETATM   29  H   UNL     1      43.807 -16.909   5.365  1.00  0.00     0.189 HD
HETATM   30  N   UNL     1      42.795 -16.675   3.619  1.00  0.00    -0.168 NA
ENDBRANCH   1  20
TORSDOF 4
ENDMDL
MODEL 7
REMARK VINA RESULT:      -8.4      1.634      2.524
REMARK  4 active torsions:
REMARK  status: ('A' for Active; 'I' for Inactive)
REMARK    1  A    between atoms: C_9  and  C_10 
REMARK       I    between atoms: C_10  and  N_11 
REMARK    2  A    between atoms: N_11  and  N_12 
REMARK       I    between atoms: N_12  and  C_13 
REMARK    3  A    between atoms: C_13  and  C_14 
REMARK    4  A    between atoms: C_14  and  C_15 
ROOT
HETATM    1  C   UNL     1      41.837 -17.135   1.391  1.00  0.00     0.291 C 
HETATM    2  N   UNL     1      42.308 -16.010   0.740  1.00  0.00    -0.262 N 
HETATM    3  O   UNL     1      40.843 -17.752   1.007  1.00  0.00    -0.264 OA
HETATM    4  H   UNL     1      43.221 -15.628   0.999  1.00  0.00     0.190 HD
ENDROOT
BRANCH   2   5
HETATM    5  N   UNL     1      41.755 -15.640  -0.489  1.00  0.00    -0.267 N 
HETATM    6  C   UNL     1      40.825 -14.615  -0.498  1.00  0.00     0.236 C 
HETATM    7  O   UNL     1      40.380 -14.119   0.531  1.00  0.00    -0.272 OA
HETATM    8  H   UNL     1      42.290 -15.895  -1.317  1.00  0.00     0.190 HD
BRANCH   6   9
HETATM    9  C   UNL     1      40.427 -14.214  -1.911  1.00  0.00     0.114 C 
BRANCH   9  10
HETATM   10  C   UNL     1      40.789 -12.785  -2.374  1.00  0.00    -0.031 C 
HETATM   11  C   UNL     1      40.056 -11.701  -1.543  1.00  0.00     0.014 C 
HETATM   12  C   UNL     1      40.487 -10.291  -1.987  1.00  0.00    -0.013 C 
HETATM   13  C   UNL     1      40.163 -10.108  -3.479  1.00  0.00     0.009 C 
HETATM   14  C   UNL     1      42.001 -10.131  -1.773  1.00  0.00     0.009 C 
HETATM   15  C   UNL     1      40.920 -11.151  -4.317  1.00  0.00    -0.013 C 
HETATM   16  C   UNL     1      40.491 -12.563  -3.879  1.00  0.00     0.014 C 
HETATM   17  C   UNL     1      42.430 -10.986  -4.090  1.00  0.00     0.009 C 
HETATM   18  C   UNL     1      42.760 -11.178  -2.602  1.00  0.00    -0.013 C 
HETATM   19  C   UNL     1      42.320 -12.584  -2.164  1.00  0.00     0.014 C 
ENDBRANCH   9  10
ENDBRANCH   6   9
ENDBRANCH   2   5
BRANCH   1  20
HETATM   20  C   UNL     1      42.641 -17.511   2.560  1.00  0.00     0.158 A 
HETATM   21  C   UNL     1      43.346 -18.734   2.772  1.00  0.00     0.029 A 
HETATM   22  C   UNL     1      43.545 -19.930   2.053  1.00  0.00     0.023 A 
HETATM   23  C   UNL     1      43.939 -18.598   4.020  1.00  0.00     0.063 A 
HETATM   24  C   UNL     1      44.340 -20.948   2.609  1.00  0.00    -0.061 A 
HETATM   25  C   UNL     1      44.546 -22.238   1.869  1.00  0.00     0.048 C 
HETATM   26  C   UNL     1      44.910 -20.773   3.876  1.00  0.00     0.009 A 
HETATM   27  C   UNL     1      44.724 -19.594   4.608  1.00  0.00     0.032 A 
HETATM   28  N   UNL     1      43.573 -17.357   4.462  1.00  0.00    -0.277 N 
HETATM   29  H   UNL     1      43.825 -16.918   5.340  1.00  0.00     0.189 HD
HETATM   30  N   UNL     1      42.792 -16.673   3.609  1.00  0.00    -0.168 NA
ENDBRANCH   1  20
TORSDOF 4
ENDMDL
MODEL 8
REMARK VINA RESULT:      -8.4      7.607      9.857
REMARK  4 active torsions:
REMARK  status: ('A' for Active; 'I' for Inactive)
REMARK    1  A    between atoms: C_9  and  C_10 
REMARK       I    between atoms: C_10  and  N_11 
REMARK    2  A    between atoms: N_11  and  N_12 
REMARK       I    between atoms: N_12  and  C_13 
REMARK    3  A    between atoms: C_13  and  C_14 
REMARK    4  A    between atoms: C_14  and  C_15 
ROOT
HETATM    1  C   UNL     1      41.728 -13.049   5.242  1.00  0.00     0.291 C 
HETATM    2  N   UNL     1      41.575 -12.901   6.608  1.00  0.00    -0.262 N 
HETATM    3  O   UNL     1      42.101 -12.127   4.517  1.00  0.00    -0.264 OA
HETATM    4  H   UNL     1      41.418 -13.731   7.186  1.00  0.00     0.190 HD
ENDROOT
BRANCH   2   5
HETATM    5  N   UNL     1      42.011 -11.728   7.230  1.00  0.00    -0.267 N 
HETATM    6  C   UNL     1      41.057 -10.906   7.804  1.00  0.00     0.236 C 
HETATM    7  O   UNL     1      39.853 -11.102   7.675  1.00  0.00    -0.272 OA
HETATM    8  H   UNL     1      42.988 -11.708   7.517  1.00  0.00     0.190 HD
BRANCH   6   9
HETATM    9  C   UNL     1      41.682  -9.753   8.577  1.00  0.00     0.114 C 
BRANCH   9  10
HETATM   10  C   UNL     1      41.936  -9.962  10.086  1.00  0.00    -0.031 C 
HETATM   11  C   UNL     1      43.415 -10.321  10.382  1.00  0.00     0.014 C 
HETATM   12  C   UNL     1      43.648 -10.459  11.898  1.00  0.00    -0.013 C 
HETATM   13  C   UNL     1      42.726 -11.558  12.454  1.00  0.00     0.009 C 
HETATM   14  C   UNL     1      43.320  -9.125  12.588  1.00  0.00     0.009 C 
HETATM   15  C   UNL     1      41.255 -11.191  12.204  1.00  0.00    -0.013 C 
HETATM   16  C   UNL     1      41.015 -11.053  10.691  1.00  0.00     0.014 C 
HETATM   17  C   UNL     1      40.941  -9.854  12.892  1.00  0.00     0.009 C 
HETATM   18  C   UNL     1      41.852  -8.751  12.332  1.00  0.00    -0.013 C 
HETATM   19  C   UNL     1      41.620  -8.624  10.818  1.00  0.00     0.014 C 
ENDBRANCH   9  10
ENDBRANCH   6   9
ENDBRANCH   2   5
BRANCH   1  20
HETATM   20  C   UNL     1      41.412 -14.401   4.764  1.00  0.00     0.158 A 
HETATM   21  C   UNL     1      42.136 -15.603   5.019  1.00  0.00     0.029 A 
HETATM   22  C   UNL     1      43.296 -15.957   5.737  1.00  0.00     0.023 A 
HETATM   23  C   UNL     1      41.437 -16.597   4.346  1.00  0.00     0.063 A 
HETATM   24  C   UNL     1      43.712 -17.300   5.762  1.00  0.00    -0.061 A 
HETATM   25  C   UNL     1      44.957 -17.695   6.503  1.00  0.00     0.048 C 
HETATM   26  C   UNL     1      42.983 -18.269   5.059  1.00  0.00     0.009 A 
HETATM   27  C   UNL     1      41.829 -17.938   4.340  1.00  0.00     0.032 A 
HETATM   28  N   UNL     1      40.381 -15.960   3.757  1.00  0.00    -0.277 N 
HETATM   29  H   UNL     1      39.656 -16.375   3.182  1.00  0.00     0.189 HD
HETATM   30  N   UNL     1      40.333 -14.637   3.986  1.00  0.00    -0.168 NA
ENDBRANCH   1  20
TORSDOF 4
ENDMDL
MODEL 9
REMARK VINA RESULT:      -8.4      6.426      9.057
REMARK  4 active torsions:
REMARK  status: ('A' for Active; 'I' for Inactive)
REMARK    1  A    between atoms: C_9  and  C_10 
REMARK       I    between atoms: C_10  and  N_11 
REMARK    2  A    between atoms: N_11  and  N_12 
REMARK       I    between atoms: N_12  and  C_13 
REMARK    3  A    between atoms: C_13  and  C_14 
REMARK    4  A    between atoms: C_14  and  C_15 
ROOT
HETATM    1  C   UNL     1      45.086 -12.899   8.158  1.00  0.00     0.291 C 
HETATM    2  N   UNL     1      44.025 -13.548   7.553  1.00  0.00    -0.262 N 
HETATM    3  O   UNL     1      46.216 -12.883   7.669  1.00  0.00    -0.264 OA
HETATM    4  H   UNL     1      43.079 -13.400   7.912  1.00  0.00     0.190 HD
ENDROOT
BRANCH   2   5
HETATM    5  N   UNL     1      44.177 -14.067   6.265  1.00  0.00    -0.267 N 
HETATM    6  C   UNL     1      43.202 -13.771   5.328  1.00  0.00     0.236 C 
HETATM    7  O   UNL     1      42.162 -13.189   5.620  1.00  0.00    -0.272 OA
HETATM    8  H   UNL     1      45.122 -14.336   5.997  1.00  0.00     0.190 HD
BRANCH   6   9
HETATM    9  C   UNL     1      43.572 -14.265   3.937  1.00  0.00     0.114 C 
BRANCH   9  10
HETATM   10  C   UNL     1      43.141 -15.697   3.551  1.00  0.00    -0.031 C 
HETATM   11  C   UNL     1      43.490 -16.727   4.657  1.00  0.00     0.014 C 
HETATM   12  C   UNL     1      42.991 -18.131   4.270  1.00  0.00    -0.013 C 
HETATM   13  C   UNL     1      43.644 -18.553   2.942  1.00  0.00     0.009 C 
HETATM   14  C   UNL     1      41.464 -18.098   4.097  1.00  0.00     0.009 C 
HETATM   15  C   UNL     1      43.268 -17.562   1.829  1.00  0.00    -0.013 C 
HETATM   16  C   UNL     1      43.766 -16.157   2.209  1.00  0.00     0.014 C 
HETATM   17  C   UNL     1      41.740 -17.533   1.670  1.00  0.00     0.009 C 
HETATM   18  C   UNL     1      41.084 -17.102   2.991  1.00  0.00    -0.013 C 
HETATM   19  C   UNL     1      41.593 -15.703   3.374  1.00  0.00     0.014 C 
ENDBRANCH   9  10
ENDBRANCH   6   9
ENDBRANCH   2   5
BRANCH   1  20
HETATM   20  C   UNL     1      44.722 -12.236   9.417  1.00  0.00     0.158 A 
HETATM   21  C   UNL     1      43.696 -11.267   9.622  1.00  0.00     0.029 A 
HETATM   22  C   UNL     1      42.731 -10.623   8.820  1.00  0.00     0.023 A 
HETATM   23  C   UNL     1      43.758 -10.954  10.973  1.00  0.00     0.063 A 
HETATM   24  C   UNL     1      41.854  -9.693   9.405  1.00  0.00    -0.061 A 
HETATM   25  C   UNL     1      40.834  -8.980   8.565  1.00  0.00     0.048 C 
HETATM   26  C   UNL     1      41.960  -9.398  10.770  1.00  0.00     0.009 A 
HETATM   27  C   UNL     1      42.912 -10.025  11.584  1.00  0.00     0.032 A 
HETATM   28  N   UNL     1      44.770 -11.722  11.476  1.00  0.00    -0.277 N 
HETATM   29  H   UNL     1      45.099 -11.755  12.435  1.00  0.00     0.189 HD
HETATM   30  N   UNL     1      45.374 -12.508  10.568  1.00  0.00    -0.168 NA
ENDBRANCH   1  20
TORSDOF 4
ENDMDL
MODEL 10
REMARK VINA RESULT:      -8.3      1.669      2.694
REMARK  4 active torsions:
REMARK  status: ('A' for Active; 'I' for Inactive)
REMARK    1  A    between atoms: C_9  and  C_10 
REMARK       I    between atoms: C_10  and  N_11 
REMARK    2  A    between atoms: N_11  and  N_12 
REMARK       I    between atoms: N_12  and  C_13 
REMARK    3  A    between atoms: C_13  and  C_14 
REMARK    4  A    between atoms: C_14  and  C_15 
ROOT
HETATM    1  C   UNL     1      42.127 -16.653   3.079  1.00  0.00     0.291 C 
HETATM    2  N   UNL     1      42.858 -15.796   2.277  1.00  0.00    -0.262 N 
HETATM    3  O   UNL     1      40.897 -16.687   3.060  1.00  0.00    -0.264 OA
HETATM    4  H   UNL     1      43.872 -15.914   2.212  1.00  0.00     0.190 HD
ENDROOT
BRANCH   2   5
HETATM    5  N   UNL     1      42.208 -15.053   1.288  1.00  0.00    -0.267 N 
HETATM    6  C   UNL     1      42.299 -13.673   1.348  1.00  0.00     0.236 C 
HETATM    7  O   UNL     1      42.811 -13.087   2.296  1.00  0.00    -0.272 OA
HETATM    8  H   UNL     1      41.999 -15.546   0.421  1.00  0.00     0.190 HD
BRANCH   6   9
HETATM    9  C   UNL     1      41.682 -13.003   0.129  1.00  0.00     0.114 C 
BRANCH   9  10
HETATM   10  C   UNL     1      40.150 -12.809   0.122  1.00  0.00    -0.031 C 
HETATM   11  C   UNL     1      39.737 -11.470  -0.542  1.00  0.00     0.014 C 
HETATM   12  C   UNL     1      38.204 -11.337  -0.591  1.00  0.00    -0.013 C 
HETATM   13  C   UNL     1      37.644 -11.401   0.840  1.00  0.00     0.009 C 
HETATM   14  C   UNL     1      37.618 -12.494  -1.417  1.00  0.00     0.009 C 
HETATM   15  C   UNL     1      38.011 -12.743   1.493  1.00  0.00    -0.013 C 
HETATM   16  C   UNL     1      39.543 -12.881   1.546  1.00  0.00     0.014 C 
HETATM   17  C   UNL     1      37.426 -13.891   0.656  1.00  0.00     0.009 C 
HETATM   18  C   UNL     1      37.991 -13.837  -0.772  1.00  0.00    -0.013 C 
HETATM   19  C   UNL     1      39.522 -13.963  -0.715  1.00  0.00     0.014 C 
ENDBRANCH   9  10
ENDBRANCH   6   9
ENDBRANCH   2   5
BRANCH   1  20
HETATM   20  C   UNL     1      42.964 -17.509   3.930  1.00  0.00     0.158 A 
HETATM   21  C   UNL     1      43.494 -18.795   3.614  1.00  0.00     0.029 A 
HETATM   22  C   UNL     1      43.449 -19.669   2.509  1.00  0.00     0.023 A 
HETATM   23  C   UNL     1      44.206 -19.181   4.743  1.00  0.00     0.063 A 
HETATM   24  C   UNL     1      44.129 -20.898   2.570  1.00  0.00    -0.061 A 
HETATM   25  C   UNL     1      44.076 -21.853   1.412  1.00  0.00     0.048 C 
HETATM   26  C   UNL     1      44.825 -21.253   3.733  1.00  0.00     0.009 A 
HETATM   27  C   UNL     1      44.881 -20.400   4.842  1.00  0.00     0.032 A 
HETATM   28  N   UNL     1      44.068 -18.148   5.627  1.00  0.00    -0.277 N 
HETATM   29  H   UNL     1      44.458 -18.083   6.561  1.00  0.00     0.189 HD
HETATM   30  N   UNL     1      43.327 -17.123   5.173  1.00  0.00    -0.168 NA
ENDBRANCH   1  20
TORSDOF 4
ENDMDL
