MODEL 1
REMARK VINA RESULT:      -9.7      0.000      0.000
REMARK  4 active torsions:
REMARK  status: ('A' for Active; 'I' for Inactive)
REMARK    1  A    between atoms: C_4  and  C_5 
REMARK    2  A    between atoms: C_6  and  N_7 
REMARK    3  A    between atoms: C_9  and  C_10 
REMARK       I    between atoms: C_10  and  N_11 
REMARK    4  A    between atoms: N_11  and  C_12 
ROOT
HETATM    1  C   UNL     1      42.829 -17.677   4.154  1.00  0.00     0.019 A 
HETATM    2  C   UNL     1      42.591 -16.984   5.299  1.00  0.00     0.111 A 
HETATM    3  C   UNL     1      42.987 -17.606   6.637  1.00  0.00     0.273 A 
HETATM    4  O   UNL     1      42.737 -17.068   7.717  1.00  0.00    -0.266 OA
HETATM    5  N   UNL     1      43.627 -18.809   6.618  1.00  0.00    -0.321 N 
HETATM    6  C   UNL     1      43.900 -19.523   5.456  1.00  0.00     0.046 A 
HETATM    7  C   UNL     1      43.515 -18.997   4.217  1.00  0.00     0.006 A 
HETATM    8  C   UNL     1      44.548 -20.757   5.557  1.00  0.00     0.032 A 
HETATM    9  C   UNL     1      44.821 -21.489   4.403  1.00  0.00     0.026 A 
HETATM   10  C   UNL     1      44.446 -20.980   3.162  1.00  0.00     0.035 A 
HETATM   11 CL   UNL     1      44.779 -21.885   1.737  1.00  0.00    -0.084 Cl
HETATM   12  C   UNL     1      43.801 -19.744   3.064  1.00  0.00     0.038 A 
HETATM   13  H   UNL     1      43.877 -19.181   7.523  1.00  0.00     0.169 HD
ENDROOT
BRANCH   2  14
HETATM   14  N   UNL     1      41.947 -15.718   5.343  1.00  0.00    -0.375 N 
HETATM   15  C   UNL     1      42.586 -14.662   6.165  1.00  0.00     0.137 C 
HETATM   16  C   UNL     1      41.977 -13.281   5.911  1.00  0.00     0.096 C 
HETATM   17  C   UNL     1      40.447 -13.297   5.985  1.00  0.00     0.017 C 
HETATM   18  C   UNL     1      39.884 -14.396   5.092  1.00  0.00     0.021 C 
HETATM   19  C   UNL     1      40.476 -15.748   5.472  1.00  0.00     0.123 C 
BRANCH  16  20
HETATM   20  C   UNL     1      42.566 -12.254   6.880  1.00  0.00     0.229 C 
HETATM   21  N   UNL     1      43.533 -12.769   7.725  1.00  0.00    -0.311 N 
HETATM   22  H   UNL     1      43.788 -13.740   7.629  1.00  0.00     0.170 HD
HETATM   23  O   UNL     1      42.165 -11.093   6.847  1.00  0.00    -0.273 OA
BRANCH  21  24
HETATM   24  C   UNL     1      44.247 -12.053   8.696  1.00  0.00     0.129 A 
HETATM   25  N   UNL     1      45.526 -11.697   8.497  1.00  0.00    -0.243 NA
HETATM   26  C   UNL     1      46.152 -11.006   9.473  1.00  0.00     0.119 A 
HETATM   27  C   UNL     1      45.554 -10.648  10.668  1.00  0.00     0.019 A 
HETATM   28  C   UNL     1      44.233 -11.021  10.869  1.00  0.00     0.005 A 
HETATM   29  C   UNL     1      43.567 -11.728   9.868  1.00  0.00     0.050 A 
ENDBRANCH  21  24
ENDBRANCH  16  20
ENDBRANCH   2  14
BRANCH   1  30
HETATM   30  C   UNL     1      42.381 -17.069   2.875  1.00  0.00    -0.023 A 
HETATM   31  C   UNL     1      41.135 -17.400   2.326  1.00  0.00     0.012 A 
HETATM   32  C   UNL     1      40.703 -16.788   1.148  1.00  0.00     0.001 A 
HETATM   33  C   UNL     1      41.510 -15.845   0.512  1.00  0.00     0.000 A 
HETATM   34  C   UNL     1      42.754 -15.515   1.050  1.00  0.00     0.001 A 
HETATM   35  C   UNL     1      43.188 -16.124   2.228  1.00  0.00     0.012 A 
ENDBRANCH   1  30
TORSDOF 4
ENDMDL
MODEL 2
REMARK VINA RESULT:      -9.4      3.412      8.544
REMARK  4 active torsions:
REMARK  status: ('A' for Active; 'I' for Inactive)
REMARK    1  A    between atoms: C_4  and  C_5 
REMARK    2  A    between atoms: C_6  and  N_7 
REMARK    3  A    between atoms: C_9  and  C_10 
REMARK       I    between atoms: C_10  and  N_11 
REMARK    4  A    between atoms: N_11  and  C_12 
ROOT
HETATM    1  C   UNL     1      42.476 -12.311   6.827  1.00  0.00     0.019 A 
HETATM    2  C   UNL     1      43.262 -13.325   6.381  1.00  0.00     0.111 A 
HETATM    3  C   UNL     1      44.536 -13.670   7.152  1.00  0.00     0.273 A 
HETATM    4  O   UNL     1      45.331 -14.527   6.767  1.00  0.00    -0.266 OA
HETATM    5  N   UNL     1      44.794 -12.981   8.299  1.00  0.00    -0.321 N 
HETATM    6  C   UNL     1      43.989 -11.955   8.784  1.00  0.00     0.046 A 
HETATM    7  C   UNL     1      42.837 -11.591   8.079  1.00  0.00     0.006 A 
HETATM    8  C   UNL     1      44.360 -11.306   9.965  1.00  0.00     0.032 A 
HETATM    9  C   UNL     1      43.571 -10.269  10.459  1.00  0.00     0.026 A 
HETATM   10  C   UNL     1      42.419  -9.895   9.771  1.00  0.00     0.035 A 
HETATM   11 CL   UNL     1      41.445  -8.613  10.380  1.00  0.00    -0.084 Cl
HETATM   12  C   UNL     1      42.049 -10.549   8.593  1.00  0.00     0.038 A 
HETATM   13  H   UNL     1      45.641 -13.244   8.781  1.00  0.00     0.169 HD
ENDROOT
BRANCH   2  14
HETATM   14  N   UNL     1      43.003 -14.074   5.201  1.00  0.00    -0.375 N 
HETATM   15  C   UNL     1      43.006 -15.552   5.323  1.00  0.00     0.137 C 
HETATM   16  C   UNL     1      42.436 -16.238   4.078  1.00  0.00     0.096 C 
HETATM   17  C   UNL     1      43.066 -15.711   2.785  1.00  0.00     0.017 C 
HETATM   18  C   UNL     1      42.994 -14.189   2.741  1.00  0.00     0.021 C 
HETATM   19  C   UNL     1      43.661 -13.588   3.972  1.00  0.00     0.123 C 
BRANCH  16  20
HETATM   20  C   UNL     1      42.592 -17.755   4.189  1.00  0.00     0.229 C 
HETATM   21  N   UNL     1      43.500 -18.293   3.294  1.00  0.00    -0.311 N 
HETATM   22  H   UNL     1      43.992 -17.669   2.673  1.00  0.00     0.170 HD
HETATM   23  O   UNL     1      41.937 -18.370   5.026  1.00  0.00    -0.273 OA
BRANCH  21  24
HETATM   24  C   UNL     1      43.850 -19.647   3.187  1.00  0.00     0.129 A 
HETATM   25  N   UNL     1      44.483 -20.283   4.186  1.00  0.00    -0.243 NA
HETATM   26  C   UNL     1      44.787 -21.587   4.016  1.00  0.00     0.119 A 
HETATM   27  C   UNL     1      44.490 -22.304   2.870  1.00  0.00     0.019 A 
HETATM   28  C   UNL     1      43.839 -21.641   1.841  1.00  0.00     0.005 A 
HETATM   29  C   UNL     1      43.509 -20.296   2.001  1.00  0.00     0.050 A 
ENDBRANCH  21  24
ENDBRANCH  16  20
ENDBRANCH   2  14
BRANCH   1  30
HETATM   30  C   UNL     1      41.275 -11.965   6.023  1.00  0.00    -0.023 A 
HETATM   31  C   UNL     1      41.341 -10.979   5.031  1.00  0.00     0.012 A 
HETATM   32  C   UNL     1      40.220 -10.695   4.249  1.00  0.00     0.001 A 
HETATM   33  C   UNL     1      39.029 -11.390   4.454  1.00  0.00     0.000 A 
HETATM   34  C   UNL     1      38.954 -12.370   5.445  1.00  0.00     0.001 A 
HETATM   35  C   UNL     1      40.073 -12.657   6.227  1.00  0.00     0.012 A 
ENDBRANCH   1  30
TORSDOF 4
ENDMDL
MODEL 3
REMARK VINA RESULT:      -9.3      2.434      5.057
REMARK  4 active torsions:
REMARK  status: ('A' for Active; 'I' for Inactive)
REMARK    1  A    between atoms: C_4  and  C_5 
REMARK    2  A    between atoms: C_6  and  N_7 
REMARK    3  A    between atoms: C_9  and  C_10 
REMARK       I    between atoms: C_10  and  N_11 
REMARK    4  A    between atoms: N_11  and  C_12 
ROOT
HETATM    1  C   UNL     1      43.367 -17.970   4.311  1.00  0.00     0.019 A 
HETATM    2  C   UNL     1      43.384 -17.348   5.519  1.00  0.00     0.111 A 
HETATM    3  C   UNL     1      43.845 -18.130   6.748  1.00  0.00     0.273 A 
HETATM    4  O   UNL     1      43.819 -17.654   7.884  1.00  0.00    -0.266 OA
HETATM    5  N   UNL     1      44.286 -19.407   6.565  1.00  0.00    -0.321 N 
HETATM    6  C   UNL     1      44.298 -20.052   5.333  1.00  0.00     0.046 A 
HETATM    7  C   UNL     1      43.846 -19.376   4.195  1.00  0.00     0.006 A 
HETATM    8  C   UNL     1      44.758 -21.370   5.265  1.00  0.00     0.032 A 
HETATM    9  C   UNL     1      44.768 -22.035   4.040  1.00  0.00     0.026 A 
HETATM   10  C   UNL     1      44.322 -21.376   2.897  1.00  0.00     0.035 A 
HETATM   11 CL   UNL     1      44.331 -22.197   1.385  1.00  0.00    -0.084 Cl
HETATM   12  C   UNL     1      43.867 -20.057   2.968  1.00  0.00     0.038 A 
HETATM   13  H   UNL     1      44.589 -19.885   7.401  1.00  0.00     0.169 HD
ENDROOT
BRANCH   2  14
HETATM   14  N   UNL     1      42.952 -16.012   5.732  1.00  0.00    -0.375 N 
HETATM   15  C   UNL     1      41.670 -15.607   5.106  1.00  0.00     0.137 C 
HETATM   16  C   UNL     1      41.166 -14.261   5.634  1.00  0.00     0.096 C 
HETATM   17  C   UNL     1      42.251 -13.181   5.603  1.00  0.00     0.017 C 
HETATM   18  C   UNL     1      43.517 -13.680   6.289  1.00  0.00     0.021 C 
HETATM   19  C   UNL     1      43.998 -14.974   5.644  1.00  0.00     0.123 C 
BRANCH  16  20
HETATM   20  C   UNL     1      39.924 -13.817   4.859  1.00  0.00     0.229 C 
HETATM   21  N   UNL     1      40.101 -13.779   3.488  1.00  0.00    -0.311 N 
HETATM   22  H   UNL     1      40.994 -14.059   3.110  1.00  0.00     0.170 HD
HETATM   23  O   UNL     1      38.897 -13.539   5.473  1.00  0.00    -0.273 OA
BRANCH  21  24
HETATM   24  C   UNL     1      39.131 -13.427   2.539  1.00  0.00     0.129 A 
HETATM   25  N   UNL     1      38.741 -12.152   2.382  1.00  0.00    -0.243 NA
HETATM   26  C   UNL     1      37.804 -11.885   1.448  1.00  0.00     0.119 A 
HETATM   27  C   UNL     1      37.219 -12.849   0.646  1.00  0.00     0.019 A 
HETATM   28  C   UNL     1      37.624 -14.165   0.815  1.00  0.00     0.005 A 
HETATM   29  C   UNL     1      38.596 -14.459   1.770  1.00  0.00     0.050 A 
ENDBRANCH  21  24
ENDBRANCH  16  20
ENDBRANCH   2  14
BRANCH   1  30
HETATM   30  C   UNL     1      42.860 -17.200   3.146  1.00  0.00    -0.023 A 
HETATM   31  C   UNL     1      43.681 -16.274   2.491  1.00  0.00     0.012 A 
HETATM   32  C   UNL     1      43.210 -15.589   1.369  1.00  0.00     0.001 A 
HETATM   33  C   UNL     1      41.919 -15.824   0.897  1.00  0.00     0.000 A 
HETATM   34  C   UNL     1      41.093 -16.740   1.548  1.00  0.00     0.001 A 
HETATM   35  C   UNL     1      41.561 -17.427   2.669  1.00  0.00     0.012 A 
ENDBRANCH   1  30
TORSDOF 4
ENDMDL
MODEL 4
REMARK VINA RESULT:      -9.2      3.850      6.425
REMARK  4 active torsions:
REMARK  status: ('A' for Active; 'I' for Inactive)
REMARK    1  A    between atoms: C_4  and  C_5 
REMARK    2  A    between atoms: C_6  and  N_7 
REMARK    3  A    between atoms: C_9  and  C_10 
REMARK       I    between atoms: C_10  and  N_11 
REMARK    4  A    between atoms: N_11  and  C_12 
ROOT
HETATM    1  C   UNL     1      43.402 -18.146   3.861  1.00  0.00     0.019 A 
HETATM    2  C   UNL     1      42.978 -17.306   2.881  1.00  0.00     0.111 A 
HETATM    3  C   UNL     1      43.002 -17.787   1.431  1.00  0.00     0.273 A 
HETATM    4  O   UNL     1      42.701 -17.057   0.486  1.00  0.00    -0.266 OA
HETATM    5  N   UNL     1      43.390 -19.071   1.190  1.00  0.00    -0.321 N 
HETATM    6  C   UNL     1      43.806 -19.953   2.183  1.00  0.00     0.046 A 
HETATM    7  C   UNL     1      43.831 -19.530   3.516  1.00  0.00     0.006 A 
HETATM    8  C   UNL     1      44.197 -21.244   1.819  1.00  0.00     0.032 A 
HETATM    9  C   UNL     1      44.625 -22.137   2.799  1.00  0.00     0.026 A 
HETATM   10  C   UNL     1      44.655 -21.733   4.131  1.00  0.00     0.035 A 
HETATM   11 CL   UNL     1      45.187 -22.834   5.342  1.00  0.00    -0.084 Cl
HETATM   12  C   UNL     1      44.259 -20.442   4.492  1.00  0.00     0.038 A 
HETATM   13  H   UNL     1      43.385 -19.351   0.220  1.00  0.00     0.169 HD
ENDROOT
BRANCH   2  14
HETATM   14  N   UNL     1      42.547 -15.971   3.108  1.00  0.00    -0.375 N 
HETATM   15  C   UNL     1      41.197 -15.603   2.617  1.00  0.00     0.137 C 
HETATM   16  C   UNL     1      40.729 -14.251   3.164  1.00  0.00     0.096 C 
HETATM   17  C   UNL     1      41.785 -13.155   2.988  1.00  0.00     0.017 C 
HETATM   18  C   UNL     1      43.127 -13.617   3.543  1.00  0.00     0.021 C 
HETATM   19  C   UNL     1      43.559 -14.920   2.880  1.00  0.00     0.123 C 
BRANCH  16  20
HETATM   20  C   UNL     1      39.402 -13.847   2.520  1.00  0.00     0.229 C 
HETATM   21  N   UNL     1      39.181 -12.482   2.498  1.00  0.00    -0.311 N 
HETATM   22  H   UNL     1      39.893 -11.873   2.871  1.00  0.00     0.170 HD
HETATM   23  O   UNL     1      38.655 -14.718   2.082  1.00  0.00    -0.273 OA
BRANCH  21  24
HETATM   24  C   UNL     1      38.061 -11.835   1.955  1.00  0.00     0.129 A 
HETATM   25  N   UNL     1      37.604 -10.684   2.472  1.00  0.00    -0.243 NA
HETATM   26  C   UNL     1      36.523 -10.115   1.897  1.00  0.00     0.119 A 
HETATM   27  C   UNL     1      35.856 -10.652   0.810  1.00  0.00     0.019 A 
HETATM   28  C   UNL     1      36.332 -11.844   0.283  1.00  0.00     0.005 A 
HETATM   29  C   UNL     1      37.452 -12.442   0.858  1.00  0.00     0.050 A 
ENDBRANCH  21  24
ENDBRANCH  16  20
ENDBRANCH   2  14
BRANCH   1  30
HETATM   30  C   UNL     1      43.418 -17.628   5.254  1.00  0.00    -0.023 A 
HETATM   31  C   UNL     1      42.263 -17.669   6.044  1.00  0.00     0.012 A 
HETATM   32  C   UNL     1      42.301 -17.223   7.366  1.00  0.00     0.001 A 
HETATM   33  C   UNL     1      43.490 -16.733   7.905  1.00  0.00     0.000 A 
HETATM   34  C   UNL     1      44.644 -16.684   7.123  1.00  0.00     0.001 A 
HETATM   35  C   UNL     1      44.609 -17.130   5.801  1.00  0.00     0.012 A 
ENDBRANCH   1  30
TORSDOF 4
ENDMDL
MODEL 5
REMARK VINA RESULT:      -9.0      3.787      6.926
REMARK  4 active torsions:
REMARK  status: ('A' for Active; 'I' for Inactive)
REMARK    1  A    between atoms: C_4  and  C_5 
REMARK    2  A    between atoms: C_6  and  N_7 
REMARK    3  A    between atoms: C_9  and  C_10 
REMARK       I    between atoms: C_10  and  N_11 
REMARK    4  A    between atoms: N_11  and  C_12 
ROOT
HETATM    1  C   UNL     1      43.383 -18.029   3.797  1.00  0.00     0.019 A 
HETATM    2  C   UNL     1      42.984 -17.180   2.814  1.00  0.00     0.111 A 
HETATM    3  C   UNL     1      43.029 -17.655   1.361  1.00  0.00     0.273 A 
HETATM    4  O   UNL     1      42.751 -16.917   0.415  1.00  0.00    -0.266 OA
HETATM    5  N   UNL     1      43.407 -18.942   1.121  1.00  0.00    -0.321 N 
HETATM    6  C   UNL     1      43.797 -19.833   2.116  1.00  0.00     0.046 A 
HETATM    7  C   UNL     1      43.804 -19.416   3.452  1.00  0.00     0.006 A 
HETATM    8  C   UNL     1      44.181 -21.126   1.752  1.00  0.00     0.032 A 
HETATM    9  C   UNL     1      44.584 -22.028   2.735  1.00  0.00     0.026 A 
HETATM   10  C   UNL     1      44.595 -21.630   4.070  1.00  0.00     0.035 A 
HETATM   11 CL   UNL     1      45.095 -22.742   5.284  1.00  0.00    -0.084 Cl
HETATM   12  C   UNL     1      44.206 -20.337   4.430  1.00  0.00     0.038 A 
HETATM   13  H   UNL     1      43.416 -19.217   0.150  1.00  0.00     0.169 HD
ENDROOT
BRANCH   2  14
HETATM   14  N   UNL     1      42.563 -15.842   3.040  1.00  0.00    -0.375 N 
HETATM   15  C   UNL     1      41.381 -15.367   2.281  1.00  0.00     0.137 C 
HETATM   16  C   UNL     1      40.850 -14.032   2.810  1.00  0.00     0.096 C 
HETATM   17  C   UNL     1      41.958 -12.987   2.970  1.00  0.00     0.017 C 
HETATM   18  C   UNL     1      43.114 -13.559   3.781  1.00  0.00     0.021 C 
HETATM   19  C   UNL     1      43.639 -14.836   3.135  1.00  0.00     0.123 C 
BRANCH  16  20
HETATM   20  C   UNL     1      39.727 -13.513   1.911  1.00  0.00     0.229 C 
HETATM   21  N   UNL     1      40.103 -13.331   0.591  1.00  0.00    -0.311 N 
HETATM   22  H   UNL     1      41.046 -13.568   0.323  1.00  0.00     0.170 HD
HETATM   23  O   UNL     1      38.617 -13.302   2.392  1.00  0.00    -0.273 OA
BRANCH  21  24
HETATM   24  C   UNL     1      39.276 -12.884  -0.449  1.00  0.00     0.129 A 
HETATM   25  N   UNL     1      39.041 -11.576  -0.638  1.00  0.00    -0.243 NA
HETATM   26  C   UNL     1      38.237 -11.216  -1.661  1.00  0.00     0.119 A 
HETATM   27  C   UNL     1      37.637 -12.118  -2.522  1.00  0.00     0.019 A 
HETATM   28  C   UNL     1      37.881 -13.468  -2.320  1.00  0.00     0.005 A 
HETATM   29  C   UNL     1      38.716 -13.858  -1.273  1.00  0.00     0.050 A 
ENDBRANCH  21  24
ENDBRANCH  16  20
ENDBRANCH   2  14
BRANCH   1  30
HETATM   30  C   UNL     1      43.381 -17.518   5.191  1.00  0.00    -0.023 A 
HETATM   31  C   UNL     1      42.203 -17.512   5.947  1.00  0.00     0.012 A 
HETATM   32  C   UNL     1      42.221 -17.073   7.272  1.00  0.00     0.001 A 
HETATM   33  C   UNL     1      43.414 -16.637   7.849  1.00  0.00     0.000 A 
HETATM   34  C   UNL     1      44.591 -16.635   7.100  1.00  0.00     0.001 A 
HETATM   35  C   UNL     1      44.576 -17.075   5.776  1.00  0.00     0.012 A 
ENDBRANCH   1  30
TORSDOF 4
ENDMDL
MODEL 6
REMARK VINA RESULT:      -8.5      3.684      7.259
REMARK  4 active torsions:
REMARK  status: ('A' for Active; 'I' for Inactive)
REMARK    1  A    between atoms: C_4  and  C_5 
REMARK    2  A    between atoms: C_6  and  N_7 
REMARK    3  A    between atoms: C_9  and  C_10 
REMARK       I    between atoms: C_10  and  N_11 
REMARK    4  A    between atoms: N_11  and  C_12 
ROOT
HETATM    1  C   UNL     1      41.588 -13.805   1.681  1.00  0.00     0.019 A 
HETATM    2  C   UNL     1      41.449 -13.263   2.919  1.00  0.00     0.111 A 
HETATM    3  C   UNL     1      41.410 -11.742   3.062  1.00  0.00     0.273 A 
HETATM    4  O   UNL     1      41.358 -11.181   4.157  1.00  0.00    -0.266 OA
HETATM    5  N   UNL     1      41.451 -10.992   1.924  1.00  0.00    -0.321 N 
HETATM    6  C   UNL     1      41.570 -11.530   0.647  1.00  0.00     0.046 A 
HETATM    7  C   UNL     1      41.647 -12.918   0.487  1.00  0.00     0.006 A 
HETATM    8  C   UNL     1      41.618 -10.664  -0.449  1.00  0.00     0.032 A 
HETATM    9  C   UNL     1      41.747 -11.186  -1.735  1.00  0.00     0.026 A 
HETATM   10  C   UNL     1      41.823 -12.565  -1.912  1.00  0.00     0.035 A 
HETATM   11 CL   UNL     1      41.985 -13.209  -3.500  1.00  0.00    -0.084 Cl
HETATM   12  C   UNL     1      41.771 -13.428  -0.815  1.00  0.00     0.038 A 
HETATM   13  H   UNL     1      41.415  -9.993   2.062  1.00  0.00     0.169 HD
ENDROOT
BRANCH   2  14
HETATM   14  N   UNL     1      41.381 -14.023   4.118  1.00  0.00    -0.375 N 
HETATM   15  C   UNL     1      42.403 -15.080   4.308  1.00  0.00     0.137 C 
HETATM   16  C   UNL     1      42.413 -15.628   5.738  1.00  0.00     0.096 C 
HETATM   17  C   UNL     1      41.011 -16.012   6.223  1.00  0.00     0.017 C 
HETATM   18  C   UNL     1      40.041 -14.856   6.009  1.00  0.00     0.021 C 
HETATM   19  C   UNL     1      40.029 -14.434   4.545  1.00  0.00     0.123 C 
BRANCH  16  20
HETATM   20  C   UNL     1      43.377 -16.810   5.848  1.00  0.00     0.229 C 
HETATM   21  N   UNL     1      42.947 -17.949   5.190  1.00  0.00    -0.311 N 
HETATM   22  H   UNL     1      42.075 -17.913   4.686  1.00  0.00     0.170 HD
HETATM   23  O   UNL     1      44.423 -16.679   6.479  1.00  0.00    -0.273 OA
BRANCH  21  24
HETATM   24  C   UNL     1      43.637 -19.167   5.112  1.00  0.00     0.129 A 
HETATM   25  N   UNL     1      43.711 -19.994   6.167  1.00  0.00    -0.243 NA
HETATM   26  C   UNL     1      44.388 -21.153   6.020  1.00  0.00     0.119 A 
HETATM   27  C   UNL     1      45.016 -21.534   4.847  1.00  0.00     0.019 A 
HETATM   28  C   UNL     1      44.938 -20.674   3.761  1.00  0.00     0.005 A 
HETATM   29  C   UNL     1      44.236 -19.477   3.892  1.00  0.00     0.050 A 
ENDBRANCH  21  24
ENDBRANCH  16  20
ENDBRANCH   2  14
BRANCH   1  30
HETATM   30  C   UNL     1      41.679 -15.285   1.584  1.00  0.00    -0.023 A 
HETATM   31  C   UNL     1      40.521 -16.072   1.583  1.00  0.00     0.012 A 
HETATM   32  C   UNL     1      40.615 -17.458   1.443  1.00  0.00     0.001 A 
HETATM   33  C   UNL     1      41.864 -18.064   1.305  1.00  0.00     0.000 A 
HETATM   34  C   UNL     1      43.022 -17.287   1.310  1.00  0.00     0.001 A 
HETATM   35  C   UNL     1      42.931 -15.902   1.449  1.00  0.00     0.012 A 
ENDBRANCH   1  30
TORSDOF 4
ENDMDL
MODEL 7
REMARK VINA RESULT:      -8.4      1.604      1.969
REMARK  4 active torsions:
REMARK  status: ('A' for Active; 'I' for Inactive)
REMARK    1  A    between atoms: C_4  and  C_5 
REMARK    2  A    between atoms: C_6  and  N_7 
REMARK    3  A    between atoms: C_9  and  C_10 
REMARK       I    between atoms: C_10  and  N_11 
REMARK    4  A    between atoms: N_11  and  C_12 
ROOT
HETATM    1  C   UNL     1      42.414 -16.137   4.088  1.00  0.00     0.019 A 
HETATM    2  C   UNL     1      42.437 -15.335   5.184  1.00  0.00     0.111 A 
HETATM    3  C   UNL     1      43.225 -15.784   6.414  1.00  0.00     0.273 A 
HETATM    4  O   UNL     1      43.232 -15.144   7.466  1.00  0.00    -0.266 OA
HETATM    5  N   UNL     1      43.929 -16.949   6.332  1.00  0.00    -0.321 N 
HETATM    6  C   UNL     1      43.935 -17.772   5.210  1.00  0.00     0.046 A 
HETATM    7  C   UNL     1      43.192 -17.407   4.082  1.00  0.00     0.006 A 
HETATM    8  C   UNL     1      44.681 -18.953   5.243  1.00  0.00     0.032 A 
HETATM    9  C   UNL     1      44.691 -19.794   4.132  1.00  0.00     0.026 A 
HETATM   10  C   UNL     1      43.959 -19.445   3.000  1.00  0.00     0.035 A 
HETATM   11 CL   UNL     1      43.968 -20.484   1.629  1.00  0.00    -0.084 Cl
HETATM   12  C   UNL     1      43.217 -18.261   2.969  1.00  0.00     0.038 A 
HETATM   13  H   UNL     1      44.441 -17.205   7.164  1.00  0.00     0.169 HD
ENDROOT
BRANCH   2  14
HETATM   14  N   UNL     1      41.732 -14.106   5.286  1.00  0.00    -0.375 N 
HETATM   15  C   UNL     1      42.228 -13.122   6.279  1.00  0.00     0.137 C 
HETATM   16  C   UNL     1      41.583 -11.744   6.101  1.00  0.00     0.096 C 
HETATM   17  C   UNL     1      40.057 -11.824   6.002  1.00  0.00     0.017 C 
HETATM   18  C   UNL     1      39.647 -12.841   4.943  1.00  0.00     0.021 C 
HETATM   19  C   UNL     1      40.259 -14.203   5.246  1.00  0.00     0.123 C 
BRANCH  16  20
HETATM   20  C   UNL     1      42.014 -10.806   7.230  1.00  0.00     0.229 C 
HETATM   21  N   UNL     1      42.298 -11.453   8.419  1.00  0.00    -0.311 N 
HETATM   22  H   UNL     1      42.228 -12.459   8.449  1.00  0.00     0.170 HD
HETATM   23  O   UNL     1      42.080  -9.598   7.019  1.00  0.00    -0.273 OA
BRANCH  21  24
HETATM   24  C   UNL     1      42.730 -10.846   9.607  1.00  0.00     0.129 A 
HETATM   25  N   UNL     1      41.950  -9.975  10.267  1.00  0.00    -0.243 NA
HETATM   26  C   UNL     1      42.429  -9.430  11.406  1.00  0.00     0.119 A 
HETATM   27  C   UNL     1      43.678  -9.713  11.929  1.00  0.00     0.019 A 
HETATM   28  C   UNL     1      44.481 -10.611  11.241  1.00  0.00     0.005 A 
HETATM   29  C   UNL     1      44.000 -11.190  10.067  1.00  0.00     0.050 A 
ENDBRANCH  21  24
ENDBRANCH  16  20
ENDBRANCH   2  14
BRANCH   1  30
HETATM   30  C   UNL     1      41.593 -15.698   2.930  1.00  0.00    -0.023 A 
HETATM   31  C   UNL     1      40.288 -16.178   2.758  1.00  0.00     0.012 A 
HETATM   32  C   UNL     1      39.508 -15.723   1.693  1.00  0.00     0.001 A 
HETATM   33  C   UNL     1      40.025 -14.789   0.796  1.00  0.00     0.000 A 
HETATM   34  C   UNL     1      41.325 -14.311   0.958  1.00  0.00     0.001 A 
HETATM   35  C   UNL     1      42.107 -14.763   2.022  1.00  0.00     0.012 A 
ENDBRANCH   1  30
TORSDOF 4
ENDMDL
MODEL 8
REMARK VINA RESULT:      -8.4      1.657      2.112
REMARK  4 active torsions:
REMARK  status: ('A' for Active; 'I' for Inactive)
REMARK    1  A    between atoms: C_4  and  C_5 
REMARK    2  A    between atoms: C_6  and  N_7 
REMARK    3  A    between atoms: C_9  and  C_10 
REMARK       I    between atoms: C_10  and  N_11 
REMARK    4  A    between atoms: N_11  and  C_12 
ROOT
HETATM    1  C   UNL     1      42.792 -17.556   4.047  1.00  0.00     0.019 A 
HETATM    2  C   UNL     1      42.527 -16.838   5.170  1.00  0.00     0.111 A 
HETATM    3  C   UNL     1      42.911 -17.421   6.530  1.00  0.00     0.273 A 
HETATM    4  O   UNL     1      42.637 -16.859   7.591  1.00  0.00    -0.266 OA
HETATM    5  N   UNL     1      43.567 -18.615   6.551  1.00  0.00    -0.321 N 
HETATM    6  C   UNL     1      43.868 -19.353   5.411  1.00  0.00     0.046 A 
HETATM    7  C   UNL     1      43.495 -18.865   4.154  1.00  0.00     0.006 A 
HETATM    8  C   UNL     1      44.532 -20.575   5.553  1.00  0.00     0.032 A 
HETATM    9  C   UNL     1      44.832 -21.332   4.422  1.00  0.00     0.026 A 
HETATM   10  C   UNL     1      44.469 -20.860   3.163  1.00  0.00     0.035 A 
HETATM   11 CL   UNL     1      44.837 -21.796   1.766  1.00  0.00    -0.084 Cl
HETATM   12  C   UNL     1      43.809 -19.636   3.025  1.00  0.00     0.038 A 
HETATM   13  H   UNL     1      43.809 -18.960   7.469  1.00  0.00     0.169 HD
ENDROOT
BRANCH   2  14
HETATM   14  N   UNL     1      41.865 -15.581   5.173  1.00  0.00    -0.375 N 
HETATM   15  C   UNL     1      42.354 -14.561   6.132  1.00  0.00     0.137 C 
HETATM   16  C   UNL     1      41.771 -13.173   5.850  1.00  0.00     0.096 C 
HETATM   17  C   UNL     1      40.249 -13.204   5.686  1.00  0.00     0.017 C 
HETATM   18  C   UNL     1      39.846 -14.264   4.667  1.00  0.00     0.021 C 
HETATM   19  C   UNL     1      40.393 -15.628   5.071  1.00  0.00     0.123 C 
BRANCH  16  20
HETATM   20  C   UNL     1      42.188 -12.189   6.945  1.00  0.00     0.229 C 
HETATM   21  N   UNL     1      41.142 -11.439   7.454  1.00  0.00    -0.311 N 
HETATM   22  H   UNL     1      40.213 -11.605   7.098  1.00  0.00     0.170 HD
HETATM   23  O   UNL     1      43.366 -12.132   7.289  1.00  0.00    -0.273 OA
BRANCH  21  24
HETATM   24  C   UNL     1      41.234 -10.479   8.472  1.00  0.00     0.129 A 
HETATM   25  N   UNL     1      41.625 -10.815   9.712  1.00  0.00    -0.243 NA
HETATM   26  C   UNL     1      41.693  -9.839  10.642  1.00  0.00     0.119 A 
HETATM   27  C   UNL     1      41.379  -8.514  10.392  1.00  0.00     0.019 A 
HETATM   28  C   UNL     1      40.973  -8.175   9.110  1.00  0.00     0.005 A 
HETATM   29  C   UNL     1      40.904  -9.168   8.134  1.00  0.00     0.050 A 
ENDBRANCH  21  24
ENDBRANCH  16  20
ENDBRANCH   2  14
BRANCH   1  30
HETATM   30  C   UNL     1      42.355 -16.987   2.747  1.00  0.00    -0.023 A 
HETATM   31  C   UNL     1      43.045 -15.913   2.170  1.00  0.00     0.012 A 
HETATM   32  C   UNL     1      42.655 -15.416   0.925  1.00  0.00     0.001 A 
HETATM   33  C   UNL     1      41.576 -15.987   0.251  1.00  0.00     0.000 A 
HETATM   34  C   UNL     1      40.881 -17.053   0.821  1.00  0.00     0.001 A 
HETATM   35  C   UNL     1      41.269 -17.553   2.065  1.00  0.00     0.012 A 
ENDBRANCH   1  30
TORSDOF 4
ENDMDL
MODEL 9
REMARK VINA RESULT:      -8.3      4.561      8.396
REMARK  4 active torsions:
REMARK  status: ('A' for Active; 'I' for Inactive)
REMARK    1  A    between atoms: C_4  and  C_5 
REMARK    2  A    between atoms: C_6  and  N_7 
REMARK    3  A    between atoms: C_9  and  C_10 
REMARK       I    between atoms: C_10  and  N_11 
REMARK    4  A    between atoms: N_11  and  C_12 
ROOT
HETATM    1  C   UNL     1      42.174 -15.880   3.816  1.00  0.00     0.019 A 
HETATM    2  C   UNL     1      41.989 -15.715   2.480  1.00  0.00     0.111 A 
HETATM    3  C   UNL     1      42.486 -16.798   1.524  1.00  0.00     0.273 A 
HETATM    4  O   UNL     1      42.417 -16.683   0.300  1.00  0.00    -0.266 OA
HETATM    5  N   UNL     1      43.039 -17.922   2.063  1.00  0.00    -0.321 N 
HETATM    6  C   UNL     1      43.216 -18.118   3.429  1.00  0.00     0.046 A 
HETATM    7  C   UNL     1      42.806 -17.128   4.328  1.00  0.00     0.006 A 
HETATM    8  C   UNL     1      43.809 -19.305   3.869  1.00  0.00     0.032 A 
HETATM    9  C   UNL     1      44.002 -19.514   5.233  1.00  0.00     0.026 A 
HETATM   10  C   UNL     1      43.599 -18.539   6.142  1.00  0.00     0.035 A 
HETATM   11 CL   UNL     1      43.840 -18.795   7.826  1.00  0.00    -0.084 Cl
HETATM   12  C   UNL     1      43.002 -17.356   5.698  1.00  0.00     0.038 A 
HETATM   13  H   UNL     1      43.347 -18.615   1.397  1.00  0.00     0.169 HD
ENDROOT
BRANCH   2  14
HETATM   14  N   UNL     1      41.395 -14.564   1.895  1.00  0.00    -0.375 N 
HETATM   15  C   UNL     1      40.185 -14.775   1.065  1.00  0.00     0.137 C 
HETATM   16  C   UNL     1      39.473 -13.461   0.732  1.00  0.00     0.096 C 
HETATM   17  C   UNL     1      40.435 -12.401   0.186  1.00  0.00     0.017 C 
HETATM   18  C   UNL     1      41.631 -12.239   1.116  1.00  0.00     0.021 C 
HETATM   19  C   UNL     1      42.332 -13.577   1.322  1.00  0.00     0.123 C 
BRANCH  16  20
HETATM   20  C   UNL     1      38.319 -13.713  -0.240  1.00  0.00     0.229 C 
HETATM   21  N   UNL     1      38.612 -13.392  -1.554  1.00  0.00    -0.311 N 
HETATM   22  H   UNL     1      39.536 -13.051  -1.772  1.00  0.00     0.170 HD
HETATM   23  O   UNL     1      37.259 -14.164   0.185  1.00  0.00    -0.273 OA
BRANCH  21  24
HETATM   24  C   UNL     1      37.751 -13.537  -2.651  1.00  0.00     0.129 A 
HETATM   25  N   UNL     1      37.589 -14.725  -3.256  1.00  0.00    -0.243 NA
HETATM   26  C   UNL     1      36.742 -14.793  -4.305  1.00  0.00     0.119 A 
HETATM   27  C   UNL     1      36.035 -13.709  -4.795  1.00  0.00     0.019 A 
HETATM   28  C   UNL     1      36.209 -12.484  -4.168  1.00  0.00     0.005 A 
HETATM   29  C   UNL     1      37.073 -12.396  -3.078  1.00  0.00     0.050 A 
ENDBRANCH  21  24
ENDBRANCH  16  20
ENDBRANCH   2  14
BRANCH   1  30
HETATM   30  C   UNL     1      41.730 -14.783   4.714  1.00  0.00    -0.023 A 
HETATM   31  C   UNL     1      42.615 -13.761   5.083  1.00  0.00     0.012 A 
HETATM   32  C   UNL     1      42.174 -12.710   5.889  1.00  0.00     0.001 A 
HETATM   33  C   UNL     1      40.852 -12.672   6.331  1.00  0.00     0.000 A 
HETATM   34  C   UNL     1      39.967 -13.689   5.971  1.00  0.00     0.001 A 
HETATM   35  C   UNL     1      40.403 -14.740   5.165  1.00  0.00     0.012 A 
ENDBRANCH   1  30
TORSDOF 4
ENDMDL
MODEL 10
REMARK VINA RESULT:      -8.1      2.229      3.514
REMARK  4 active torsions:
REMARK  status: ('A' for Active; 'I' for Inactive)
REMARK    1  A    between atoms: C_4  and  C_5 
REMARK    2  A    between atoms: C_6  and  N_7 
REMARK    3  A    between atoms: C_9  and  C_10 
REMARK       I    between atoms: C_10  and  N_11 
REMARK    4  A    between atoms: N_11  and  C_12 
ROOT
HETATM    1  C   UNL     1      43.167 -18.257   3.848  1.00  0.00     0.019 A 
HETATM    2  C   UNL     1      42.610 -17.457   2.901  1.00  0.00     0.111 A 
HETATM    3  C   UNL     1      42.601 -17.926   1.446  1.00  0.00     0.273 A 
HETATM    4  O   UNL     1      42.179 -17.224   0.527  1.00  0.00    -0.266 OA
HETATM    5  N   UNL     1      43.097 -19.166   1.172  1.00  0.00    -0.321 N 
HETATM    6  C   UNL     1      43.650 -20.008   2.131  1.00  0.00     0.046 A 
HETATM    7  C   UNL     1      43.707 -19.591   3.465  1.00  0.00     0.006 A 
HETATM    8  C   UNL     1      44.143 -21.254   1.733  1.00  0.00     0.032 A 
HETATM    9  C   UNL     1      44.709 -22.106   2.679  1.00  0.00     0.026 A 
HETATM   10  C   UNL     1      44.773 -21.707   4.011  1.00  0.00     0.035 A 
HETATM   11 CL   UNL     1      45.474 -22.758   5.180  1.00  0.00    -0.084 Cl
HETATM   12  C   UNL     1      44.275 -20.463   4.407  1.00  0.00     0.038 A 
HETATM   13  H   UNL     1      43.065 -19.439   0.200  1.00  0.00     0.169 HD
ENDROOT
BRANCH   2  14
HETATM   14  N   UNL     1      42.066 -16.171   3.165  1.00  0.00    -0.375 N 
HETATM   15  C   UNL     1      42.728 -15.359   4.215  1.00  0.00     0.137 C 
HETATM   16  C   UNL     1      42.248 -13.904   4.211  1.00  0.00     0.096 C 
HETATM   17  C   UNL     1      40.721 -13.796   4.199  1.00  0.00     0.017 C 
HETATM   18  C   UNL     1      40.137 -14.643   3.075  1.00  0.00     0.021 C 
HETATM   19  C   UNL     1      40.592 -16.091   3.207  1.00  0.00     0.123 C 
BRANCH  16  20
HETATM   20  C   UNL     1      42.847 -13.145   5.396  1.00  0.00     0.229 C 
HETATM   21  N   UNL     1      44.027 -13.688   5.873  1.00  0.00    -0.311 N 
HETATM   22  H   UNL     1      44.406 -14.499   5.409  1.00  0.00     0.170 HD
HETATM   23  O   UNL     1      42.272 -12.148   5.827  1.00  0.00    -0.273 OA
BRANCH  21  24
HETATM   24  C   UNL     1      44.795 -13.189   6.934  1.00  0.00     0.129 A 
HETATM   25  N   UNL     1      46.109 -12.949   6.790  1.00  0.00    -0.243 NA
HETATM   26  C   UNL     1      46.787 -12.466   7.852  1.00  0.00     0.119 A 
HETATM   27  C   UNL     1      46.208 -12.209   9.083  1.00  0.00     0.019 A 
HETATM   28  C   UNL     1      44.852 -12.461   9.227  1.00  0.00     0.005 A 
HETATM   29  C   UNL     1      44.133 -12.953   8.138  1.00  0.00     0.050 A 
ENDBRANCH  21  24
ENDBRANCH  16  20
ENDBRANCH   2  14
BRANCH   1  30
HETATM   30  C   UNL     1      43.210 -17.747   5.242  1.00  0.00    -0.023 A 
HETATM   31  C   UNL     1      42.048 -17.703   6.022  1.00  0.00     0.012 A 
HETATM   32  C   UNL     1      42.108 -17.266   7.347  1.00  0.00     0.001 A 
HETATM   33  C   UNL     1      43.326 -16.870   7.898  1.00  0.00     0.000 A 
HETATM   34  C   UNL     1      44.487 -16.905   7.126  1.00  0.00     0.001 A 
HETATM   35  C   UNL     1      44.430 -17.343   5.802  1.00  0.00     0.012 A 
ENDBRANCH   1  30
TORSDOF 4
ENDMDL
