MODEL 1
REMARK VINA RESULT:      -8.3      0.000      0.000
REMARK  9 active torsions:
REMARK  status: ('A' for Active; 'I' for Inactive)
REMARK    1  A    between atoms: C_4  and  C_5 
REMARK    2  A    between atoms: C_5  and  N_6 
REMARK    3  A    between atoms: C_11  and  C_12 
REMARK       I    between atoms: C_12  and  N_13 
REMARK    4  A    between atoms: C_15  and  N_16 
REMARK       I    between atoms: N_16  and  C_17 
REMARK    5  A    between atoms: C_17  and  C_18 
REMARK    6  A    between atoms: C_18  and  C_19 
REMARK    7  A    between atoms: C_19  and  C_20 
REMARK    8  A    between atoms: C_20  and  S_21 
REMARK    9  A    between atoms: S_21  and  C_22 
ROOT
HETATM    1  N   UNL     1      43.309 -17.653   4.706  1.00  0.00    -0.063 N 
HETATM    2  H   UNL     1      43.683 -18.103   5.547  1.00  0.00     0.280 HD
HETATM    3  C   UNL     1      43.527 -16.154   4.909  1.00  0.00     0.282 C 
HETATM    4  C   UNL     1      42.655 -15.358   4.001  1.00  0.00     0.018 C 
HETATM    5  C   UNL     1      41.574 -15.848   3.296  1.00  0.00    -0.023 C 
HETATM    6  C   UNL     1      41.029 -14.851   2.402  1.00  0.00     0.073 C 
HETATM    7  C   UNL     1      41.551 -13.600   2.705  1.00  0.00     0.093 C 
HETATM    8  S   UNL     1      42.872 -13.696   3.775  1.00  0.00    -0.074 SA
HETATM    9  C   UNL     1      41.131 -17.279   3.443  1.00  0.00     0.068 C 
HETATM   10  C   UNL     1      41.816 -17.970   4.641  1.00  0.00     0.240 C 
ENDROOT
BRANCH   7  11
HETATM   11  N   UNL     1      41.140 -12.377   2.195  1.00  0.00    -0.320 N 
HETATM   12  C   UNL     1      41.672 -11.746   1.078  1.00  0.00     0.222 C 
HETATM   13  O   UNL     1      42.598 -12.150   0.384  1.00  0.00    -0.273 OA
HETATM   14  H   UNL     1      40.626 -11.784   2.840  1.00  0.00     0.169 HD
BRANCH  12  15
HETATM   15  C   UNL     1      40.951 -10.438   0.778  1.00  0.00     0.104 C 
BRANCH  15  16
HETATM   16  C   UNL     1      39.645 -10.619   0.006  1.00  0.00     0.020 C 
BRANCH  16  17
HETATM   17  C   UNL     1      39.615 -10.179  -1.462  1.00  0.00     0.080 C 
BRANCH  17  18
HETATM   18  S   UNL     1      40.982 -10.747  -2.534  1.00  0.00    -0.130 SA
BRANCH  18  19
HETATM   19  C   UNL     1      40.588 -12.458  -2.856  1.00  0.00     0.000 A 
HETATM   20  C   UNL     1      39.291 -12.933  -3.072  1.00  0.00     0.021 A 
HETATM   21  C   UNL     1      39.067 -14.293  -3.305  1.00  0.00     0.043 A 
HETATM   22  C   UNL     1      40.143 -15.172  -3.345  1.00  0.00     0.116 A 
HETATM   23  F   UNL     1      39.926 -16.474  -3.566  1.00  0.00    -0.206 F 
HETATM   24  C   UNL     1      41.440 -14.715  -3.166  1.00  0.00     0.043 A 
HETATM   25  C   UNL     1      41.663 -13.358  -2.923  1.00  0.00     0.021 A 
ENDBRANCH  18  19
ENDBRANCH  17  18
ENDBRANCH  16  17
ENDBRANCH  15  16
ENDBRANCH  12  15
ENDBRANCH   7  11
BRANCH   6  26
HETATM   26  C   UNL     1      40.011 -15.114   1.389  1.00  0.00     0.252 C 
HETATM   27  N   UNL     1      38.809 -15.571   1.855  1.00  0.00    -0.366 N 
HETATM   28  H   UNL     1      38.528 -15.356   2.805  1.00  0.00     0.159 HD
HETATM   29  H   UNL     1      38.064 -15.575   1.167  1.00  0.00     0.159 HD
HETATM   30  O   UNL     1      40.174 -14.860   0.203  1.00  0.00    -0.268 OA
ENDBRANCH   6  26
BRANCH   1  31
HETATM   31  C   UNL     1      44.060 -18.251   3.537  1.00  0.00     0.273 C 
BRANCH  31  32
HETATM   32  C   UNL     1      44.292 -19.735   3.591  1.00  0.00    -0.033 A 
HETATM   33  C   UNL     1      44.678 -20.386   4.772  1.00  0.00     0.009 A 
HETATM   34  C   UNL     1      44.854 -21.771   4.787  1.00  0.00     0.001 A 
HETATM   35  C   UNL     1      44.630 -22.521   3.636  1.00  0.00     0.000 A 
HETATM   36  C   UNL     1      44.228 -21.890   2.462  1.00  0.00     0.001 A 
HETATM   37  C   UNL     1      44.061 -20.507   2.439  1.00  0.00     0.009 A 
ENDBRANCH  31  32
ENDBRANCH   1  31
TORSDOF 9
ENDMDL
MODEL 2
REMARK VINA RESULT:      -8.3      2.643      8.339
REMARK  9 active torsions:
REMARK  status: ('A' for Active; 'I' for Inactive)
REMARK    1  A    between atoms: C_4  and  C_5 
REMARK    2  A    between atoms: C_5  and  N_6 
REMARK    3  A    between atoms: C_11  and  C_12 
REMARK       I    between atoms: C_12  and  N_13 
REMARK    4  A    between atoms: C_15  and  N_16 
REMARK       I    between atoms: N_16  and  C_17 
REMARK    5  A    between atoms: C_17  and  C_18 
REMARK    6  A    between atoms: C_18  and  C_19 
REMARK    7  A    between atoms: C_19  and  C_20 
REMARK    8  A    between atoms: C_20  and  S_21 
REMARK    9  A    between atoms: S_21  and  C_22 
ROOT
HETATM    1  N   UNL     1      39.155 -11.857  -0.644  1.00  0.00    -0.063 N 
HETATM    2  H   UNL     1      38.385 -11.406  -1.147  1.00  0.00     0.280 HD
HETATM    3  C   UNL     1      38.540 -13.072   0.049  1.00  0.00     0.282 C 
HETATM    4  C   UNL     1      39.414 -13.558   1.152  1.00  0.00     0.018 C 
HETATM    5  C   UNL     1      40.469 -12.861   1.706  1.00  0.00    -0.023 C 
HETATM    6  C   UNL     1      41.197 -13.669   2.657  1.00  0.00     0.073 C 
HETATM    7  C   UNL     1      40.473 -14.812   2.967  1.00  0.00     0.093 C 
HETATM    8  S   UNL     1      39.161 -15.050   1.909  1.00  0.00    -0.074 SA
HETATM    9  C   UNL     1      40.797 -11.461   1.260  1.00  0.00     0.068 C 
HETATM   10  C   UNL     1      39.672 -10.859   0.391  1.00  0.00     0.240 C 
ENDROOT
BRANCH   7  11
HETATM   11  N   UNL     1      40.752 -15.734   3.966  1.00  0.00    -0.320 N 
HETATM   12  C   UNL     1      40.621 -15.512   5.331  1.00  0.00     0.222 C 
HETATM   13  O   UNL     1      40.267 -14.470   5.870  1.00  0.00    -0.273 OA
HETATM   14  H   UNL     1      41.356 -16.504   3.695  1.00  0.00     0.169 HD
BRANCH  12  15
HETATM   15  C   UNL     1      40.973 -16.756   6.137  1.00  0.00     0.104 C 
BRANCH  15  16
HETATM   16  C   UNL     1      41.932 -17.702   5.416  1.00  0.00     0.020 C 
BRANCH  16  17
HETATM   17  C   UNL     1      43.017 -18.393   6.251  1.00  0.00     0.080 C 
BRANCH  17  18
HETATM   18  S   UNL     1      44.677 -18.549   5.501  1.00  0.00    -0.130 SA
BRANCH  18  19
HETATM   19  C   UNL     1      44.450 -19.762   4.212  1.00  0.00     0.000 A 
HETATM   20  C   UNL     1      44.743 -21.122   4.361  1.00  0.00     0.021 A 
HETATM   21  C   UNL     1      44.548 -22.006   3.294  1.00  0.00     0.043 A 
HETATM   22  C   UNL     1      44.039 -21.533   2.091  1.00  0.00     0.116 A 
HETATM   23  F   UNL     1      43.856 -22.380   1.071  1.00  0.00    -0.206 F 
HETATM   24  C   UNL     1      43.713 -20.193   1.935  1.00  0.00     0.043 A 
HETATM   25  C   UNL     1      43.916 -19.309   2.996  1.00  0.00     0.021 A 
ENDBRANCH  18  19
ENDBRANCH  17  18
ENDBRANCH  16  17
ENDBRANCH  15  16
ENDBRANCH  12  15
ENDBRANCH   7  11
BRANCH   6  26
HETATM   26  C   UNL     1      42.468 -13.288   3.268  1.00  0.00     0.252 C 
HETATM   27  N   UNL     1      42.381 -12.516   4.394  1.00  0.00    -0.366 N 
HETATM   28  H   UNL     1      41.544 -12.557   4.964  1.00  0.00     0.159 HD
HETATM   29  H   UNL     1      43.253 -12.414   4.902  1.00  0.00     0.159 HD
HETATM   30  O   UNL     1      43.548 -13.698   2.863  1.00  0.00    -0.268 OA
ENDBRANCH   6  26
BRANCH   1  31
HETATM   31  C   UNL     1      40.205 -12.182  -1.683  1.00  0.00     0.273 C 
BRANCH  31  32
HETATM   32  C   UNL     1      40.084 -13.526  -2.347  1.00  0.00    -0.033 A 
HETATM   33  C   UNL     1      40.974 -14.575  -2.072  1.00  0.00     0.009 A 
HETATM   34  C   UNL     1      40.809 -15.817  -2.687  1.00  0.00     0.001 A 
HETATM   35  C   UNL     1      39.749 -16.032  -3.564  1.00  0.00     0.000 A 
HETATM   36  C   UNL     1      38.847 -15.006  -3.831  1.00  0.00     0.001 A 
HETATM   37  C   UNL     1      39.014 -13.760  -3.227  1.00  0.00     0.009 A 
ENDBRANCH  31  32
ENDBRANCH   1  31
TORSDOF 9
ENDMDL
MODEL 3
REMARK VINA RESULT:      -8.2      5.510      7.685
REMARK  9 active torsions:
REMARK  status: ('A' for Active; 'I' for Inactive)
REMARK    1  A    between atoms: C_4  and  C_5 
REMARK    2  A    between atoms: C_5  and  N_6 
REMARK    3  A    between atoms: C_11  and  C_12 
REMARK       I    between atoms: C_12  and  N_13 
REMARK    4  A    between atoms: C_15  and  N_16 
REMARK       I    between atoms: N_16  and  C_17 
REMARK    5  A    between atoms: C_17  and  C_18 
REMARK    6  A    between atoms: C_18  and  C_19 
REMARK    7  A    between atoms: C_19  and  C_20 
REMARK    8  A    between atoms: C_20  and  S_21 
REMARK    9  A    between atoms: S_21  and  C_22 
ROOT
HETATM    1  N   UNL     1      44.062 -18.225   5.675  1.00  0.00    -0.063 N 
HETATM    2  H   UNL     1      44.638 -18.949   6.115  1.00  0.00     0.280 HD
HETATM    3  C   UNL     1      44.525 -16.903   6.286  1.00  0.00     0.282 C 
HETATM    4  C   UNL     1      43.506 -15.835   6.088  1.00  0.00     0.018 C 
HETATM    5  C   UNL     1      42.196 -16.039   5.699  1.00  0.00    -0.023 C 
HETATM    6  C   UNL     1      41.513 -14.788   5.463  1.00  0.00     0.073 C 
HETATM    7  C   UNL     1      42.262 -13.732   5.967  1.00  0.00     0.093 C 
HETATM    8  S   UNL     1      43.844 -14.204   6.383  1.00  0.00    -0.074 SA
HETATM    9  C   UNL     1      41.651 -17.427   5.497  1.00  0.00     0.068 C 
HETATM   10  C   UNL     1      42.607 -18.505   6.051  1.00  0.00     0.240 C 
ENDROOT
BRANCH   7  11
HETATM   11  N   UNL     1      41.862 -12.409   6.093  1.00  0.00    -0.320 N 
HETATM   12  C   UNL     1      41.623 -11.532   5.043  1.00  0.00     0.222 C 
HETATM   13  O   UNL     1      41.751 -11.773   3.848  1.00  0.00    -0.273 OA
HETATM   14  H   UNL     1      42.034 -11.984   6.999  1.00  0.00     0.169 HD
BRANCH  12  15
HETATM   15  C   UNL     1      41.156 -10.171   5.545  1.00  0.00     0.104 C 
BRANCH  15  16
HETATM   16  C   UNL     1      40.156 -10.252   6.697  1.00  0.00     0.020 C 
BRANCH  16  17
HETATM   17  C   UNL     1      40.452  -9.432   7.959  1.00  0.00     0.080 C 
BRANCH  17  18
HETATM   18  S   UNL     1      40.433 -10.320   9.557  1.00  0.00    -0.130 SA
BRANCH  18  19
HETATM   19  C   UNL     1      42.161 -10.569   9.926  1.00  0.00     0.000 A 
HETATM   20  C   UNL     1      43.085 -11.098   9.018  1.00  0.00     0.021 A 
HETATM   21  C   UNL     1      44.421 -11.274   9.392  1.00  0.00     0.043 A 
HETATM   22  C   UNL     1      44.835 -10.898  10.664  1.00  0.00     0.116 A 
HETATM   23  F   UNL     1      46.114 -11.069  11.021  1.00  0.00    -0.206 F 
HETATM   24  C   UNL     1      43.941 -10.342  11.567  1.00  0.00     0.043 A 
HETATM   25  C   UNL     1      42.606 -10.175  11.197  1.00  0.00     0.021 A 
ENDBRANCH  18  19
ENDBRANCH  17  18
ENDBRANCH  16  17
ENDBRANCH  15  16
ENDBRANCH  12  15
ENDBRANCH   7  11
BRANCH   6  26
HETATM   26  C   UNL     1      40.187 -14.667   4.864  1.00  0.00     0.252 C 
HETATM   27  N   UNL     1      39.170 -14.357   5.724  1.00  0.00    -0.366 N 
HETATM   28  H   UNL     1      39.376 -13.865   6.585  1.00  0.00     0.159 HD
HETATM   29  H   UNL     1      38.299 -14.102   5.271  1.00  0.00     0.159 HD
HETATM   30  O   UNL     1      39.995 -14.747   3.658  1.00  0.00    -0.268 OA
ENDBRANCH   6  26
BRANCH   1  31
HETATM   31  C   UNL     1      44.290 -18.349   4.185  1.00  0.00     0.273 C 
BRANCH  31  32
HETATM   32  C   UNL     1      44.338 -19.750   3.639  1.00  0.00    -0.033 A 
HETATM   33  C   UNL     1      44.794 -20.832   4.406  1.00  0.00     0.009 A 
HETATM   34  C   UNL     1      44.795 -22.122   3.871  1.00  0.00     0.001 A 
HETATM   35  C   UNL     1      44.325 -22.348   2.580  1.00  0.00     0.000 A 
HETATM   36  C   UNL     1      43.851 -21.286   1.815  1.00  0.00     0.001 A 
HETATM   37  C   UNL     1      43.858 -19.995   2.340  1.00  0.00     0.009 A 
ENDBRANCH  31  32
ENDBRANCH   1  31
TORSDOF 9
ENDMDL
MODEL 4
REMARK VINA RESULT:      -8.0      2.972      9.096
REMARK  9 active torsions:
REMARK  status: ('A' for Active; 'I' for Inactive)
REMARK    1  A    between atoms: C_4  and  C_5 
REMARK    2  A    between atoms: C_5  and  N_6 
REMARK    3  A    between atoms: C_11  and  C_12 
REMARK       I    between atoms: C_12  and  N_13 
REMARK    4  A    between atoms: C_15  and  N_16 
REMARK       I    between atoms: N_16  and  C_17 
REMARK    5  A    between atoms: C_17  and  C_18 
REMARK    6  A    between atoms: C_18  and  C_19 
REMARK    7  A    between atoms: C_19  and  C_20 
REMARK    8  A    between atoms: C_20  and  S_21 
REMARK    9  A    between atoms: S_21  and  C_22 
ROOT
HETATM    1  N   UNL     1      39.460 -13.128  -2.452  1.00  0.00    -0.063 N 
HETATM    2  H   UNL     1      39.345 -12.340  -3.096  1.00  0.00     0.280 HD
HETATM    3  C   UNL     1      39.690 -12.506  -1.076  1.00  0.00     0.282 C 
HETATM    4  C   UNL     1      40.304 -13.488  -0.140  1.00  0.00     0.018 C 
HETATM    5  C   UNL     1      40.886 -14.686  -0.504  1.00  0.00    -0.023 C 
HETATM    6  C   UNL     1      41.259 -15.467   0.654  1.00  0.00     0.073 C 
HETATM    7  C   UNL     1      41.199 -14.683   1.799  1.00  0.00     0.093 C 
HETATM    8  S   UNL     1      40.408 -13.201   1.524  1.00  0.00    -0.074 SA
HETATM    9  C   UNL     1      41.007 -15.086  -1.950  1.00  0.00     0.068 C 
HETATM   10  C   UNL     1      40.696 -13.908  -2.897  1.00  0.00     0.240 C 
ENDROOT
BRANCH   7  11
HETATM   11  N   UNL     1      41.654 -15.019   3.066  1.00  0.00    -0.320 N 
HETATM   12  C   UNL     1      42.896 -14.691   3.594  1.00  0.00     0.222 C 
HETATM   13  O   UNL     1      43.793 -14.083   3.022  1.00  0.00    -0.273 OA
HETATM   14  H   UNL     1      41.166 -15.788   3.517  1.00  0.00     0.169 HD
BRANCH  12  15
HETATM   15  C   UNL     1      43.043 -15.183   5.028  1.00  0.00     0.104 C 
BRANCH  15  16
HETATM   16  C   UNL     1      41.985 -16.206   5.437  1.00  0.00     0.020 C 
BRANCH  16  17
HETATM   17  C   UNL     1      42.447 -17.643   5.706  1.00  0.00     0.080 C 
BRANCH  17  18
HETATM   18  S   UNL     1      44.216 -18.018   5.437  1.00  0.00    -0.130 SA
BRANCH  18  19
HETATM   19  C   UNL     1      44.193 -19.340   4.239  1.00  0.00     0.000 A 
HETATM   20  C   UNL     1      44.786 -20.590   4.445  1.00  0.00     0.021 A 
HETATM   21  C   UNL     1      44.734 -21.569   3.447  1.00  0.00     0.043 A 
HETATM   22  C   UNL     1      44.070 -21.304   2.256  1.00  0.00     0.116 A 
HETATM   23  F   UNL     1      44.024 -22.242   1.302  1.00  0.00    -0.206 F 
HETATM   24  C   UNL     1      43.449 -20.082   2.045  1.00  0.00     0.043 A 
HETATM   25  C   UNL     1      43.509 -19.102   3.037  1.00  0.00     0.021 A 
ENDBRANCH  18  19
ENDBRANCH  17  18
ENDBRANCH  16  17
ENDBRANCH  15  16
ENDBRANCH  12  15
ENDBRANCH   7  11
BRANCH   6  26
HETATM   26  C   UNL     1      41.719 -16.852   0.606  1.00  0.00     0.252 C 
HETATM   27  N   UNL     1      43.048 -17.031   0.338  1.00  0.00    -0.366 N 
HETATM   28  H   UNL     1      43.706 -16.292   0.559  1.00  0.00     0.159 HD
HETATM   29  H   UNL     1      43.384 -17.976   0.487  1.00  0.00     0.159 HD
HETATM   30  O   UNL     1      40.995 -17.801   0.876  1.00  0.00    -0.268 OA
ENDBRANCH   6  26
BRANCH   1  31
HETATM   31  C   UNL     1      38.201 -13.958  -2.571  1.00  0.00     0.273 C 
BRANCH  31  32
HETATM   32  C   UNL     1      37.193 -13.489  -3.584  1.00  0.00    -0.033 A 
HETATM   33  C   UNL     1      36.940 -12.127  -3.807  1.00  0.00     0.009 A 
HETATM   34  C   UNL     1      36.019 -11.733  -4.778  1.00  0.00     0.001 A 
HETATM   35  C   UNL     1      35.357 -12.687  -5.548  1.00  0.00     0.000 A 
HETATM   36  C   UNL     1      35.613 -14.040  -5.351  1.00  0.00     0.001 A 
HETATM   37  C   UNL     1      36.525 -14.440  -4.375  1.00  0.00     0.009 A 
ENDBRANCH  31  32
ENDBRANCH   1  31
TORSDOF 9
ENDMDL
MODEL 5
REMARK VINA RESULT:      -8.0      1.547      1.865
REMARK  9 active torsions:
REMARK  status: ('A' for Active; 'I' for Inactive)
REMARK    1  A    between atoms: C_4  and  C_5 
REMARK    2  A    between atoms: C_5  and  N_6 
REMARK    3  A    between atoms: C_11  and  C_12 
REMARK       I    between atoms: C_12  and  N_13 
REMARK    4  A    between atoms: C_15  and  N_16 
REMARK       I    between atoms: N_16  and  C_17 
REMARK    5  A    between atoms: C_17  and  C_18 
REMARK    6  A    between atoms: C_18  and  C_19 
REMARK    7  A    between atoms: C_19  and  C_20 
REMARK    8  A    between atoms: C_20  and  S_21 
REMARK    9  A    between atoms: S_21  and  C_22 
ROOT
HETATM    1  N   UNL     1      43.381 -17.837   5.120  1.00  0.00    -0.063 N 
HETATM    2  H   UNL     1      43.766 -18.315   5.940  1.00  0.00     0.280 HD
HETATM    3  C   UNL     1      43.531 -16.344   5.404  1.00  0.00     0.282 C 
HETATM    4  C   UNL     1      42.634 -15.539   4.530  1.00  0.00     0.018 C 
HETATM    5  C   UNL     1      41.582 -16.036   3.786  1.00  0.00    -0.023 C 
HETATM    6  C   UNL     1      41.004 -15.018   2.939  1.00  0.00     0.073 C 
HETATM    7  C   UNL     1      41.468 -13.764   3.315  1.00  0.00     0.093 C 
HETATM    8  S   UNL     1      42.781 -13.859   4.394  1.00  0.00    -0.074 SA
HETATM    9  C   UNL     1      41.201 -17.491   3.852  1.00  0.00     0.068 C 
HETATM   10  C   UNL     1      41.904 -18.215   5.020  1.00  0.00     0.240 C 
ENDROOT
BRANCH   7  11
HETATM   11  N   UNL     1      41.009 -12.534   2.866  1.00  0.00    -0.320 N 
HETATM   12  C   UNL     1      39.947 -11.819   3.406  1.00  0.00     0.222 C 
HETATM   13  O   UNL     1      39.234 -12.168   4.340  1.00  0.00    -0.273 OA
HETATM   14  H   UNL     1      41.277 -12.286   1.918  1.00  0.00     0.169 HD
BRANCH  12  15
HETATM   15  C   UNL     1      39.746 -10.489   2.692  1.00  0.00     0.104 C 
BRANCH  15  16
HETATM   16  C   UNL     1      40.508 -10.380   1.373  1.00  0.00     0.020 C 
BRANCH  16  17
HETATM   17  C   UNL     1      39.697 -10.427   0.073  1.00  0.00     0.080 C 
BRANCH  17  18
HETATM   18  S   UNL     1      38.518 -11.809  -0.128  1.00  0.00    -0.130 SA
BRANCH  18  19
HETATM   19  C   UNL     1      39.410 -12.989  -1.125  1.00  0.00     0.000 A 
HETATM   20  C   UNL     1      38.797 -13.915  -1.975  1.00  0.00     0.021 A 
HETATM   21  C   UNL     1      39.571 -14.816  -2.713  1.00  0.00     0.043 A 
HETATM   22  C   UNL     1      40.957 -14.774  -2.618  1.00  0.00     0.116 A 
HETATM   23  F   UNL     1      41.695 -15.639  -3.323  1.00  0.00    -0.206 F 
HETATM   24  C   UNL     1      41.585 -13.842  -1.804  1.00  0.00     0.043 A 
HETATM   25  C   UNL     1      40.812 -12.949  -1.060  1.00  0.00     0.021 A 
ENDBRANCH  18  19
ENDBRANCH  17  18
ENDBRANCH  16  17
ENDBRANCH  15  16
ENDBRANCH  12  15
ENDBRANCH   7  11
BRANCH   6  26
HETATM   26  C   UNL     1      40.008 -15.270   1.902  1.00  0.00     0.252 C 
HETATM   27  N   UNL     1      40.435 -16.004   0.830  1.00  0.00    -0.366 N 
HETATM   28  H   UNL     1      41.214 -16.642   0.941  1.00  0.00     0.159 HD
HETATM   29  H   UNL     1      39.693 -16.321   0.215  1.00  0.00     0.159 HD
HETATM   30  O   UNL     1      38.837 -14.929   2.010  1.00  0.00    -0.268 OA
ENDBRANCH   6  26
BRANCH   1  31
HETATM   31  C   UNL     1      44.169 -18.339   3.930  1.00  0.00     0.273 C 
BRANCH  31  32
HETATM   32  C   UNL     1      44.300 -19.832   3.807  1.00  0.00    -0.033 A 
HETATM   33  C   UNL     1      44.058 -20.503   2.599  1.00  0.00     0.009 A 
HETATM   34  C   UNL     1      44.221 -21.888   2.519  1.00  0.00     0.001 A 
HETATM   35  C   UNL     1      44.644 -22.612   3.631  1.00  0.00     0.000 A 
HETATM   36  C   UNL     1      44.907 -21.956   4.830  1.00  0.00     0.001 A 
HETATM   37  C   UNL     1      44.735 -20.575   4.918  1.00  0.00     0.009 A 
ENDBRANCH  31  32
ENDBRANCH   1  31
TORSDOF 9
ENDMDL
MODEL 6
REMARK VINA RESULT:      -7.9      2.900      8.675
REMARK  9 active torsions:
REMARK  status: ('A' for Active; 'I' for Inactive)
REMARK    1  A    between atoms: C_4  and  C_5 
REMARK    2  A    between atoms: C_5  and  N_6 
REMARK    3  A    between atoms: C_11  and  C_12 
REMARK       I    between atoms: C_12  and  N_13 
REMARK    4  A    between atoms: C_15  and  N_16 
REMARK       I    between atoms: N_16  and  C_17 
REMARK    5  A    between atoms: C_17  and  C_18 
REMARK    6  A    between atoms: C_18  and  C_19 
REMARK    7  A    between atoms: C_19  and  C_20 
REMARK    8  A    between atoms: C_20  and  S_21 
REMARK    9  A    between atoms: S_21  and  C_22 
ROOT
HETATM    1  N   UNL     1      40.571 -13.765  -0.533  1.00  0.00    -0.063 N 
HETATM    2  H   UNL     1      40.466 -14.002  -1.524  1.00  0.00     0.280 HD
HETATM    3  C   UNL     1      41.661 -14.693   0.001  1.00  0.00     0.282 C 
HETATM    4  C   UNL     1      41.613 -14.778   1.486  1.00  0.00     0.018 C 
HETATM    5  C   UNL     1      40.565 -14.354   2.280  1.00  0.00    -0.023 C 
HETATM    6  C   UNL     1      40.893 -14.448   3.684  1.00  0.00     0.073 C 
HETATM    7  C   UNL     1      42.045 -15.204   3.857  1.00  0.00     0.093 C 
HETATM    8  S   UNL     1      42.860 -15.481   2.388  1.00  0.00    -0.074 SA
HETATM    9  C   UNL     1      39.303 -13.803   1.674  1.00  0.00     0.068 C 
HETATM   10  C   UNL     1      39.238 -14.060   0.153  1.00  0.00     0.240 C 
ENDROOT
BRANCH   7  11
HETATM   11  N   UNL     1      42.570 -15.666   5.056  1.00  0.00    -0.320 N 
HETATM   12  C   UNL     1      43.508 -15.004   5.838  1.00  0.00     0.222 C 
HETATM   13  O   UNL     1      44.040 -13.930   5.585  1.00  0.00    -0.273 OA
HETATM   14  H   UNL     1      42.478 -16.665   5.218  1.00  0.00     0.169 HD
BRANCH  12  15
HETATM   15  C   UNL     1      43.826 -15.781   7.109  1.00  0.00     0.104 C 
BRANCH  15  16
HETATM   16  C   UNL     1      42.945 -17.013   7.311  1.00  0.00     0.020 C 
BRANCH  16  17
HETATM   17  C   UNL     1      43.577 -18.390   7.081  1.00  0.00     0.080 C 
BRANCH  17  18
HETATM   18  S   UNL     1      45.118 -18.450   6.100  1.00  0.00    -0.130 SA
BRANCH  18  19
HETATM   19  C   UNL     1      44.695 -19.479   4.705  1.00  0.00     0.000 A 
HETATM   20  C   UNL     1      44.974 -20.848   4.632  1.00  0.00     0.021 A 
HETATM   21  C   UNL     1      44.620 -21.581   3.494  1.00  0.00     0.043 A 
HETATM   22  C   UNL     1      43.967 -20.949   2.443  1.00  0.00     0.116 A 
HETATM   23  F   UNL     1      43.632 -21.652   1.354  1.00  0.00    -0.206 F 
HETATM   24  C   UNL     1      43.654 -19.599   2.510  1.00  0.00     0.043 A 
HETATM   25  C   UNL     1      44.016 -18.865   3.641  1.00  0.00     0.021 A 
ENDBRANCH  18  19
ENDBRANCH  17  18
ENDBRANCH  16  17
ENDBRANCH  15  16
ENDBRANCH  12  15
ENDBRANCH   7  11
BRANCH   6  26
HETATM   26  C   UNL     1      40.075 -13.903   4.764  1.00  0.00     0.252 C 
HETATM   27  N   UNL     1      39.488 -14.822   5.590  1.00  0.00    -0.366 N 
HETATM   28  H   UNL     1      39.905 -15.740   5.692  1.00  0.00     0.159 HD
HETATM   29  H   UNL     1      39.078 -14.430   6.432  1.00  0.00     0.159 HD
HETATM   30  O   UNL     1      39.983 -12.703   4.986  1.00  0.00    -0.268 OA
ENDBRANCH   6  26
BRANCH   1  31
HETATM   31  C   UNL     1      40.912 -12.292  -0.484  1.00  0.00     0.273 C 
BRANCH  31  32
HETATM   32  C   UNL     1      41.497 -11.707  -1.741  1.00  0.00    -0.033 A 
HETATM   33  C   UNL     1      41.240 -12.255  -3.006  1.00  0.00     0.009 A 
HETATM   34  C   UNL     1      41.777 -11.664  -4.151  1.00  0.00     0.001 A 
HETATM   35  C   UNL     1      42.556 -10.514  -4.049  1.00  0.00     0.000 A 
HETATM   36  C   UNL     1      42.803  -9.949  -2.801  1.00  0.00     0.001 A 
HETATM   37  C   UNL     1      42.278 -10.541  -1.654  1.00  0.00     0.009 A 
ENDBRANCH  31  32
ENDBRANCH   1  31
TORSDOF 9
ENDMDL
MODEL 7
REMARK VINA RESULT:      -7.8      2.957      9.004
REMARK  9 active torsions:
REMARK  status: ('A' for Active; 'I' for Inactive)
REMARK    1  A    between atoms: C_4  and  C_5 
REMARK    2  A    between atoms: C_5  and  N_6 
REMARK    3  A    between atoms: C_11  and  C_12 
REMARK       I    between atoms: C_12  and  N_13 
REMARK    4  A    between atoms: C_15  and  N_16 
REMARK       I    between atoms: N_16  and  C_17 
REMARK    5  A    between atoms: C_17  and  C_18 
REMARK    6  A    between atoms: C_18  and  C_19 
REMARK    7  A    between atoms: C_19  and  C_20 
REMARK    8  A    between atoms: C_20  and  S_21 
REMARK    9  A    between atoms: S_21  and  C_22 
ROOT
HETATM    1  N   UNL     1      38.481 -12.053  -0.934  1.00  0.00    -0.063 N 
HETATM    2  H   UNL     1      37.659 -11.653  -1.396  1.00  0.00     0.280 HD
HETATM    3  C   UNL     1      37.971 -13.271  -0.166  1.00  0.00     0.282 C 
HETATM    4  C   UNL     1      38.938 -13.684   0.888  1.00  0.00     0.018 C 
HETATM    5  C   UNL     1      39.995 -12.923   1.348  1.00  0.00    -0.023 C 
HETATM    6  C   UNL     1      40.822 -13.668   2.270  1.00  0.00     0.073 C 
HETATM    7  C   UNL     1      40.173 -14.832   2.662  1.00  0.00     0.093 C 
HETATM    8  S   UNL     1      38.804 -15.160   1.704  1.00  0.00    -0.074 SA
HETATM    9  C   UNL     1      40.228 -11.526   0.841  1.00  0.00     0.068 C 
HETATM   10  C   UNL     1      39.021 -11.001   0.034  1.00  0.00     0.240 C 
ENDROOT
BRANCH   7  11
HETATM   11  N   UNL     1      40.561 -15.708   3.666  1.00  0.00    -0.320 N 
HETATM   12  C   UNL     1      41.213 -16.919   3.476  1.00  0.00     0.222 C 
HETATM   13  O   UNL     1      41.525 -17.419   2.401  1.00  0.00    -0.273 OA
HETATM   14  H   UNL     1      40.086 -15.592   4.556  1.00  0.00     0.169 HD
BRANCH  12  15
HETATM   15  C   UNL     1      41.526 -17.601   4.801  1.00  0.00     0.104 C 
BRANCH  15  16
HETATM   16  C   UNL     1      42.258 -16.702   5.796  1.00  0.00     0.020 C 
BRANCH  16  17
HETATM   17  C   UNL     1      42.238 -17.107   7.275  1.00  0.00     0.080 C 
BRANCH  17  18
HETATM   18  S   UNL     1      43.768 -17.831   7.965  1.00  0.00    -0.130 SA
BRANCH  18  19
HETATM   19  C   UNL     1      44.099 -19.223   6.898  1.00  0.00     0.000 A 
HETATM   20  C   UNL     1      43.679 -20.530   7.168  1.00  0.00     0.021 A 
HETATM   21  C   UNL     1      43.992 -21.568   6.285  1.00  0.00     0.043 A 
HETATM   22  C   UNL     1      44.703 -21.293   5.123  1.00  0.00     0.116 A 
HETATM   23  F   UNL     1      45.003 -22.289   4.280  1.00  0.00    -0.206 F 
HETATM   24  C   UNL     1      45.100 -19.999   4.822  1.00  0.00     0.043 A 
HETATM   25  C   UNL     1      44.796 -18.964   5.708  1.00  0.00     0.021 A 
ENDBRANCH  18  19
ENDBRANCH  17  18
ENDBRANCH  16  17
ENDBRANCH  15  16
ENDBRANCH  12  15
ENDBRANCH   7  11
BRANCH   6  26
HETATM   26  C   UNL     1      42.112 -13.213   2.780  1.00  0.00     0.252 C 
HETATM   27  N   UNL     1      42.071 -12.157   3.649  1.00  0.00    -0.366 N 
HETATM   28  H   UNL     1      41.231 -11.988   4.189  1.00  0.00     0.159 HD
HETATM   29  H   UNL     1      42.946 -11.973   4.129  1.00  0.00     0.159 HD
HETATM   30  O   UNL     1      43.165 -13.785   2.528  1.00  0.00    -0.268 OA
ENDBRANCH   6  26
BRANCH   1  31
HETATM   31  C   UNL     1      39.473 -12.366  -2.032  1.00  0.00     0.273 C 
BRANCH  31  32
HETATM   32  C   UNL     1      39.332 -13.713  -2.687  1.00  0.00    -0.033 A 
HETATM   33  C   UNL     1      38.206 -14.055  -3.450  1.00  0.00     0.009 A 
HETATM   34  C   UNL     1      38.128 -15.305  -4.066  1.00  0.00     0.001 A 
HETATM   35  C   UNL     1      39.174 -16.216  -3.945  1.00  0.00     0.000 A 
HETATM   36  C   UNL     1      40.306 -15.882  -3.207  1.00  0.00     0.001 A 
HETATM   37  C   UNL     1      40.384 -14.639  -2.580  1.00  0.00     0.009 A 
ENDBRANCH  31  32
ENDBRANCH   1  31
TORSDOF 9
ENDMDL
MODEL 8
REMARK VINA RESULT:      -7.8      6.156      9.565
REMARK  9 active torsions:
REMARK  status: ('A' for Active; 'I' for Inactive)
REMARK    1  A    between atoms: C_4  and  C_5 
REMARK    2  A    between atoms: C_5  and  N_6 
REMARK    3  A    between atoms: C_11  and  C_12 
REMARK       I    between atoms: C_12  and  N_13 
REMARK    4  A    between atoms: C_15  and  N_16 
REMARK       I    between atoms: N_16  and  C_17 
REMARK    5  A    between atoms: C_17  and  C_18 
REMARK    6  A    between atoms: C_18  and  C_19 
REMARK    7  A    between atoms: C_19  and  C_20 
REMARK    8  A    between atoms: C_20  and  S_21 
REMARK    9  A    between atoms: S_21  and  C_22 
ROOT
HETATM    1  N   UNL     1      43.128 -10.503   9.608  1.00  0.00    -0.063 N 
HETATM    2  H   UNL     1      43.650  -9.768  10.095  1.00  0.00     0.280 HD
HETATM    3  C   UNL     1      44.181 -11.367   8.917  1.00  0.00     0.282 C 
HETATM    4  C   UNL     1      43.574 -12.186   7.831  1.00  0.00     0.018 C 
HETATM    5  C   UNL     1      42.319 -11.992   7.288  1.00  0.00    -0.023 C 
HETATM    6  C   UNL     1      41.978 -13.042   6.355  1.00  0.00     0.073 C 
HETATM    7  C   UNL     1      43.106 -13.790   6.044  1.00  0.00     0.093 C 
HETATM    8  S   UNL     1      44.411 -13.452   7.084  1.00  0.00    -0.074 SA
HETATM    9  C   UNL     1      41.449 -10.845   7.726  1.00  0.00     0.068 C 
HETATM   10  C   UNL     1      42.235  -9.821   8.572  1.00  0.00     0.240 C 
ENDROOT
BRANCH   7  11
HETATM   11  N   UNL     1      43.220 -14.760   5.058  1.00  0.00    -0.320 N 
HETATM   12  C   UNL     1      43.431 -14.518   3.706  1.00  0.00     0.222 C 
HETATM   13  O   UNL     1      43.523 -13.421   3.167  1.00  0.00    -0.273 OA
HETATM   14  H   UNL     1      42.842 -15.672   5.294  1.00  0.00     0.169 HD
BRANCH  12  15
HETATM   15  C   UNL     1      43.549 -15.816   2.917  1.00  0.00     0.104 C 
BRANCH  15  16
HETATM   16  C   UNL     1      42.202 -16.405   2.502  1.00  0.00     0.020 C 
BRANCH  16  17
HETATM   17  C   UNL     1      42.133 -17.914   2.238  1.00  0.00     0.080 C 
BRANCH  17  18
HETATM   18  S   UNL     1      43.571 -18.687   1.417  1.00  0.00    -0.130 SA
BRANCH  18  19
HETATM   19  C   UNL     1      44.052 -19.991   2.536  1.00  0.00     0.000 A 
HETATM   20  C   UNL     1      44.083 -21.346   2.188  1.00  0.00     0.021 A 
HETATM   21  C   UNL     1      44.459 -22.308   3.131  1.00  0.00     0.043 A 
HETATM   22  C   UNL     1      44.826 -21.911   4.411  1.00  0.00     0.116 A 
HETATM   23  F   UNL     1      45.184 -22.834   5.313  1.00  0.00    -0.206 F 
HETATM   24  C   UNL     1      44.833 -20.570   4.766  1.00  0.00     0.043 A 
HETATM   25  C   UNL     1      44.447 -19.610   3.828  1.00  0.00     0.021 A 
ENDBRANCH  18  19
ENDBRANCH  17  18
ENDBRANCH  16  17
ENDBRANCH  15  16
ENDBRANCH  12  15
ENDBRANCH   7  11
BRANCH   6  26
HETATM   26  C   UNL     1      40.657 -13.226   5.761  1.00  0.00     0.252 C 
HETATM   27  N   UNL     1      39.663 -13.604   6.621  1.00  0.00    -0.366 N 
HETATM   28  H   UNL     1      39.742 -13.377   7.605  1.00  0.00     0.159 HD
HETATM   29  H   UNL     1      38.728 -13.552   6.232  1.00  0.00     0.159 HD
HETATM   30  O   UNL     1      40.418 -12.976   4.587  1.00  0.00    -0.268 OA
ENDBRANCH   6  26
BRANCH   1  31
HETATM   31  C   UNL     1      42.316 -11.216  10.665  1.00  0.00     0.273 C 
BRANCH  31  32
HETATM   32  C   UNL     1      42.347 -10.612  12.042  1.00  0.00    -0.033 A 
HETATM   33  C   UNL     1      41.296 -10.786  12.955  1.00  0.00     0.009 A 
HETATM   34  C   UNL     1      41.377 -10.234  14.234  1.00  0.00     0.001 A 
HETATM   35  C   UNL     1      42.509  -9.522  14.623  1.00  0.00     0.000 A 
HETATM   36  C   UNL     1      43.567  -9.358  13.734  1.00  0.00     0.001 A 
HETATM   37  C   UNL     1      43.487  -9.899  12.451  1.00  0.00     0.009 A 
ENDBRANCH  31  32
ENDBRANCH   1  31
TORSDOF 9
ENDMDL
MODEL 9
REMARK VINA RESULT:      -7.6      6.985     10.709
REMARK  9 active torsions:
REMARK  status: ('A' for Active; 'I' for Inactive)
REMARK    1  A    between atoms: C_4  and  C_5 
REMARK    2  A    between atoms: C_5  and  N_6 
REMARK    3  A    between atoms: C_11  and  C_12 
REMARK       I    between atoms: C_12  and  N_13 
REMARK    4  A    between atoms: C_15  and  N_16 
REMARK       I    between atoms: N_16  and  C_17 
REMARK    5  A    between atoms: C_17  and  C_18 
REMARK    6  A    between atoms: C_18  and  C_19 
REMARK    7  A    between atoms: C_19  and  C_20 
REMARK    8  A    between atoms: C_20  and  S_21 
REMARK    9  A    between atoms: S_21  and  C_22 
ROOT
HETATM    1  N   UNL     1      42.726 -16.313   1.540  1.00  0.00    -0.063 N 
HETATM    2  H   UNL     1      42.950 -16.216   0.545  1.00  0.00     0.280 HD
HETATM    3  C   UNL     1      43.080 -14.969   2.175  1.00  0.00     0.282 C 
HETATM    4  C   UNL     1      43.230 -15.096   3.651  1.00  0.00     0.018 C 
HETATM    5  C   UNL     1      43.353 -16.284   4.344  1.00  0.00    -0.023 C 
HETATM    6  C   UNL     1      43.339 -16.067   5.773  1.00  0.00     0.073 C 
HETATM    7  C   UNL     1      43.498 -14.716   6.053  1.00  0.00     0.093 C 
HETATM    8  S   UNL     1      43.325 -13.745   4.665  1.00  0.00    -0.074 SA
HETATM    9  C   UNL     1      43.412 -17.604   3.624  1.00  0.00     0.068 C 
HETATM   10  C   UNL     1      43.616 -17.419   2.105  1.00  0.00     0.240 C 
ENDROOT
BRANCH   7  11
HETATM   11  N   UNL     1      43.716 -14.140   7.297  1.00  0.00    -0.320 N 
HETATM   12  C   UNL     1      44.875 -13.487   7.695  1.00  0.00     0.222 C 
HETATM   13  O   UNL     1      45.894 -13.339   7.029  1.00  0.00    -0.273 OA
HETATM   14  H   UNL     1      43.109 -14.467   8.043  1.00  0.00     0.169 HD
BRANCH  12  15
HETATM   15  C   UNL     1      44.752 -12.940   9.111  1.00  0.00     0.104 C 
BRANCH  15  16
HETATM   16  C   UNL     1      45.243 -11.501   9.258  1.00  0.00     0.020 C 
BRANCH  16  17
HETATM   17  C   UNL     1      44.660 -10.659  10.398  1.00  0.00     0.080 C 
BRANCH  17  18
HETATM   18  S   UNL     1      43.646 -11.528  11.646  1.00  0.00    -0.130 SA
BRANCH  18  19
HETATM   19  C   UNL     1      43.029 -10.215  12.684  1.00  0.00     0.000 A 
HETATM   20  C   UNL     1      43.017  -8.866  12.312  1.00  0.00     0.021 A 
HETATM   21  C   UNL     1      42.527  -7.896  13.192  1.00  0.00     0.043 A 
HETATM   22  C   UNL     1      42.028  -8.279  14.431  1.00  0.00     0.116 A 
HETATM   23  F   UNL     1      41.561  -7.348  15.273  1.00  0.00    -0.206 F 
HETATM   24  C   UNL     1      42.001  -9.614  14.805  1.00  0.00     0.043 A 
HETATM   25  C   UNL     1      42.499 -10.582  13.931  1.00  0.00     0.021 A 
ENDBRANCH  18  19
ENDBRANCH  17  18
ENDBRANCH  16  17
ENDBRANCH  15  16
ENDBRANCH  12  15
ENDBRANCH   7  11
BRANCH   6  26
HETATM   26  C   UNL     1      43.261 -17.129   6.772  1.00  0.00     0.252 C 
HETATM   27  N   UNL     1      44.449 -17.717   7.112  1.00  0.00    -0.366 N 
HETATM   28  H   UNL     1      45.312 -17.199   6.998  1.00  0.00     0.159 HD
HETATM   29  H   UNL     1      44.402 -18.318   7.928  1.00  0.00     0.159 HD
HETATM   30  O   UNL     1      42.221 -17.426   7.345  1.00  0.00    -0.268 OA
ENDBRANCH   6  26
BRANCH   1  31
HETATM   31  C   UNL     1      41.261 -16.681   1.610  1.00  0.00     0.273 C 
BRANCH  31  32
HETATM   32  C   UNL     1      40.294 -15.651   1.094  1.00  0.00    -0.033 A 
HETATM   33  C   UNL     1      40.446 -15.055  -0.167  1.00  0.00     0.009 A 
HETATM   34  C   UNL     1      39.509 -14.125  -0.621  1.00  0.00     0.001 A 
HETATM   35  C   UNL     1      38.407 -13.795   0.164  1.00  0.00     0.000 A 
HETATM   36  C   UNL     1      38.234 -14.394   1.408  1.00  0.00     0.001 A 
HETATM   37  C   UNL     1      39.172 -15.316   1.871  1.00  0.00     0.009 A 
ENDBRANCH  31  32
ENDBRANCH   1  31
TORSDOF 9
ENDMDL
MODEL 10
REMARK VINA RESULT:      -7.4      2.021      2.601
REMARK  9 active torsions:
REMARK  status: ('A' for Active; 'I' for Inactive)
REMARK    1  A    between atoms: C_4  and  C_5 
REMARK    2  A    between atoms: C_5  and  N_6 
REMARK    3  A    between atoms: C_11  and  C_12 
REMARK       I    between atoms: C_12  and  N_13 
REMARK    4  A    between atoms: C_15  and  N_16 
REMARK       I    between atoms: N_16  and  C_17 
REMARK    5  A    between atoms: C_17  and  C_18 
REMARK    6  A    between atoms: C_18  and  C_19 
REMARK    7  A    between atoms: C_19  and  C_20 
REMARK    8  A    between atoms: C_20  and  S_21 
REMARK    9  A    between atoms: S_21  and  C_22 
ROOT
HETATM    1  N   UNL     1      43.545 -16.956   3.022  1.00  0.00    -0.063 N 
HETATM    2  H   UNL     1      44.476 -17.307   2.777  1.00  0.00     0.280 HD
HETATM    3  C   UNL     1      43.100 -16.103   1.836  1.00  0.00     0.282 C 
HETATM    4  C   UNL     1      41.993 -15.185   2.221  1.00  0.00     0.018 C 
HETATM    5  C   UNL     1      41.611 -14.888   3.515  1.00  0.00    -0.023 C 
HETATM    6  C   UNL     1      40.417 -14.076   3.542  1.00  0.00     0.073 C 
HETATM    7  C   UNL     1      40.149 -13.577   2.273  1.00  0.00     0.093 C 
HETATM    8  S   UNL     1      41.090 -14.332   1.072  1.00  0.00    -0.074 SA
HETATM    9  C   UNL     1      42.359 -15.447   4.695  1.00  0.00     0.068 C 
HETATM   10  C   UNL     1      43.698 -16.090   4.273  1.00  0.00     0.240 C 
ENDROOT
BRANCH   7  11
HETATM   11  N   UNL     1      39.202 -12.621   1.934  1.00  0.00    -0.320 N 
HETATM   12  C   UNL     1      37.972 -12.874   1.340  1.00  0.00     0.222 C 
HETATM   13  O   UNL     1      37.540 -13.968   0.998  1.00  0.00    -0.273 OA
HETATM   14  H   UNL     1      39.550 -11.670   1.852  1.00  0.00     0.169 HD
BRANCH  12  15
HETATM   15  C   UNL     1      37.169 -11.594   1.149  1.00  0.00     0.104 C 
BRANCH  15  16
HETATM   16  C   UNL     1      37.837 -10.583   0.218  1.00  0.00     0.020 C 
BRANCH  16  17
HETATM   17  C   UNL     1      38.079 -11.003  -1.237  1.00  0.00     0.080 C 
BRANCH  17  18
HETATM   18  S   UNL     1      39.721 -11.694  -1.645  1.00  0.00    -0.130 SA
BRANCH  18  19
HETATM   19  C   UNL     1      39.343 -13.222  -2.487  1.00  0.00     0.000 A 
HETATM   20  C   UNL     1      38.043 -13.678  -2.730  1.00  0.00     0.021 A 
HETATM   21  C   UNL     1      37.834 -14.895  -3.386  1.00  0.00     0.043 A 
HETATM   22  C   UNL     1      38.923 -15.641  -3.819  1.00  0.00     0.116 A 
HETATM   23  F   UNL     1      38.720 -16.807  -4.444  1.00  0.00    -0.206 F 
HETATM   24  C   UNL     1      40.219 -15.190  -3.616  1.00  0.00     0.043 A 
HETATM   25  C   UNL     1      40.429 -13.980  -2.952  1.00  0.00     0.021 A 
ENDBRANCH  18  19
ENDBRANCH  17  18
ENDBRANCH  16  17
ENDBRANCH  15  16
ENDBRANCH  12  15
ENDBRANCH   7  11
BRANCH   6  26
HETATM   26  C   UNL     1      39.659 -13.755   4.748  1.00  0.00     0.252 C 
HETATM   27  N   UNL     1      39.509 -14.775   5.647  1.00  0.00    -0.366 N 
HETATM   28  H   UNL     1      40.189 -15.526   5.668  1.00  0.00     0.159 HD
HETATM   29  H   UNL     1      39.142 -14.490   6.549  1.00  0.00     0.159 HD
HETATM   30  O   UNL     1      39.253 -12.627   4.997  1.00  0.00    -0.268 OA
ENDBRANCH   6  26
BRANCH   1  31
HETATM   31  C   UNL     1      42.689 -18.174   3.285  1.00  0.00     0.273 C 
BRANCH  31  32
HETATM   32  C   UNL     1      43.354 -19.507   3.078  1.00  0.00    -0.033 A 
HETATM   33  C   UNL     1      43.147 -20.269   1.918  1.00  0.00     0.009 A 
HETATM   34  C   UNL     1      43.807 -21.488   1.751  1.00  0.00     0.001 A 
HETATM   35  C   UNL     1      44.692 -21.948   2.723  1.00  0.00     0.000 A 
HETATM   36  C   UNL     1      44.921 -21.192   3.869  1.00  0.00     0.001 A 
HETATM   37  C   UNL     1      44.256 -19.980   4.046  1.00  0.00     0.009 A 
ENDBRANCH  31  32
ENDBRANCH   1  31
TORSDOF 9
ENDMDL
