MODEL 1
REMARK VINA RESULT:      -9.0      0.000      0.000
REMARK  3 active torsions:
REMARK  status: ('A' for Active; 'I' for Inactive)
REMARK    1  A    between atoms: C_2  and  C_3 
REMARK    2  A    between atoms: C_10  and  O_11 
REMARK    3  A    between atoms: C_10  and  C_12 
ROOT
HETATM    1  C   UNL     1      44.415 -21.509   4.737  1.00  0.00    -0.058 A 
HETATM    2  C   UNL     1      44.323 -20.118   4.579  1.00  0.00     0.020 A 
HETATM    3  C   UNL     1      43.985 -19.342   5.679  1.00  0.00     0.018 A 
HETATM    4  C   UNL     1      43.764 -19.939   6.919  1.00  0.00     0.045 A 
HETATM    5  N   UNL     1      43.461 -18.980   7.873  1.00  0.00    -0.323 N 
HETATM    6  C   UNL     1      43.449 -17.697   7.322  1.00  0.00     0.266 A 
HETATM    7  O   UNL     1      43.224 -16.681   7.963  1.00  0.00    -0.269 OA
HETATM    8  C   UNL     1      43.827 -17.839   5.803  1.00  0.00     0.199 A 
HETATM    9  C   UNL     1      43.848 -21.302   7.111  1.00  0.00     0.031 A 
HETATM   10  C   UNL     1      44.171 -22.089   6.003  1.00  0.00     0.009 A 
HETATM   11  H   UNL     1      43.256 -19.155   8.845  1.00  0.00     0.169 HD
ENDROOT
BRANCH   8  12
HETATM   12  O   UNL     1      45.075 -17.208   5.540  1.00  0.00    -0.371 OA
HETATM   13  H   UNL     1      45.340 -16.767   6.364  1.00  0.00     0.212 HD
ENDBRANCH   8  12
BRANCH   8  14
HETATM   14  C   UNL     1      42.717 -17.450   4.847  1.00  0.00     0.025 A 
HETATM   15  C   UNL     1      42.848 -17.314   3.411  1.00  0.00     0.003 A 
HETATM   16  C   UNL     1      41.596 -16.987   2.895  1.00  0.00     0.043 A 
HETATM   17  C   UNL     1      43.916 -17.454   2.496  1.00  0.00     0.014 A 
HETATM   18  C   UNL     1      41.353 -16.797   1.528  1.00  0.00     0.030 A 
HETATM   19  N   UNL     1      40.733 -16.902   3.957  1.00  0.00    -0.359 N 
HETATM   20  C   UNL     1      42.430 -16.945   0.650  1.00  0.00     0.002 A 
HETATM   21  C   UNL     1      43.696 -17.268   1.125  1.00  0.00     0.001 A 
HETATM   22  H   UNL     1      39.754 -16.671   3.871  1.00  0.00     0.166 HD
HETATM   23  C   UNL     1      41.374 -17.193   5.134  1.00  0.00     0.016 A 
HETATM   24  C   UNL     1      40.612 -17.196   6.413  1.00  0.00     0.069 C 
ENDBRANCH   8  14
BRANCH   1  25
HETATM   25  C   UNL     1      44.737 -22.382   3.549  1.00  0.00     0.034 C 
HETATM   26  C   UNL     1      44.173 -21.808   2.258  1.00  0.00     0.010 C 
ENDBRANCH   1  25
TORSDOF 3
ENDMDL
MODEL 2
REMARK VINA RESULT:      -8.6      2.720      4.727
REMARK  3 active torsions:
REMARK  status: ('A' for Active; 'I' for Inactive)
REMARK    1  A    between atoms: C_2  and  C_3 
REMARK    2  A    between atoms: C_10  and  O_11 
REMARK    3  A    between atoms: C_10  and  C_12 
ROOT
HETATM    1  C   UNL     1      44.231 -19.774   3.734  1.00  0.00    -0.058 A 
HETATM    2  C   UNL     1      43.456 -18.713   4.227  1.00  0.00     0.020 A 
HETATM    3  C   UNL     1      42.512 -18.131   3.391  1.00  0.00     0.018 A 
HETATM    4  C   UNL     1      42.330 -18.612   2.095  1.00  0.00     0.045 A 
HETATM    5  N   UNL     1      41.330 -17.901   1.449  1.00  0.00    -0.323 N 
HETATM    6  C   UNL     1      40.802 -16.902   2.270  1.00  0.00     0.266 A 
HETATM    7  O   UNL     1      39.898 -16.150   1.935  1.00  0.00    -0.269 OA
HETATM    8  C   UNL     1      41.543 -16.996   3.654  1.00  0.00     0.199 A 
HETATM    9  C   UNL     1      43.072 -19.653   1.579  1.00  0.00     0.031 A 
HETATM   10  C   UNL     1      44.035 -20.231   2.411  1.00  0.00     0.009 A 
HETATM   11  H   UNL     1      41.011 -18.051   0.504  1.00  0.00     0.169 HD
ENDROOT
BRANCH   8  12
HETATM   12  O   UNL     1      40.632 -17.378   4.680  1.00  0.00    -0.371 OA
HETATM   13  H   UNL     1      39.833 -17.700   4.232  1.00  0.00     0.212 HD
ENDBRANCH   8  12
BRANCH   8  14
HETATM   14  C   UNL     1      42.388 -15.785   3.990  1.00  0.00     0.025 A 
HETATM   15  C   UNL     1      43.019 -15.523   5.267  1.00  0.00     0.003 A 
HETATM   16  C   UNL     1      43.739 -14.335   5.155  1.00  0.00     0.043 A 
HETATM   17  C   UNL     1      43.057 -16.196   6.510  1.00  0.00     0.014 A 
HETATM   18  C   UNL     1      44.490 -13.789   6.205  1.00  0.00     0.030 A 
HETATM   19  N   UNL     1      43.550 -13.870   3.880  1.00  0.00    -0.359 N 
HETATM   20  C   UNL     1      44.509 -14.480   7.418  1.00  0.00     0.002 A 
HETATM   21  C   UNL     1      43.801 -15.667   7.572  1.00  0.00     0.001 A 
HETATM   22  H   UNL     1      43.954 -13.015   3.526  1.00  0.00     0.166 HD
HETATM   23  C   UNL     1      42.761 -14.727   3.156  1.00  0.00     0.016 A 
HETATM   24  C   UNL     1      42.458 -14.432   1.729  1.00  0.00     0.069 C 
ENDBRANCH   8  14
BRANCH   1  25
HETATM   25  C   UNL     1      45.295 -20.397   4.605  1.00  0.00     0.034 C 
HETATM   26  C   UNL     1      44.966 -21.841   4.950  1.00  0.00     0.010 C 
ENDBRANCH   1  25
TORSDOF 3
ENDMDL
MODEL 3
REMARK VINA RESULT:      -8.4      2.571      3.816
REMARK  3 active torsions:
REMARK  status: ('A' for Active; 'I' for Inactive)
REMARK    1  A    between atoms: C_2  and  C_3 
REMARK    2  A    between atoms: C_10  and  O_11 
REMARK    3  A    between atoms: C_10  and  C_12 
ROOT
HETATM    1  C   UNL     1      43.785 -17.928   2.757  1.00  0.00    -0.058 A 
HETATM    2  C   UNL     1      43.542 -16.817   3.579  1.00  0.00     0.020 A 
HETATM    3  C   UNL     1      43.577 -16.985   4.957  1.00  0.00     0.018 A 
HETATM    4  C   UNL     1      43.870 -18.234   5.505  1.00  0.00     0.045 A 
HETATM    5  N   UNL     1      43.869 -18.168   6.890  1.00  0.00    -0.323 N 
HETATM    6  C   UNL     1      43.564 -16.882   7.340  1.00  0.00     0.266 A 
HETATM    7  O   UNL     1      43.517 -16.565   8.520  1.00  0.00    -0.269 OA
HETATM    8  C   UNL     1      43.367 -15.978   6.069  1.00  0.00     0.199 A 
HETATM    9  C   UNL     1      44.115 -19.345   4.728  1.00  0.00     0.031 A 
HETATM   10  C   UNL     1      44.065 -19.185   3.340  1.00  0.00     0.009 A 
HETATM   11  H   UNL     1      44.049 -18.935   7.520  1.00  0.00     0.169 HD
ENDROOT
BRANCH   8  12
HETATM   12  O   UNL     1      44.383 -14.982   6.005  1.00  0.00    -0.371 OA
HETATM   13  H   UNL     1      44.906 -15.174   5.209  1.00  0.00     0.212 HD
ENDBRANCH   8  12
BRANCH   8  14
HETATM   14  C   UNL     1      41.959 -15.443   5.898  1.00  0.00     0.025 A 
HETATM   15  C   UNL     1      41.609 -14.115   5.438  1.00  0.00     0.003 A 
HETATM   16  C   UNL     1      40.220 -14.035   5.378  1.00  0.00     0.043 A 
HETATM   17  C   UNL     1      42.349 -12.974   5.052  1.00  0.00     0.014 A 
HETATM   18  C   UNL     1      39.535 -12.888   4.954  1.00  0.00     0.030 A 
HETATM   19  N   UNL     1      39.728 -15.243   5.799  1.00  0.00    -0.359 N 
HETATM   20  C   UNL     1      40.295 -11.779   4.576  1.00  0.00     0.002 A 
HETATM   21  C   UNL     1      41.683 -11.818   4.625  1.00  0.00     0.001 A 
HETATM   22  H   UNL     1      38.744 -15.460   5.861  1.00  0.00     0.166 HD
HETATM   23  C   UNL     1      40.747 -16.110   6.098  1.00  0.00     0.016 A 
HETATM   24  C   UNL     1      40.436 -17.497   6.542  1.00  0.00     0.069 C 
ENDBRANCH   8  14
BRANCH   1  25
HETATM   25  C   UNL     1      43.710 -17.785   1.256  1.00  0.00     0.034 C 
HETATM   26  C   UNL     1      42.587 -16.849   0.835  1.00  0.00     0.010 C 
ENDBRANCH   1  25
TORSDOF 3
ENDMDL
MODEL 4
REMARK VINA RESULT:      -8.4      2.378      3.175
REMARK  3 active torsions:
REMARK  status: ('A' for Active; 'I' for Inactive)
REMARK    1  A    between atoms: C_2  and  C_3 
REMARK    2  A    between atoms: C_10  and  O_11 
REMARK    3  A    between atoms: C_10  and  C_12 
ROOT
HETATM    1  C   UNL     1      43.663 -18.919   3.161  1.00  0.00    -0.058 A 
HETATM    2  C   UNL     1      43.338 -17.570   2.951  1.00  0.00     0.020 A 
HETATM    3  C   UNL     1      43.434 -16.686   4.018  1.00  0.00     0.018 A 
HETATM    4  C   UNL     1      43.867 -17.135   5.265  1.00  0.00     0.045 A 
HETATM    5  N   UNL     1      43.905 -16.087   6.172  1.00  0.00    -0.323 N 
HETATM    6  C   UNL     1      43.489 -14.889   5.586  1.00  0.00     0.266 A 
HETATM    7  O   UNL     1      43.450 -13.819   6.174  1.00  0.00    -0.269 OA
HETATM    8  C   UNL     1      43.162 -15.196   4.079  1.00  0.00     0.199 A 
HETATM    9  C   UNL     1      44.196 -18.452   5.506  1.00  0.00     0.031 A 
HETATM   10  C   UNL     1      44.084 -19.349   4.440  1.00  0.00     0.009 A 
HETATM   11  H   UNL     1      44.180 -16.150   7.140  1.00  0.00     0.169 HD
ENDROOT
BRANCH   8  12
HETATM   12  O   UNL     1      44.073 -14.513   3.224  1.00  0.00    -0.371 OA
HETATM   13  H   UNL     1      44.964 -14.711   3.556  1.00  0.00     0.212 HD
ENDBRANCH   8  12
BRANCH   8  14
HETATM   14  C   UNL     1      41.704 -15.016   3.709  1.00  0.00     0.025 A 
HETATM   15  C   UNL     1      41.200 -14.692   2.390  1.00  0.00     0.003 A 
HETATM   16  C   UNL     1      39.809 -14.658   2.459  1.00  0.00     0.043 A 
HETATM   17  C   UNL     1      41.800 -14.438   1.136  1.00  0.00     0.014 A 
HETATM   18  C   UNL     1      38.992 -14.389   1.353  1.00  0.00     0.030 A 
HETATM   19  N   UNL     1      39.464 -14.926   3.758  1.00  0.00    -0.359 N 
HETATM   20  C   UNL     1      39.616 -14.145   0.127  1.00  0.00     0.002 A 
HETATM   21  C   UNL     1      41.001 -14.167   0.018  1.00  0.00     0.001 A 
HETATM   22  H   UNL     1      38.512 -14.957   4.093  1.00  0.00     0.166 HD
HETATM   23  C   UNL     1      40.578 -15.162   4.523  1.00  0.00     0.016 A 
HETATM   24  C   UNL     1      40.429 -15.511   5.963  1.00  0.00     0.069 C 
ENDBRANCH   8  14
BRANCH   1  25
HETATM   25  C   UNL     1      43.526 -19.911   2.031  1.00  0.00     0.034 C 
HETATM   26  C   UNL     1      44.279 -21.200   2.319  1.00  0.00     0.010 C 
ENDBRANCH   1  25
TORSDOF 3
ENDMDL
MODEL 5
REMARK VINA RESULT:      -8.2      2.715      5.807
REMARK  3 active torsions:
REMARK  status: ('A' for Active; 'I' for Inactive)
REMARK    1  A    between atoms: C_2  and  C_3 
REMARK    2  A    between atoms: C_10  and  O_11 
REMARK    3  A    between atoms: C_10  and  C_12 
ROOT
HETATM    1  C   UNL     1      39.876 -14.556   2.218  1.00  0.00    -0.058 A 
HETATM    2  C   UNL     1      40.430 -15.064   3.404  1.00  0.00     0.020 A 
HETATM    3  C   UNL     1      41.654 -14.569   3.834  1.00  0.00     0.018 A 
HETATM    4  C   UNL     1      42.303 -13.571   3.107  1.00  0.00     0.045 A 
HETATM    5  N   UNL     1      43.493 -13.217   3.725  1.00  0.00    -0.323 N 
HETATM    6  C   UNL     1      43.708 -13.964   4.885  1.00  0.00     0.266 A 
HETATM    7  O   UNL     1      44.679 -13.826   5.616  1.00  0.00    -0.269 OA
HETATM    8  C   UNL     1      42.471 -14.918   5.062  1.00  0.00     0.199 A 
HETATM    9  C   UNL     1      41.788 -13.049   1.941  1.00  0.00     0.031 A 
HETATM   10  C   UNL     1      40.564 -13.556   1.494  1.00  0.00     0.009 A 
HETATM   11  H   UNL     1      44.147 -12.523   3.398  1.00  0.00     0.169 HD
ENDROOT
BRANCH   8  12
HETATM   12  O   UNL     1      41.739 -14.570   6.233  1.00  0.00    -0.371 OA
HETATM   13  H   UNL     1      42.394 -14.300   6.897  1.00  0.00     0.212 HD
ENDBRANCH   8  12
BRANCH   8  14
HETATM   14  C   UNL     1      42.801 -16.392   4.947  1.00  0.00     0.025 A 
HETATM   15  C   UNL     1      43.251 -17.067   3.747  1.00  0.00     0.003 A 
HETATM   16  C   UNL     1      43.487 -18.402   4.069  1.00  0.00     0.043 A 
HETATM   17  C   UNL     1      43.495 -16.661   2.415  1.00  0.00     0.014 A 
HETATM   18  C   UNL     1      43.951 -19.345   3.142  1.00  0.00     0.030 A 
HETATM   19  N   UNL     1      43.180 -18.556   5.395  1.00  0.00    -0.359 N 
HETATM   20  C   UNL     1      44.185 -18.911   1.835  1.00  0.00     0.002 A 
HETATM   21  C   UNL     1      43.959 -17.588   1.473  1.00  0.00     0.001 A 
HETATM   22  H   UNL     1      43.253 -19.432   5.893  1.00  0.00     0.166 HD
HETATM   23  C   UNL     1      42.785 -17.366   5.950  1.00  0.00     0.016 A 
HETATM   24  C   UNL     1      42.439 -17.298   7.396  1.00  0.00     0.069 C 
ENDBRANCH   8  14
BRANCH   1  25
HETATM   25  C   UNL     1      38.569 -15.106   1.703  1.00  0.00     0.034 C 
HETATM   26  C   UNL     1      37.793 -14.066   0.910  1.00  0.00     0.010 C 
ENDBRANCH   1  25
TORSDOF 3
ENDMDL
MODEL 6
REMARK VINA RESULT:      -7.8      3.741      6.201
REMARK  3 active torsions:
REMARK  status: ('A' for Active; 'I' for Inactive)
REMARK    1  A    between atoms: C_2  and  C_3 
REMARK    2  A    between atoms: C_10  and  O_11 
REMARK    3  A    between atoms: C_10  and  C_12 
ROOT
HETATM    1  C   UNL     1      43.312 -17.629   3.360  1.00  0.00    -0.058 A 
HETATM    2  C   UNL     1      42.217 -16.755   3.276  1.00  0.00     0.020 A 
HETATM    3  C   UNL     1      41.815 -16.308   2.025  1.00  0.00     0.018 A 
HETATM    4  C   UNL     1      42.478 -16.740   0.878  1.00  0.00     0.045 A 
HETATM    5  N   UNL     1      41.901 -16.187  -0.255  1.00  0.00    -0.323 N 
HETATM    6  C   UNL     1      40.834 -15.347   0.074  1.00  0.00     0.266 A 
HETATM    7  O   UNL     1      40.153 -14.754  -0.750  1.00  0.00    -0.269 OA
HETATM    8  C   UNL     1      40.678 -15.383   1.638  1.00  0.00     0.199 A 
HETATM    9  C   UNL     1      43.555 -17.599   0.923  1.00  0.00     0.031 A 
HETATM   10  C   UNL     1      43.975 -18.039   2.182  1.00  0.00     0.009 A 
HETATM   11  H   UNL     1      42.197 -16.339  -1.207  1.00  0.00     0.169 HD
ENDROOT
BRANCH   8  12
HETATM   12  O   UNL     1      39.437 -15.981   2.000  1.00  0.00    -0.371 OA
HETATM   13  H   UNL     1      39.615 -16.535   2.777  1.00  0.00     0.212 HD
ENDBRANCH   8  12
BRANCH   8  14
HETATM   14  C   UNL     1      40.955 -14.060   2.321  1.00  0.00     0.025 A 
HETATM   15  C   UNL     1      40.624 -13.731   3.693  1.00  0.00     0.003 A 
HETATM   16  C   UNL     1      41.082 -12.440   3.947  1.00  0.00     0.043 A 
HETATM   17  C   UNL     1      39.988 -14.420   4.751  1.00  0.00     0.014 A 
HETATM   18  C   UNL     1      40.944 -11.807   5.189  1.00  0.00     0.030 A 
HETATM   19  N   UNL     1      41.650 -11.980   2.788  1.00  0.00    -0.359 N 
HETATM   20  C   UNL     1      40.313 -12.515   6.214  1.00  0.00     0.002 A 
HETATM   21  C   UNL     1      39.839 -13.805   6.000  1.00  0.00     0.001 A 
HETATM   22  H   UNL     1      42.059 -11.062   2.686  1.00  0.00     0.166 HD
HETATM   23  C   UNL     1      41.604 -12.936   1.805  1.00  0.00     0.016 A 
HETATM   24  C   UNL     1      42.202 -12.657   0.470  1.00  0.00     0.069 C 
ENDBRANCH   8  14
BRANCH   1  25
HETATM   25  C   UNL     1      43.799 -18.097   4.710  1.00  0.00     0.034 C 
HETATM   26  C   UNL     1      44.476 -19.457   4.625  1.00  0.00     0.010 C 
ENDBRANCH   1  25
TORSDOF 3
ENDMDL
MODEL 7
REMARK VINA RESULT:      -7.7      3.880      5.782
REMARK  3 active torsions:
REMARK  status: ('A' for Active; 'I' for Inactive)
REMARK    1  A    between atoms: C_2  and  C_3 
REMARK    2  A    between atoms: C_10  and  O_11 
REMARK    3  A    between atoms: C_10  and  C_12 
ROOT
HETATM    1  C   UNL     1      43.256 -16.994   2.415  1.00  0.00    -0.058 A 
HETATM    2  C   UNL     1      42.925 -15.793   1.768  1.00  0.00     0.020 A 
HETATM    3  C   UNL     1      42.092 -14.893   2.418  1.00  0.00     0.018 A 
HETATM    4  C   UNL     1      41.616 -15.174   3.698  1.00  0.00     0.045 A 
HETATM    5  N   UNL     1      40.822 -14.135   4.160  1.00  0.00    -0.323 N 
HETATM    6  C   UNL     1      40.715 -13.114   3.213  1.00  0.00     0.266 A 
HETATM    7  O   UNL     1      40.083 -12.083   3.390  1.00  0.00    -0.269 OA
HETATM    8  C   UNL     1      41.584 -13.536   1.973  1.00  0.00     0.199 A 
HETATM    9  C   UNL     1      41.922 -16.342   4.363  1.00  0.00     0.031 A 
HETATM   10  C   UNL     1      42.746 -17.259   3.706  1.00  0.00     0.009 A 
HETATM   11  H   UNL     1      40.357 -14.097   5.054  1.00  0.00     0.169 HD
ENDROOT
BRANCH   8  12
HETATM   12  O   UNL     1      42.686 -12.647   1.813  1.00  0.00    -0.371 OA
HETATM   13  H   UNL     1      42.459 -12.058   1.074  1.00  0.00     0.212 HD
ENDBRANCH   8  12
BRANCH   8  14
HETATM   14  C   UNL     1      40.787 -13.775   0.707  1.00  0.00     0.025 A 
HETATM   15  C   UNL     1      41.245 -13.513  -0.642  1.00  0.00     0.003 A 
HETATM   16  C   UNL     1      40.238 -13.907  -1.521  1.00  0.00     0.043 A 
HETATM   17  C   UNL     1      42.433 -12.989  -1.201  1.00  0.00     0.014 A 
HETATM   18  C   UNL     1      40.352 -13.810  -2.914  1.00  0.00     0.030 A 
HETATM   19  N   UNL     1      39.198 -14.371  -0.758  1.00  0.00    -0.359 N 
HETATM   20  C   UNL     1      41.540 -13.291  -3.434  1.00  0.00     0.002 A 
HETATM   21  C   UNL     1      42.567 -12.883  -2.591  1.00  0.00     0.001 A 
HETATM   22  H   UNL     1      38.329 -14.716  -1.140  1.00  0.00     0.166 HD
HETATM   23  C   UNL     1      39.507 -14.320   0.577  1.00  0.00     0.016 A 
HETATM   24  C   UNL     1      38.529 -14.813   1.585  1.00  0.00     0.069 C 
ENDBRANCH   8  14
BRANCH   1  25
HETATM   25  C   UNL     1      44.124 -18.011   1.714  1.00  0.00     0.034 C 
HETATM   26  C   UNL     1      44.123 -19.348   2.441  1.00  0.00     0.010 C 
ENDBRANCH   1  25
TORSDOF 3
ENDMDL
MODEL 8
REMARK VINA RESULT:      -7.6      2.804      5.798
REMARK  3 active torsions:
REMARK  status: ('A' for Active; 'I' for Inactive)
REMARK    1  A    between atoms: C_2  and  C_3 
REMARK    2  A    between atoms: C_10  and  O_11 
REMARK    3  A    between atoms: C_10  and  C_12 
ROOT
HETATM    1  C   UNL     1      40.788 -16.590   1.897  1.00  0.00    -0.058 A 
HETATM    2  C   UNL     1      40.961 -16.632   3.289  1.00  0.00     0.020 A 
HETATM    3  C   UNL     1      40.568 -15.536   4.044  1.00  0.00     0.018 A 
HETATM    4  C   UNL     1      39.994 -14.426   3.425  1.00  0.00     0.045 A 
HETATM    5  N   UNL     1      39.663 -13.462   4.365  1.00  0.00    -0.323 N 
HETATM    6  C   UNL     1      40.009 -13.868   5.656  1.00  0.00     0.266 A 
HETATM    7  O   UNL     1      39.805 -13.201   6.660  1.00  0.00    -0.269 OA
HETATM    8  C   UNL     1      40.625 -15.311   5.542  1.00  0.00     0.199 A 
HETATM    9  C   UNL     1      39.808 -14.351   2.061  1.00  0.00     0.031 A 
HETATM   10  C   UNL     1      40.217 -15.446   1.295  1.00  0.00     0.009 A 
HETATM   11  H   UNL     1      39.239 -12.567   4.174  1.00  0.00     0.169 HD
ENDROOT
BRANCH   8  12
HETATM   12  O   UNL     1      39.789 -16.261   6.196  1.00  0.00    -0.371 OA
HETATM   13  H   UNL     1      39.566 -16.933   5.532  1.00  0.00     0.212 HD
ENDBRANCH   8  12
BRANCH   8  14
HETATM   14  C   UNL     1      42.087 -15.395   5.929  1.00  0.00     0.025 A 
HETATM   15  C   UNL     1      42.807 -16.610   6.252  1.00  0.00     0.003 A 
HETATM   16  C   UNL     1      44.132 -16.267   6.509  1.00  0.00     0.043 A 
HETATM   17  C   UNL     1      42.456 -17.977   6.336  1.00  0.00     0.014 A 
HETATM   18  C   UNL     1      45.118 -17.207   6.839  1.00  0.00     0.030 A 
HETATM   19  N   UNL     1      44.230 -14.907   6.374  1.00  0.00    -0.359 N 
HETATM   20  C   UNL     1      44.740 -18.549   6.911  1.00  0.00     0.002 A 
HETATM   21  C   UNL     1      43.426 -18.932   6.665  1.00  0.00     0.001 A 
HETATM   22  H   UNL     1      45.084 -14.386   6.512  1.00  0.00     0.166 HD
HETATM   23  C   UNL     1      43.025 -14.363   6.009  1.00  0.00     0.016 A 
HETATM   24  C   UNL     1      42.914 -12.897   5.771  1.00  0.00     0.069 C 
ENDBRANCH   8  14
BRANCH   1  25
HETATM   25  C   UNL     1      41.246 -17.750   1.046  1.00  0.00     0.034 C 
HETATM   26  C   UNL     1      42.434 -18.469   1.667  1.00  0.00     0.010 C 
ENDBRANCH   1  25
TORSDOF 3
ENDMDL
MODEL 9
REMARK VINA RESULT:      -7.5      2.332      5.789
REMARK  3 active torsions:
REMARK  status: ('A' for Active; 'I' for Inactive)
REMARK    1  A    between atoms: C_2  and  C_3 
REMARK    2  A    between atoms: C_10  and  O_11 
REMARK    3  A    between atoms: C_10  and  C_12 
ROOT
HETATM    1  C   UNL     1      40.213 -14.980   2.980  1.00  0.00    -0.058 A 
HETATM    2  C   UNL     1      40.833 -15.940   3.796  1.00  0.00     0.020 A 
HETATM    3  C   UNL     1      41.907 -15.552   4.584  1.00  0.00     0.018 A 
HETATM    4  C   UNL     1      42.342 -14.227   4.577  1.00  0.00     0.045 A 
HETATM    5  N   UNL     1      43.409 -14.061   5.447  1.00  0.00    -0.323 N 
HETATM    6  C   UNL     1      43.752 -15.264   6.070  1.00  0.00     0.266 A 
HETATM    7  O   UNL     1      44.648 -15.375   6.893  1.00  0.00    -0.269 OA
HETATM    8  C   UNL     1      42.748 -16.358   5.554  1.00  0.00     0.199 A 
HETATM    9  C   UNL     1      41.756 -13.259   3.791  1.00  0.00     0.031 A 
HETATM   10  C   UNL     1      40.685 -13.648   2.982  1.00  0.00     0.009 A 
HETATM   11  H   UNL     1      43.905 -13.200   5.621  1.00  0.00     0.169 HD
ENDROOT
BRANCH   8  12
HETATM   12  O   UNL     1      41.926 -16.822   6.621  1.00  0.00    -0.371 OA
HETATM   13  H   UNL     1      42.444 -16.712   7.435  1.00  0.00     0.212 HD
ENDBRANCH   8  12
BRANCH   8  14
HETATM   14  C   UNL     1      43.395 -17.461   4.741  1.00  0.00     0.025 A 
HETATM   15  C   UNL     1      43.716 -18.789   5.221  1.00  0.00     0.003 A 
HETATM   16  C   UNL     1      44.255 -19.511   4.159  1.00  0.00     0.043 A 
HETATM   17  C   UNL     1      43.583 -19.452   6.463  1.00  0.00     0.014 A 
HETATM   18  C   UNL     1      44.663 -20.847   4.267  1.00  0.00     0.030 A 
HETATM   19  N   UNL     1      44.288 -18.670   3.078  1.00  0.00    -0.359 N 
HETATM   20  C   UNL     1      44.517 -21.474   5.507  1.00  0.00     0.002 A 
HETATM   21  C   UNL     1      43.985 -20.787   6.592  1.00  0.00     0.001 A 
HETATM   22  H   UNL     1      44.642 -18.934   2.169  1.00  0.00     0.166 HD
HETATM   23  C   UNL     1      43.762 -17.444   3.393  1.00  0.00     0.016 A 
HETATM   24  C   UNL     1      43.667 -16.386   2.349  1.00  0.00     0.069 C 
ENDBRANCH   8  14
BRANCH   1  25
HETATM   25  C   UNL     1      39.071 -15.383   2.079  1.00  0.00     0.034 C 
HETATM   26  C   UNL     1      38.871 -14.388   0.945  1.00  0.00     0.010 C 
ENDBRANCH   1  25
TORSDOF 3
ENDMDL
MODEL 10
REMARK VINA RESULT:      -7.3      2.398      4.611
REMARK  3 active torsions:
REMARK  status: ('A' for Active; 'I' for Inactive)
REMARK    1  A    between atoms: C_2  and  C_3 
REMARK    2  A    between atoms: C_10  and  O_11 
REMARK    3  A    between atoms: C_10  and  C_12 
ROOT
HETATM    1  C   UNL     1      43.157 -19.351   1.989  1.00  0.00    -0.058 A 
HETATM    2  C   UNL     1      42.313 -18.568   2.791  1.00  0.00     0.020 A 
HETATM    3  C   UNL     1      42.502 -17.193   2.814  1.00  0.00     0.018 A 
HETATM    4  C   UNL     1      43.499 -16.607   2.036  1.00  0.00     0.045 A 
HETATM    5  N   UNL     1      43.497 -15.230   2.199  1.00  0.00    -0.323 N 
HETATM    6  C   UNL     1      42.510 -14.824   3.101  1.00  0.00     0.266 A 
HETATM    7  O   UNL     1      42.296 -13.658   3.399  1.00  0.00    -0.269 OA
HETATM    8  C   UNL     1      41.746 -16.116   3.567  1.00  0.00     0.199 A 
HETATM    9  C   UNL     1      44.345 -17.345   1.236  1.00  0.00     0.031 A 
HETATM   10  C   UNL     1      44.170 -18.732   1.222  1.00  0.00     0.009 A 
HETATM   11  H   UNL     1      44.122 -14.578   1.750  1.00  0.00     0.169 HD
ENDROOT
BRANCH   8  12
HETATM   12  O   UNL     1      40.394 -16.084   3.118  1.00  0.00    -0.371 OA
HETATM   13  H   UNL     1      40.428 -15.997   2.152  1.00  0.00     0.212 HD
ENDBRANCH   8  12
BRANCH   8  14
HETATM   14  C   UNL     1      41.905 -16.436   5.040  1.00  0.00     0.025 A 
HETATM   15  C   UNL     1      42.989 -17.197   5.627  1.00  0.00     0.003 A 
HETATM   16  C   UNL     1      42.793 -17.228   7.005  1.00  0.00     0.043 A 
HETATM   17  C   UNL     1      44.131 -17.853   5.112  1.00  0.00     0.014 A 
HETATM   18  C   UNL     1      43.669 -17.870   7.891  1.00  0.00     0.030 A 
HETATM   19  N   UNL     1      41.637 -16.540   7.263  1.00  0.00    -0.359 N 
HETATM   20  C   UNL     1      44.789 -18.507   7.351  1.00  0.00     0.002 A 
HETATM   21  C   UNL     1      45.018 -18.501   5.980  1.00  0.00     0.001 A 
HETATM   22  H   UNL     1      41.251 -16.412   8.188  1.00  0.00     0.166 HD
HETATM   23  C   UNL     1      41.095 -16.039   6.107  1.00  0.00     0.016 A 
HETATM   24  C   UNL     1      39.851 -15.224   6.162  1.00  0.00     0.069 C 
ENDBRANCH   8  14
BRANCH   1  25
HETATM   25  C   UNL     1      43.004 -20.852   1.977  1.00  0.00     0.034 C 
HETATM   26  C   UNL     1      44.329 -21.556   2.229  1.00  0.00     0.010 C 
ENDBRANCH   1  25
TORSDOF 3
ENDMDL
