MODEL 1
REMARK VINA RESULT:      -7.7      0.000      0.000
REMARK  10 active torsions:
REMARK  status: ('A' for Active; 'I' for Inactive)
REMARK    1  A    between atoms: C_6  and  C_7 
REMARK    2  A    between atoms: C_7  and  C_8 
REMARK       I    between atoms: C_8  and  N_9 
REMARK    3  A    between atoms: N_9  and  C_10 
REMARK    4  A    between atoms: C_10  and  C_11 
REMARK    5  A    between atoms: C_11  and  N_12 
REMARK    6  A    between atoms: C_17  and  C_18 
REMARK    7  A    between atoms: C_27  and  C_28 
REMARK    8  A    between atoms: C_28  and  O_29 
REMARK    9  A    between atoms: O_29  and  C_30 
REMARK   10  A    between atoms: C_30  and  C_31 
ROOT
HETATM    1  C   UNL     1      41.310 -11.414   6.441  1.00  0.00     0.071 C 
HETATM    2  C   UNL     1      40.797 -12.470   5.489  1.00  0.00     0.048 C 
HETATM    3  N   UNL     1      39.593 -12.132   4.858  1.00  0.00    -0.229 NA
HETATM    4  C   UNL     1      39.418 -12.609   3.665  1.00  0.00     0.170 C 
HETATM    5  N   UNL     1      40.367 -13.690   3.051  1.00  0.00    -0.318 N 
HETATM    6  C   UNL     1      40.627 -13.364   1.828  1.00  0.00     0.011 C 
HETATM    7  C   UNL     1      40.829 -14.515   4.178  1.00  0.00     0.169 C 
HETATM    8  S   UNL     1      38.363 -11.969   2.465  1.00  0.00    -0.086 SA
HETATM    9  C   UNL     1      39.568 -12.479   1.177  1.00  0.00     0.135 C 
HETATM   10  C   UNL     1      41.506 -13.564   5.110  1.00  0.00     0.069 C 
ENDROOT
BRANCH   6  11
HETATM   11  C   UNL     1      41.915 -13.746   1.153  1.00  0.00     0.156 C 
BRANCH  11  12
HETATM   12  C   UNL     1      41.675 -14.389  -0.203  1.00  0.00     0.223 C 
HETATM   13  N   UNL     1      42.041 -13.673  -1.310  1.00  0.00    -0.359 N 
HETATM   14  H   UNL     1      42.453 -12.745  -1.189  1.00  0.00     0.162 HD
HETATM   15  O   UNL     1      41.125 -15.485  -0.303  1.00  0.00    -0.273 OA
BRANCH  13  16
HETATM   16  C   UNL     1      41.627 -14.031  -2.676  1.00  0.00     0.150 C 
BRANCH  16  17
HETATM   17  C   UNL     1      40.149 -13.755  -3.053  1.00  0.00     0.253 C 
BRANCH  17  18
HETATM   18  N   UNL     1      39.238 -14.947  -2.823  1.00  0.00    -0.077 N 
HETATM   19  H   UNL     1      39.274 -15.158  -1.807  1.00  0.00     0.279 HD
HETATM   20  C   UNL     1      37.791 -14.688  -3.139  1.00  0.00     0.269 C 
HETATM   21  C   UNL     1      39.727 -16.181  -3.531  1.00  0.00     0.269 C 
ENDBRANCH  17  18
ENDBRANCH  16  17
ENDBRANCH  13  16
ENDBRANCH  11  12
ENDBRANCH   6  11
BRANCH   7  22
HETATM   22  C   UNL     1      41.286 -15.952   4.016  1.00  0.00     0.008 A 
HETATM   23  C   UNL     1      41.114 -16.935   5.000  1.00  0.00     0.125 A 
HETATM   24  F   UNL     1      40.398 -16.665   6.099  1.00  0.00    -0.205 F 
HETATM   25  C   UNL     1      41.732 -18.182   4.925  1.00  0.00     0.043 A 
HETATM   26  C   UNL     1      42.591 -18.466   3.871  1.00  0.00     0.003 A 
HETATM   27  C   UNL     1      42.815 -17.506   2.889  1.00  0.00     0.001 A 
HETATM   28  C   UNL     1      42.167 -16.267   2.956  1.00  0.00     0.013 A 
ENDBRANCH   7  22
BRANCH  10  29
HETATM   29  C   UNL     1      42.976 -13.593   5.162  1.00  0.00     0.294 C 
HETATM   30  O   UNL     1      43.624 -13.262   4.176  1.00  0.00    -0.259 OA
BRANCH  29  31
HETATM   31  O   UNL     1      43.426 -13.936   6.372  1.00  0.00    -0.313 OA
BRANCH  31  32
HETATM   32  C   UNL     1      44.700 -14.596   6.418  1.00  0.00     0.217 C 
BRANCH  32  33
HETATM   33  C   UNL     1      44.419 -16.013   6.821  1.00  0.00    -0.034 A 
HETATM   34  C   UNL     1      43.483 -16.287   7.827  1.00  0.00     0.009 A 
HETATM   35  C   UNL     1      43.274 -17.597   8.256  1.00  0.00     0.001 A 
HETATM   36  C   UNL     1      44.001 -18.641   7.688  1.00  0.00     0.000 A 
HETATM   37  C   UNL     1      44.934 -18.379   6.686  1.00  0.00     0.001 A 
HETATM   38  C   UNL     1      45.146 -17.070   6.255  1.00  0.00     0.009 A 
ENDBRANCH  32  33
ENDBRANCH  31  32
ENDBRANCH  29  31
ENDBRANCH  10  29
TORSDOF 10
ENDMDL
MODEL 2
REMARK VINA RESULT:      -7.5      1.968      2.801
REMARK  10 active torsions:
REMARK  status: ('A' for Active; 'I' for Inactive)
REMARK    1  A    between atoms: C_6  and  C_7 
REMARK    2  A    between atoms: C_7  and  C_8 
REMARK       I    between atoms: C_8  and  N_9 
REMARK    3  A    between atoms: N_9  and  C_10 
REMARK    4  A    between atoms: C_10  and  C_11 
REMARK    5  A    between atoms: C_11  and  N_12 
REMARK    6  A    between atoms: C_17  and  C_18 
REMARK    7  A    between atoms: C_27  and  C_28 
REMARK    8  A    between atoms: C_28  and  O_29 
REMARK    9  A    between atoms: O_29  and  C_30 
REMARK   10  A    between atoms: C_30  and  C_31 
ROOT
HETATM    1  C   UNL     1      40.685 -12.482   4.771  1.00  0.00     0.071 C 
HETATM    2  C   UNL     1      40.478 -13.655   3.842  1.00  0.00     0.048 C 
HETATM    3  N   UNL     1      39.194 -13.722   3.285  1.00  0.00    -0.229 NA
HETATM    4  C   UNL     1      39.110 -14.241   2.100  1.00  0.00     0.170 C 
HETATM    5  N   UNL     1      40.314 -14.971   1.421  1.00  0.00    -0.318 N 
HETATM    6  C   UNL     1      40.385 -14.591   0.188  1.00  0.00     0.011 C 
HETATM    7  C   UNL     1      41.079 -15.597   2.511  1.00  0.00     0.169 C 
HETATM    8  S   UNL     1      37.838 -13.978   0.970  1.00  0.00    -0.086 SA
HETATM    9  C   UNL     1      39.064 -14.093  -0.391  1.00  0.00     0.135 C 
HETATM   10  C   UNL     1      41.474 -14.472   3.410  1.00  0.00     0.069 C 
ENDROOT
BRANCH   6  11
HETATM   11  C   UNL     1      41.687 -14.551  -0.565  1.00  0.00     0.156 C 
BRANCH  11  12
HETATM   12  C   UNL     1      42.066 -13.135  -0.966  1.00  0.00     0.223 C 
HETATM   13  N   UNL     1      42.218 -12.218   0.038  1.00  0.00    -0.359 N 
HETATM   14  H   UNL     1      42.072 -12.512   1.007  1.00  0.00     0.162 HD
HETATM   15  O   UNL     1      42.178 -12.813  -2.148  1.00  0.00    -0.273 OA
BRANCH  13  16
HETATM   16  C   UNL     1      42.309 -10.770  -0.199  1.00  0.00     0.150 C 
BRANCH  16  17
HETATM   17  C   UNL     1      41.149  -9.898   0.349  1.00  0.00     0.253 C 
BRANCH  17  18
HETATM   18  N   UNL     1      39.864 -10.677   0.565  1.00  0.00    -0.077 N 
HETATM   19  H   UNL     1      40.113 -11.684   0.508  1.00  0.00     0.279 HD
HETATM   20  C   UNL     1      39.245 -10.482   1.922  1.00  0.00     0.269 C 
HETATM   21  C   UNL     1      38.857 -10.425  -0.523  1.00  0.00     0.269 C 
ENDBRANCH  17  18
ENDBRANCH  16  17
ENDBRANCH  13  16
ENDBRANCH  11  12
ENDBRANCH   6  11
BRANCH   7  22
HETATM   22  C   UNL     1      41.957 -16.817   2.308  1.00  0.00     0.008 A 
HETATM   23  C   UNL     1      42.077 -17.849   3.248  1.00  0.00     0.125 A 
HETATM   24  F   UNL     1      41.294 -17.862   4.333  1.00  0.00    -0.205 F 
HETATM   25  C   UNL     1      43.049 -18.843   3.145  1.00  0.00     0.043 A 
HETATM   26  C   UNL     1      43.972 -18.802   2.107  1.00  0.00     0.003 A 
HETATM   27  C   UNL     1      43.909 -17.776   1.171  1.00  0.00     0.001 A 
HETATM   28  C   UNL     1      42.911 -16.798   1.265  1.00  0.00     0.013 A 
ENDBRANCH   7  22
BRANCH  10  29
HETATM   29  C   UNL     1      42.877 -14.033   3.376  1.00  0.00     0.294 C 
HETATM   30  O   UNL     1      43.198 -13.084   2.671  1.00  0.00    -0.259 OA
BRANCH  29  31
HETATM   31  O   UNL     1      43.641 -14.734   4.219  1.00  0.00    -0.313 OA
BRANCH  31  32
HETATM   32  C   UNL     1      43.277 -14.682   5.606  1.00  0.00     0.217 C 
BRANCH  32  33
HETATM   33  C   UNL     1      43.515 -16.059   6.150  1.00  0.00    -0.034 A 
HETATM   34  C   UNL     1      42.645 -16.598   7.107  1.00  0.00     0.009 A 
HETATM   35  C   UNL     1      42.904 -17.848   7.670  1.00  0.00     0.001 A 
HETATM   36  C   UNL     1      44.035 -18.565   7.284  1.00  0.00     0.000 A 
HETATM   37  C   UNL     1      44.906 -18.037   6.333  1.00  0.00     0.001 A 
HETATM   38  C   UNL     1      44.650 -16.788   5.769  1.00  0.00     0.009 A 
ENDBRANCH  32  33
ENDBRANCH  31  32
ENDBRANCH  29  31
ENDBRANCH  10  29
TORSDOF 10
ENDMDL
MODEL 3
REMARK VINA RESULT:      -7.4      2.498      3.409
REMARK  10 active torsions:
REMARK  status: ('A' for Active; 'I' for Inactive)
REMARK    1  A    between atoms: C_6  and  C_7 
REMARK    2  A    between atoms: C_7  and  C_8 
REMARK       I    between atoms: C_8  and  N_9 
REMARK    3  A    between atoms: N_9  and  C_10 
REMARK    4  A    between atoms: C_10  and  C_11 
REMARK    5  A    between atoms: C_11  and  N_12 
REMARK    6  A    between atoms: C_17  and  C_18 
REMARK    7  A    between atoms: C_27  and  C_28 
REMARK    8  A    between atoms: C_28  and  O_29 
REMARK    9  A    between atoms: O_29  and  C_30 
REMARK   10  A    between atoms: C_30  and  C_31 
ROOT
HETATM    1  C   UNL     1      40.630 -12.248   4.416  1.00  0.00     0.071 C 
HETATM    2  C   UNL     1      40.426 -13.472   3.554  1.00  0.00     0.048 C 
HETATM    3  N   UNL     1      39.137 -13.582   3.017  1.00  0.00    -0.229 NA
HETATM    4  C   UNL     1      39.045 -14.166   1.862  1.00  0.00     0.170 C 
HETATM    5  N   UNL     1      40.250 -14.919   1.210  1.00  0.00    -0.318 N 
HETATM    6  C   UNL     1      40.303 -14.606  -0.042  1.00  0.00     0.011 C 
HETATM    7  C   UNL     1      41.034 -15.476   2.324  1.00  0.00     0.169 C 
HETATM    8  S   UNL     1      37.758 -13.979   0.735  1.00  0.00    -0.086 SA
HETATM    9  C   UNL     1      38.970 -14.154  -0.632  1.00  0.00     0.135 C 
HETATM   10  C   UNL     1      41.426 -14.300   3.156  1.00  0.00     0.069 C 
ENDROOT
BRANCH   6  11
HETATM   11  C   UNL     1      41.596 -14.593  -0.812  1.00  0.00     0.156 C 
BRANCH  11  12
HETATM   12  C   UNL     1      41.940 -13.202  -1.317  1.00  0.00     0.223 C 
HETATM   13  N   UNL     1      42.115 -12.220  -0.380  1.00  0.00    -0.359 N 
HETATM   14  H   UNL     1      42.007 -12.452   0.610  1.00  0.00     0.162 HD
HETATM   15  O   UNL     1      42.005 -12.955  -2.520  1.00  0.00    -0.273 OA
BRANCH  13  16
HETATM   16  C   UNL     1      42.177 -10.789  -0.713  1.00  0.00     0.150 C 
BRANCH  16  17
HETATM   17  C   UNL     1      43.570 -10.217  -1.084  1.00  0.00     0.253 C 
BRANCH  17  18
HETATM   18  N   UNL     1      43.527  -8.761  -1.509  1.00  0.00    -0.077 N 
HETATM   19  H   UNL     1      44.194  -8.661  -2.299  1.00  0.00     0.279 HD
HETATM   20  C   UNL     1      42.193  -8.310  -2.036  1.00  0.00     0.269 C 
HETATM   21  C   UNL     1      44.013  -7.838  -0.424  1.00  0.00     0.269 C 
ENDBRANCH  17  18
ENDBRANCH  16  17
ENDBRANCH  13  16
ENDBRANCH  11  12
ENDBRANCH   6  11
BRANCH   7  22
HETATM   22  C   UNL     1      41.924 -16.696   2.177  1.00  0.00     0.008 A 
HETATM   23  C   UNL     1      41.980 -17.731   3.120  1.00  0.00     0.125 A 
HETATM   24  F   UNL     1      41.124 -17.747   4.149  1.00  0.00    -0.205 F 
HETATM   25  C   UNL     1      42.956 -18.725   3.079  1.00  0.00     0.043 A 
HETATM   26  C   UNL     1      43.948 -18.681   2.107  1.00  0.00     0.003 A 
HETATM   27  C   UNL     1      43.948 -17.652   1.172  1.00  0.00     0.001 A 
HETATM   28  C   UNL     1      42.947 -16.674   1.201  1.00  0.00     0.013 A 
ENDBRANCH   7  22
BRANCH  10  29
HETATM   29  C   UNL     1      42.824 -13.848   3.081  1.00  0.00     0.294 C 
HETATM   30  O   UNL     1      43.116 -12.898   2.366  1.00  0.00    -0.259 OA
BRANCH  29  31
HETATM   31  O   UNL     1      43.617 -14.541   3.903  1.00  0.00    -0.313 OA
BRANCH  31  32
HETATM   32  C   UNL     1      43.495 -14.253   5.304  1.00  0.00     0.217 C 
BRANCH  32  33
HETATM   33  C   UNL     1      43.401 -15.581   5.995  1.00  0.00    -0.034 A 
HETATM   34  C   UNL     1      44.496 -16.454   5.996  1.00  0.00     0.009 A 
HETATM   35  C   UNL     1      44.388 -17.719   6.573  1.00  0.00     0.001 A 
HETATM   36  C   UNL     1      43.184 -18.122   7.148  1.00  0.00     0.000 A 
HETATM   37  C   UNL     1      42.089 -17.261   7.152  1.00  0.00     0.001 A 
HETATM   38  C   UNL     1      42.193 -15.995   6.576  1.00  0.00     0.009 A 
ENDBRANCH  32  33
ENDBRANCH  31  32
ENDBRANCH  29  31
ENDBRANCH  10  29
TORSDOF 10
ENDMDL
MODEL 4
REMARK VINA RESULT:      -7.2      2.591      6.547
REMARK  10 active torsions:
REMARK  status: ('A' for Active; 'I' for Inactive)
REMARK    1  A    between atoms: C_6  and  C_7 
REMARK    2  A    between atoms: C_7  and  C_8 
REMARK       I    between atoms: C_8  and  N_9 
REMARK    3  A    between atoms: N_9  and  C_10 
REMARK    4  A    between atoms: C_10  and  C_11 
REMARK    5  A    between atoms: C_11  and  N_12 
REMARK    6  A    between atoms: C_17  and  C_18 
REMARK    7  A    between atoms: C_27  and  C_28 
REMARK    8  A    between atoms: C_28  and  O_29 
REMARK    9  A    between atoms: O_29  and  C_30 
REMARK   10  A    between atoms: C_30  and  C_31 
ROOT
HETATM    1  C   UNL     1      40.967 -15.255  -1.026  1.00  0.00     0.071 C 
HETATM    2  C   UNL     1      41.378 -14.415   0.160  1.00  0.00     0.048 C 
HETATM    3  N   UNL     1      41.756 -13.107  -0.171  1.00  0.00    -0.229 NA
HETATM    4  C   UNL     1      41.520 -12.198   0.724  1.00  0.00     0.170 C 
HETATM    5  N   UNL     1      41.069 -12.556   2.178  1.00  0.00    -0.318 N 
HETATM    6  C   UNL     1      40.113 -11.758   2.521  1.00  0.00     0.011 C 
HETATM    7  C   UNL     1      41.708 -13.842   2.498  1.00  0.00     0.169 C 
HETATM    8  S   UNL     1      41.359 -10.510   0.431  1.00  0.00    -0.086 SA
HETATM    9  C   UNL     1      40.108 -10.428   1.773  1.00  0.00     0.135 C 
HETATM   10  C   UNL     1      41.222 -14.794   1.455  1.00  0.00     0.069 C 
ENDROOT
BRANCH   6  11
HETATM   11  C   UNL     1      39.045 -12.160   3.500  1.00  0.00     0.156 C 
BRANCH  11  12
HETATM   12  C   UNL     1      38.916 -11.163   4.640  1.00  0.00     0.223 C 
HETATM   13  N   UNL     1      39.860 -11.216   5.630  1.00  0.00    -0.359 N 
HETATM   14  H   UNL     1      40.604 -11.914   5.570  1.00  0.00     0.162 HD
HETATM   15  O   UNL     1      37.972 -10.376   4.699  1.00  0.00    -0.273 OA
BRANCH  13  16
HETATM   16  C   UNL     1      39.720 -10.518   6.916  1.00  0.00     0.150 C 
BRANCH  16  17
HETATM   17  C   UNL     1      39.477 -11.401   8.168  1.00  0.00     0.253 C 
BRANCH  17  18
HETATM   18  N   UNL     1      40.596 -11.315   9.189  1.00  0.00    -0.077 N 
HETATM   19  H   UNL     1      40.866 -12.292   9.418  1.00  0.00     0.279 HD
HETATM   20  C   UNL     1      41.845 -10.650   8.682  1.00  0.00     0.269 C 
HETATM   21  C   UNL     1      40.141 -10.687  10.478  1.00  0.00     0.269 C 
ENDBRANCH  17  18
ENDBRANCH  16  17
ENDBRANCH  13  16
ENDBRANCH  11  12
ENDBRANCH   6  11
BRANCH   7  22
HETATM   22  C   UNL     1      42.008 -14.283   3.918  1.00  0.00     0.008 A 
HETATM   23  C   UNL     1      43.307 -14.420   4.427  1.00  0.00     0.125 A 
HETATM   24  F   UNL     1      44.358 -14.025   3.699  1.00  0.00    -0.205 F 
HETATM   25  C   UNL     1      43.567 -15.033   5.652  1.00  0.00     0.043 A 
HETATM   26  C   UNL     1      42.522 -15.577   6.388  1.00  0.00     0.003 A 
HETATM   27  C   UNL     1      41.221 -15.492   5.903  1.00  0.00     0.001 A 
HETATM   28  C   UNL     1      40.965 -14.848   4.686  1.00  0.00     0.013 A 
ENDBRANCH   7  22
BRANCH  10  29
HETATM   29  C   UNL     1      40.213 -15.786   1.856  1.00  0.00     0.294 C 
HETATM   30  O   UNL     1      39.023 -15.525   1.732  1.00  0.00    -0.259 OA
BRANCH  29  31
HETATM   31  O   UNL     1      40.772 -16.929   2.265  1.00  0.00    -0.313 OA
BRANCH  31  32
HETATM   32  C   UNL     1      41.754 -17.510   1.394  1.00  0.00     0.217 C 
BRANCH  32  33
HETATM   33  C   UNL     1      42.697 -18.269   2.279  1.00  0.00    -0.034 A 
HETATM   34  C   UNL     1      43.521 -19.265   1.739  1.00  0.00     0.009 A 
HETATM   35  C   UNL     1      44.346 -20.023   2.571  1.00  0.00     0.001 A 
HETATM   36  C   UNL     1      44.350 -19.794   3.945  1.00  0.00     0.000 A 
HETATM   37  C   UNL     1      43.535 -18.805   4.491  1.00  0.00     0.001 A 
HETATM   38  C   UNL     1      42.709 -18.045   3.664  1.00  0.00     0.009 A 
ENDBRANCH  32  33
ENDBRANCH  31  32
ENDBRANCH  29  31
ENDBRANCH  10  29
TORSDOF 10
ENDMDL
MODEL 5
REMARK VINA RESULT:      -7.0      3.077      8.577
REMARK  10 active torsions:
REMARK  status: ('A' for Active; 'I' for Inactive)
REMARK    1  A    between atoms: C_6  and  C_7 
REMARK    2  A    between atoms: C_7  and  C_8 
REMARK       I    between atoms: C_8  and  N_9 
REMARK    3  A    between atoms: N_9  and  C_10 
REMARK    4  A    between atoms: C_10  and  C_11 
REMARK    5  A    between atoms: C_11  and  N_12 
REMARK    6  A    between atoms: C_17  and  C_18 
REMARK    7  A    between atoms: C_27  and  C_28 
REMARK    8  A    between atoms: C_28  and  O_29 
REMARK    9  A    between atoms: O_29  and  C_30 
REMARK   10  A    between atoms: C_30  and  C_31 
ROOT
HETATM    1  C   UNL     1      42.663 -18.385   2.544  1.00  0.00     0.071 C 
HETATM    2  C   UNL     1      42.187 -17.460   3.640  1.00  0.00     0.048 C 
HETATM    3  N   UNL     1      42.130 -18.057   4.906  1.00  0.00    -0.229 NA
HETATM    4  C   UNL     1      42.347 -17.277   5.918  1.00  0.00     0.170 C 
HETATM    5  N   UNL     1      42.428 -15.722   5.771  1.00  0.00    -0.318 N 
HETATM    6  C   UNL     1      43.428 -15.293   6.469  1.00  0.00     0.011 C 
HETATM    7  C   UNL     1      41.513 -15.368   4.675  1.00  0.00     0.169 C 
HETATM    8  S   UNL     1      42.871 -17.771   7.482  1.00  0.00    -0.086 SA
HETATM    9  C   UNL     1      43.825 -16.209   7.623  1.00  0.00     0.135 C 
HETATM   10  C   UNL     1      42.012 -16.122   3.486  1.00  0.00     0.069 C 
ENDROOT
BRANCH   6  11
HETATM   11  C   UNL     1      44.188 -14.050   6.100  1.00  0.00     0.156 C 
BRANCH  11  12
HETATM   12  C   UNL     1      44.727 -13.330   7.325  1.00  0.00     0.223 C 
HETATM   13  N   UNL     1      43.818 -12.711   8.139  1.00  0.00    -0.359 N 
HETATM   14  H   UNL     1      42.825 -12.751   7.897  1.00  0.00     0.162 HD
HETATM   15  O   UNL     1      45.935 -13.261   7.547  1.00  0.00    -0.273 OA
BRANCH  13  16
HETATM   16  C   UNL     1      44.196 -11.756   9.192  1.00  0.00     0.150 C 
BRANCH  16  17
HETATM   17  C   UNL     1      43.062 -10.872   9.774  1.00  0.00     0.253 C 
BRANCH  17  18
HETATM   18  N   UNL     1      42.303 -11.539  10.906  1.00  0.00    -0.077 N 
HETATM   19  H   UNL     1      42.253 -12.551  10.675  1.00  0.00     0.279 HD
HETATM   20  C   UNL     1      42.987 -11.454  12.242  1.00  0.00     0.269 C 
HETATM   21  C   UNL     1      40.882 -11.053  11.000  1.00  0.00     0.269 C 
ENDBRANCH  17  18
ENDBRANCH  16  17
ENDBRANCH  13  16
ENDBRANCH  11  12
ENDBRANCH   6  11
BRANCH   7  22
HETATM   22  C   UNL     1      40.862 -14.003   4.553  1.00  0.00     0.008 A 
HETATM   23  C   UNL     1      39.786 -13.734   3.696  1.00  0.00     0.125 A 
HETATM   24  F   UNL     1      39.188 -14.733   3.035  1.00  0.00    -0.205 F 
HETATM   25  C   UNL     1      39.349 -12.437   3.434  1.00  0.00     0.043 A 
HETATM   26  C   UNL     1      40.018 -11.355   3.992  1.00  0.00     0.003 A 
HETATM   27  C   UNL     1      41.112 -11.578   4.821  1.00  0.00     0.001 A 
HETATM   28  C   UNL     1      41.527 -12.884   5.104  1.00  0.00     0.013 A 
ENDBRANCH   7  22
BRANCH  10  29
HETATM   29  C   UNL     1      42.721 -15.361   2.446  1.00  0.00     0.294 C 
HETATM   30  O   UNL     1      43.838 -14.914   2.677  1.00  0.00    -0.259 OA
BRANCH  29  31
HETATM   31  O   UNL     1      42.032 -15.316   1.303  1.00  0.00    -0.313 OA
BRANCH  31  32
HETATM   32  C   UNL     1      41.810 -14.015   0.740  1.00  0.00     0.217 C 
BRANCH  32  33
HETATM   33  C   UNL     1      41.642 -14.224  -0.736  1.00  0.00    -0.034 A 
HETATM   34  C   UNL     1      41.997 -13.211  -1.636  1.00  0.00     0.009 A 
HETATM   35  C   UNL     1      41.774 -13.374  -3.003  1.00  0.00     0.001 A 
HETATM   36  C   UNL     1      41.190 -14.546  -3.480  1.00  0.00     0.000 A 
HETATM   37  C   UNL     1      40.834 -15.560  -2.593  1.00  0.00     0.001 A 
HETATM   38  C   UNL     1      41.056 -15.401  -1.225  1.00  0.00     0.009 A 
ENDBRANCH  32  33
ENDBRANCH  31  32
ENDBRANCH  29  31
ENDBRANCH  10  29
TORSDOF 10
ENDMDL
MODEL 6
REMARK VINA RESULT:      -6.8      3.434      8.201
REMARK  10 active torsions:
REMARK  status: ('A' for Active; 'I' for Inactive)
REMARK    1  A    between atoms: C_6  and  C_7 
REMARK    2  A    between atoms: C_7  and  C_8 
REMARK       I    between atoms: C_8  and  N_9 
REMARK    3  A    between atoms: N_9  and  C_10 
REMARK    4  A    between atoms: C_10  and  C_11 
REMARK    5  A    between atoms: C_11  and  N_12 
REMARK    6  A    between atoms: C_17  and  C_18 
REMARK    7  A    between atoms: C_27  and  C_28 
REMARK    8  A    between atoms: C_28  and  O_29 
REMARK    9  A    between atoms: O_29  and  C_30 
REMARK   10  A    between atoms: C_30  and  C_31 
ROOT
HETATM    1  C   UNL     1      43.200 -17.135   2.310  1.00  0.00     0.071 C 
HETATM    2  C   UNL     1      42.648 -16.484   3.557  1.00  0.00     0.048 C 
HETATM    3  N   UNL     1      42.532 -17.354   4.650  1.00  0.00    -0.229 NA
HETATM    4  C   UNL     1      42.679 -16.823   5.823  1.00  0.00     0.170 C 
HETATM    5  N   UNL     1      42.742 -15.275   6.037  1.00  0.00    -0.318 N 
HETATM    6  C   UNL     1      43.694 -15.011   6.870  1.00  0.00     0.011 C 
HETATM    7  C   UNL     1      41.882 -14.685   4.998  1.00  0.00     0.169 C 
HETATM    8  S   UNL     1      43.125 -17.657   7.262  1.00  0.00    -0.086 SA
HETATM    9  C   UNL     1      44.043 -16.163   7.807  1.00  0.00     0.135 C 
HETATM   10  C   UNL     1      42.460 -15.147   3.701  1.00  0.00     0.069 C 
ENDROOT
BRANCH   6  11
HETATM   11  C   UNL     1      44.452 -13.713   6.836  1.00  0.00     0.156 C 
BRANCH  11  12
HETATM   12  C   UNL     1      44.385 -12.983   8.167  1.00  0.00     0.223 C 
HETATM   13  N   UNL     1      43.359 -12.094   8.344  1.00  0.00    -0.359 N 
HETATM   14  H   UNL     1      42.687 -11.952   7.586  1.00  0.00     0.162 HD
HETATM   15  O   UNL     1      45.247 -13.143   9.030  1.00  0.00    -0.273 OA
BRANCH  13  16
HETATM   16  C   UNL     1      43.315 -11.122   9.446  1.00  0.00     0.150 C 
BRANCH  16  17
HETATM   17  C   UNL     1      42.007 -10.304   9.605  1.00  0.00     0.253 C 
BRANCH  17  18
HETATM   18  N   UNL     1      40.797 -11.164   9.920  1.00  0.00    -0.077 N 
HETATM   19  H   UNL     1      41.109 -12.153   9.857  1.00  0.00     0.279 HD
HETATM   20  C   UNL     1      40.262 -10.989  11.315  1.00  0.00     0.269 C 
HETATM   21  C   UNL     1      39.701 -10.998   8.903  1.00  0.00     0.269 C 
ENDBRANCH  17  18
ENDBRANCH  16  17
ENDBRANCH  13  16
ENDBRANCH  11  12
ENDBRANCH   6  11
BRANCH   7  22
HETATM   22  C   UNL     1      41.216 -13.331   5.150  1.00  0.00     0.008 A 
HETATM   23  C   UNL     1      39.833 -13.162   5.302  1.00  0.00     0.125 A 
HETATM   24  F   UNL     1      39.041 -14.229   5.459  1.00  0.00    -0.205 F 
HETATM   25  C   UNL     1      39.221 -11.913   5.219  1.00  0.00     0.043 A 
HETATM   26  C   UNL     1      39.982 -10.787   4.927  1.00  0.00     0.003 A 
HETATM   27  C   UNL     1      41.354 -10.916   4.735  1.00  0.00     0.001 A 
HETATM   28  C   UNL     1      41.965 -12.170   4.851  1.00  0.00     0.013 A 
ENDBRANCH   7  22
BRANCH  10  29
HETATM   29  C   UNL     1      43.212 -14.168   2.902  1.00  0.00     0.294 C 
HETATM   30  O   UNL     1      44.346 -13.853   3.241  1.00  0.00    -0.259 OA
BRANCH  29  31
HETATM   31  O   UNL     1      42.534 -13.782   1.817  1.00  0.00    -0.313 OA
BRANCH  31  32
HETATM   32  C   UNL     1      41.211 -14.315   1.666  1.00  0.00     0.217 C 
BRANCH  32  33
HETATM   33  C   UNL     1      40.291 -13.132   1.603  1.00  0.00    -0.034 A 
HETATM   34  C   UNL     1      38.917 -13.295   1.826  1.00  0.00     0.009 A 
HETATM   35  C   UNL     1      38.049 -12.211   1.697  1.00  0.00     0.001 A 
HETATM   36  C   UNL     1      38.546 -10.959   1.338  1.00  0.00     0.000 A 
HETATM   37  C   UNL     1      39.910 -10.787   1.114  1.00  0.00     0.001 A 
HETATM   38  C   UNL     1      40.782 -11.868   1.243  1.00  0.00     0.009 A 
ENDBRANCH  32  33
ENDBRANCH  31  32
ENDBRANCH  29  31
ENDBRANCH  10  29
TORSDOF 10
ENDMDL
MODEL 7
REMARK VINA RESULT:      -6.8      2.606      4.731
REMARK  10 active torsions:
REMARK  status: ('A' for Active; 'I' for Inactive)
REMARK    1  A    between atoms: C_6  and  C_7 
REMARK    2  A    between atoms: C_7  and  C_8 
REMARK       I    between atoms: C_8  and  N_9 
REMARK    3  A    between atoms: N_9  and  C_10 
REMARK    4  A    between atoms: C_10  and  C_11 
REMARK    5  A    between atoms: C_11  and  N_12 
REMARK    6  A    between atoms: C_17  and  C_18 
REMARK    7  A    between atoms: C_27  and  C_28 
REMARK    8  A    between atoms: C_28  and  O_29 
REMARK    9  A    between atoms: O_29  and  C_30 
REMARK   10  A    between atoms: C_30  and  C_31 
ROOT
HETATM    1  C   UNL     1      41.205 -14.379  -1.862  1.00  0.00     0.071 C 
HETATM    2  C   UNL     1      41.680 -13.654  -0.624  1.00  0.00     0.048 C 
HETATM    3  N   UNL     1      42.169 -12.365  -0.871  1.00  0.00    -0.229 NA
HETATM    4  C   UNL     1      42.007 -11.499   0.081  1.00  0.00     0.170 C 
HETATM    5  N   UNL     1      41.521 -11.910   1.509  1.00  0.00    -0.318 N 
HETATM    6  C   UNL     1      40.635 -11.057   1.904  1.00  0.00     0.011 C 
HETATM    7  C   UNL     1      42.047 -13.263   1.746  1.00  0.00     0.169 C 
HETATM    8  S   UNL     1      41.991  -9.787  -0.102  1.00  0.00    -0.086 SA
HETATM    9  C   UNL     1      40.746  -9.686   1.243  1.00  0.00     0.135 C 
HETATM   10  C   UNL     1      41.486 -14.101   0.644  1.00  0.00     0.069 C 
ENDROOT
BRANCH   6  11
HETATM   11  C   UNL     1      39.532 -11.429   2.857  1.00  0.00     0.156 C 
BRANCH  11  12
HETATM   12  C   UNL     1      38.158 -11.247   2.232  1.00  0.00     0.223 C 
HETATM   13  N   UNL     1      37.817 -12.090   1.209  1.00  0.00    -0.359 N 
HETATM   14  H   UNL     1      38.488 -12.799   0.905  1.00  0.00     0.162 HD
HETATM   15  O   UNL     1      37.405 -10.343   2.593  1.00  0.00    -0.273 OA
BRANCH  13  16
HETATM   16  C   UNL     1      36.659 -11.867   0.332  1.00  0.00     0.150 C 
BRANCH  16  17
HETATM   17  C   UNL     1      36.897 -11.005  -0.935  1.00  0.00     0.253 C 
BRANCH  17  18
HETATM   18  N   UNL     1      36.738 -11.782  -2.228  1.00  0.00    -0.077 N 
HETATM   19  H   UNL     1      35.881 -12.361  -2.125  1.00  0.00     0.279 HD
HETATM   20  C   UNL     1      36.511 -10.923  -3.441  1.00  0.00     0.269 C 
HETATM   21  C   UNL     1      37.874 -12.742  -2.458  1.00  0.00     0.269 C 
ENDBRANCH  17  18
ENDBRANCH  16  17
ENDBRANCH  13  16
ENDBRANCH  11  12
ENDBRANCH   6  11
BRANCH   7  22
HETATM   22  C   UNL     1      42.302 -13.818   3.134  1.00  0.00     0.008 A 
HETATM   23  C   UNL     1      41.294 -14.005   4.089  1.00  0.00     0.125 A 
HETATM   24  F   UNL     1      40.011 -13.822   3.755  1.00  0.00    -0.205 F 
HETATM   25  C   UNL     1      41.575 -14.304   5.421  1.00  0.00     0.043 A 
HETATM   26  C   UNL     1      42.894 -14.376   5.851  1.00  0.00     0.003 A 
HETATM   27  C   UNL     1      43.925 -14.164   4.941  1.00  0.00     0.001 A 
HETATM   28  C   UNL     1      43.635 -13.894   3.599  1.00  0.00     0.013 A 
ENDBRANCH   7  22
BRANCH  10  29
HETATM   29  C   UNL     1      40.395 -15.028   0.981  1.00  0.00     0.294 C 
HETATM   30  O   UNL     1      39.245 -14.612   1.046  1.00  0.00    -0.259 OA
BRANCH  29  31
HETATM   31  O   UNL     1      40.830 -16.284   1.115  1.00  0.00    -0.313 OA
BRANCH  31  32
HETATM   32  C   UNL     1      40.310 -17.027   2.226  1.00  0.00     0.217 C 
BRANCH  32  33
HETATM   33  C   UNL     1      41.496 -17.420   3.056  1.00  0.00    -0.034 A 
HETATM   34  C   UNL     1      41.337 -17.714   4.417  1.00  0.00     0.009 A 
HETATM   35  C   UNL     1      42.448 -18.007   5.208  1.00  0.00     0.001 A 
HETATM   36  C   UNL     1      43.724 -18.003   4.647  1.00  0.00     0.000 A 
HETATM   37  C   UNL     1      43.892 -17.712   3.295  1.00  0.00     0.001 A 
HETATM   38  C   UNL     1      42.784 -17.418   2.501  1.00  0.00     0.009 A 
ENDBRANCH  32  33
ENDBRANCH  31  32
ENDBRANCH  29  31
ENDBRANCH  10  29
TORSDOF 10
ENDMDL
MODEL 8
REMARK VINA RESULT:      -6.6      3.245      5.941
REMARK  10 active torsions:
REMARK  status: ('A' for Active; 'I' for Inactive)
REMARK    1  A    between atoms: C_6  and  C_7 
REMARK    2  A    between atoms: C_7  and  C_8 
REMARK       I    between atoms: C_8  and  N_9 
REMARK    3  A    between atoms: N_9  and  C_10 
REMARK    4  A    between atoms: C_10  and  C_11 
REMARK    5  A    between atoms: C_11  and  N_12 
REMARK    6  A    between atoms: C_17  and  C_18 
REMARK    7  A    between atoms: C_27  and  C_28 
REMARK    8  A    between atoms: C_28  and  O_29 
REMARK    9  A    between atoms: O_29  and  C_30 
REMARK   10  A    between atoms: C_30  and  C_31 
ROOT
HETATM    1  C   UNL     1      41.619 -13.633  -1.617  1.00  0.00     0.071 C 
HETATM    2  C   UNL     1      41.777 -12.984  -0.262  1.00  0.00     0.048 C 
HETATM    3  N   UNL     1      42.085 -11.618  -0.316  1.00  0.00    -0.229 NA
HETATM    4  C   UNL     1      41.642 -10.892   0.663  1.00  0.00     0.170 C 
HETATM    5  N   UNL     1      41.014 -11.520   1.950  1.00  0.00    -0.318 N 
HETATM    6  C   UNL     1      39.953 -10.851   2.259  1.00  0.00     0.011 C 
HETATM    7  C   UNL     1      41.707 -12.800   2.160  1.00  0.00     0.169 C 
HETATM    8  S   UNL     1      41.381  -9.191   0.622  1.00  0.00    -0.086 SA
HETATM    9  C   UNL     1      39.943  -9.416   1.742  1.00  0.00     0.135 C 
HETATM   10  C   UNL     1      41.464 -13.588   0.914  1.00  0.00     0.069 C 
ENDROOT
BRANCH   6  11
HETATM   11  C   UNL     1      38.791 -11.479   2.979  1.00  0.00     0.156 C 
BRANCH  11  12
HETATM   12  C   UNL     1      38.057 -10.476   3.854  1.00  0.00     0.223 C 
HETATM   13  N   UNL     1      36.920  -9.911   3.343  1.00  0.00    -0.359 N 
HETATM   14  H   UNL     1      36.611 -10.177   2.406  1.00  0.00     0.162 HD
HETATM   15  O   UNL     1      38.497 -10.144   4.954  1.00  0.00    -0.273 OA
BRANCH  13  16
HETATM   16  C   UNL     1      36.263  -8.739   3.941  1.00  0.00     0.150 C 
BRANCH  16  17
HETATM   17  C   UNL     1      34.807  -8.451   3.493  1.00  0.00     0.253 C 
BRANCH  17  18
HETATM   18  N   UNL     1      33.940  -9.695   3.432  1.00  0.00    -0.077 N 
HETATM   19  H   UNL     1      34.523 -10.481   3.779  1.00  0.00     0.279 HD
HETATM   20  C   UNL     1      32.733  -9.650   4.328  1.00  0.00     0.269 C 
HETATM   21  C   UNL     1      33.547 -10.045   2.023  1.00  0.00     0.269 C 
ENDBRANCH  17  18
ENDBRANCH  16  17
ENDBRANCH  13  16
ENDBRANCH  11  12
ENDBRANCH   6  11
BRANCH   7  22
HETATM   22  C   UNL     1      41.832 -13.458   3.521  1.00  0.00     0.008 A 
HETATM   23  C   UNL     1      43.024 -14.014   4.006  1.00  0.00     0.125 A 
HETATM   24  F   UNL     1      44.163 -13.859   3.321  1.00  0.00    -0.205 F 
HETATM   25  C   UNL     1      43.066 -14.803   5.154  1.00  0.00     0.043 A 
HETATM   26  C   UNL     1      41.890 -15.103   5.830  1.00  0.00     0.003 A 
HETATM   27  C   UNL     1      40.680 -14.599   5.363  1.00  0.00     0.001 A 
HETATM   28  C   UNL     1      40.651 -13.782   4.227  1.00  0.00     0.013 A 
ENDBRANCH   7  22
BRANCH  10  29
HETATM   29  C   UNL     1      40.497 -14.693   0.986  1.00  0.00     0.294 C 
HETATM   30  O   UNL     1      39.300 -14.460   0.870  1.00  0.00    -0.259 OA
BRANCH  29  31
HETATM   31  O   UNL     1      41.101 -15.878   1.111  1.00  0.00    -0.313 OA
BRANCH  31  32
HETATM   32  C   UNL     1      40.555 -16.776   2.088  1.00  0.00     0.217 C 
BRANCH  32  33
HETATM   33  C   UNL     1      41.729 -17.412   2.771  1.00  0.00    -0.034 A 
HETATM   34  C   UNL     1      41.578 -17.991   4.038  1.00  0.00     0.009 A 
HETATM   35  C   UNL     1      42.683 -18.517   4.707  1.00  0.00     0.001 A 
HETATM   36  C   UNL     1      43.945 -18.464   4.119  1.00  0.00     0.000 A 
HETATM   37  C   UNL     1      44.106 -17.890   2.860  1.00  0.00     0.001 A 
HETATM   38  C   UNL     1      43.003 -17.363   2.187  1.00  0.00     0.009 A 
ENDBRANCH  32  33
ENDBRANCH  31  32
ENDBRANCH  29  31
ENDBRANCH  10  29
TORSDOF 10
ENDMDL
MODEL 9
REMARK VINA RESULT:      -6.5      2.623      4.452
REMARK  10 active torsions:
REMARK  status: ('A' for Active; 'I' for Inactive)
REMARK    1  A    between atoms: C_6  and  C_7 
REMARK    2  A    between atoms: C_7  and  C_8 
REMARK       I    between atoms: C_8  and  N_9 
REMARK    3  A    between atoms: N_9  and  C_10 
REMARK    4  A    between atoms: C_10  and  C_11 
REMARK    5  A    between atoms: C_11  and  N_12 
REMARK    6  A    between atoms: C_17  and  C_18 
REMARK    7  A    between atoms: C_27  and  C_28 
REMARK    8  A    between atoms: C_28  and  O_29 
REMARK    9  A    between atoms: O_29  and  C_30 
REMARK   10  A    between atoms: C_30  and  C_31 
ROOT
HETATM    1  C   UNL     1      42.739 -12.654  -1.687  1.00  0.00     0.071 C 
HETATM    2  C   UNL     1      42.326 -12.257  -0.289  1.00  0.00     0.048 C 
HETATM    3  N   UNL     1      42.208 -10.873  -0.100  1.00  0.00    -0.229 NA
HETATM    4  C   UNL     1      41.322 -10.486   0.764  1.00  0.00     0.170 C 
HETATM    5  N   UNL     1      40.596 -11.487   1.720  1.00  0.00    -0.318 N 
HETATM    6  C   UNL     1      39.340 -11.187   1.754  1.00  0.00     0.011 C 
HETATM    7  C   UNL     1      41.563 -12.561   1.998  1.00  0.00     0.169 C 
HETATM    8  S   UNL     1      40.579  -8.935   0.823  1.00  0.00    -0.086 SA
HETATM    9  C   UNL     1      39.034  -9.732   1.413  1.00  0.00     0.135 C 
HETATM   10  C   UNL     1      41.910 -13.132   0.662  1.00  0.00     0.069 C 
ENDROOT
BRANCH   6  11
HETATM   11  C   UNL     1      38.275 -12.219   2.008  1.00  0.00     0.156 C 
BRANCH  11  12
HETATM   12  C   UNL     1      37.814 -12.885   0.722  1.00  0.00     0.223 C 
HETATM   13  N   UNL     1      38.209 -12.313  -0.457  1.00  0.00    -0.359 N 
HETATM   14  H   UNL     1      38.789 -11.471  -0.432  1.00  0.00     0.162 HD
HETATM   15  O   UNL     1      37.071 -13.865   0.740  1.00  0.00    -0.273 OA
BRANCH  13  16
HETATM   16  C   UNL     1      37.627 -12.668  -1.760  1.00  0.00     0.150 C 
BRANCH  16  17
HETATM   17  C   UNL     1      38.595 -13.257  -2.820  1.00  0.00     0.253 C 
BRANCH  17  18
HETATM   18  N   UNL     1      38.532 -14.771  -2.914  1.00  0.00    -0.077 N 
HETATM   19  H   UNL     1      38.536 -15.130  -1.939  1.00  0.00     0.279 HD
HETATM   20  C   UNL     1      37.272 -15.298  -3.542  1.00  0.00     0.269 C 
HETATM   21  C   UNL     1      39.747 -15.349  -3.586  1.00  0.00     0.269 C 
ENDBRANCH  17  18
ENDBRANCH  16  17
ENDBRANCH  13  16
ENDBRANCH  11  12
ENDBRANCH   6  11
BRANCH   7  22
HETATM   22  C   UNL     1      41.514 -13.411   3.253  1.00  0.00     0.008 A 
HETATM   23  C   UNL     1      40.474 -14.305   3.541  1.00  0.00     0.125 A 
HETATM   24  F   UNL     1      39.527 -14.549   2.628  1.00  0.00    -0.205 F 
HETATM   25  C   UNL     1      40.334 -14.908   4.790  1.00  0.00     0.043 A 
HETATM   26  C   UNL     1      41.215 -14.588   5.816  1.00  0.00     0.003 A 
HETATM   27  C   UNL     1      42.242 -13.679   5.581  1.00  0.00     0.001 A 
HETATM   28  C   UNL     1      42.394 -13.101   4.315  1.00  0.00     0.013 A 
ENDBRANCH   7  22
BRANCH  10  29
HETATM   29  C   UNL     1      41.341 -14.443   0.314  1.00  0.00     0.294 C 
HETATM   30  O   UNL     1      40.267 -14.501  -0.273  1.00  0.00    -0.259 OA
BRANCH  29  31
HETATM   31  O   UNL     1      42.156 -15.447   0.650  1.00  0.00    -0.313 OA
BRANCH  31  32
HETATM   32  C   UNL     1      41.538 -16.718   0.899  1.00  0.00     0.217 C 
BRANCH  32  33
HETATM   33  C   UNL     1      42.446 -17.442   1.849  1.00  0.00    -0.034 A 
HETATM   34  C   UNL     1      42.784 -18.782   1.616  1.00  0.00     0.009 A 
HETATM   35  C   UNL     1      43.567 -19.480   2.535  1.00  0.00     0.001 A 
HETATM   36  C   UNL     1      44.013 -18.847   3.694  1.00  0.00     0.000 A 
HETATM   37  C   UNL     1      43.683 -17.515   3.934  1.00  0.00     0.001 A 
HETATM   38  C   UNL     1      42.900 -16.813   3.017  1.00  0.00     0.009 A 
ENDBRANCH  32  33
ENDBRANCH  31  32
ENDBRANCH  29  31
ENDBRANCH  10  29
TORSDOF 10
ENDMDL
MODEL 10
REMARK VINA RESULT:      -6.5      3.205      5.477
REMARK  10 active torsions:
REMARK  status: ('A' for Active; 'I' for Inactive)
REMARK    1  A    between atoms: C_6  and  C_7 
REMARK    2  A    between atoms: C_7  and  C_8 
REMARK       I    between atoms: C_8  and  N_9 
REMARK    3  A    between atoms: N_9  and  C_10 
REMARK    4  A    between atoms: C_10  and  C_11 
REMARK    5  A    between atoms: C_11  and  N_12 
REMARK    6  A    between atoms: C_17  and  C_18 
REMARK    7  A    between atoms: C_27  and  C_28 
REMARK    8  A    between atoms: C_28  and  O_29 
REMARK    9  A    between atoms: O_29  and  C_30 
REMARK   10  A    between atoms: C_30  and  C_31 
ROOT
HETATM    1  C   UNL     1      40.529 -15.079  -1.371  1.00  0.00     0.071 C 
HETATM    2  C   UNL     1      41.372 -14.151  -0.528  1.00  0.00     0.048 C 
HETATM    3  N   UNL     1      42.147 -13.251  -1.272  1.00  0.00    -0.229 NA
HETATM    4  C   UNL     1      42.378 -12.101  -0.719  1.00  0.00     0.170 C 
HETATM    5  N   UNL     1      42.031 -11.809   0.778  1.00  0.00    -0.318 N 
HETATM    6  C   UNL     1      41.483 -10.642   0.854  1.00  0.00     0.011 C 
HETATM    7  C   UNL     1      42.201 -13.085   1.492  1.00  0.00     0.169 C 
HETATM    8  S   UNL     1      42.798 -10.649  -1.543  1.00  0.00    -0.086 SA
HETATM    9  C   UNL     1      41.856  -9.699  -0.287  1.00  0.00     0.135 C 
HETATM   10  C   UNL     1      41.267 -14.038   0.821  1.00  0.00     0.069 C 
ENDROOT
BRANCH   6  11
HETATM   11  C   UNL     1      40.485 -10.293   1.924  1.00  0.00     0.156 C 
BRANCH  11  12
HETATM   12  C   UNL     1      39.106 -10.021   1.345  1.00  0.00     0.223 C 
HETATM   13  N   UNL     1      38.445 -11.077   0.778  1.00  0.00    -0.359 N 
HETATM   14  H   UNL     1      38.895 -11.995   0.762  1.00  0.00     0.162 HD
HETATM   15  O   UNL     1      38.626  -8.888   1.337  1.00  0.00    -0.273 OA
BRANCH  13  16
HETATM   16  C   UNL     1      37.244 -10.923  -0.057  1.00  0.00     0.150 C 
BRANCH  16  17
HETATM   17  C   UNL     1      35.892 -11.335   0.581  1.00  0.00     0.253 C 
BRANCH  17  18
HETATM   18  N   UNL     1      34.691 -10.971  -0.272  1.00  0.00    -0.077 N 
HETATM   19  H   UNL     1      34.123 -11.835  -0.371  1.00  0.00     0.279 HD
HETATM   20  C   UNL     1      33.780  -9.949   0.351  1.00  0.00     0.269 C 
HETATM   21  C   UNL     1      35.086 -10.558  -1.663  1.00  0.00     0.269 C 
ENDBRANCH  17  18
ENDBRANCH  16  17
ENDBRANCH  13  16
ENDBRANCH  11  12
ENDBRANCH   6  11
BRANCH   7  22
HETATM   22  C   UNL     1      42.512 -13.164   2.974  1.00  0.00     0.008 A 
HETATM   23  C   UNL     1      43.363 -14.126   3.535  1.00  0.00     0.125 A 
HETATM   24  F   UNL     1      44.060 -14.949   2.742  1.00  0.00    -0.205 F 
HETATM   25  C   UNL     1      43.463 -14.322   4.911  1.00  0.00     0.043 A 
HETATM   26  C   UNL     1      42.663 -13.583   5.775  1.00  0.00     0.003 A 
HETATM   27  C   UNL     1      41.780 -12.641   5.257  1.00  0.00     0.001 A 
HETATM   28  C   UNL     1      41.708 -12.430   3.875  1.00  0.00     0.013 A 
ENDBRANCH   7  22
BRANCH  10  29
HETATM   29  C   UNL     1      40.033 -14.399   1.536  1.00  0.00     0.294 C 
HETATM   30  O   UNL     1      38.975 -13.868   1.224  1.00  0.00    -0.259 OA
BRANCH  29  31
HETATM   31  O   UNL     1      40.242 -15.362   2.438  1.00  0.00    -0.313 OA
BRANCH  31  32
HETATM   32  C   UNL     1      40.239 -16.710   1.948  1.00  0.00     0.217 C 
BRANCH  32  33
HETATM   33  C   UNL     1      41.603 -17.262   2.242  1.00  0.00    -0.034 A 
HETATM   34  C   UNL     1      42.500 -17.515   1.196  1.00  0.00     0.009 A 
HETATM   35  C   UNL     1      43.741 -18.097   1.458  1.00  0.00     0.001 A 
HETATM   36  C   UNL     1      44.090 -18.434   2.764  1.00  0.00     0.000 A 
HETATM   37  C   UNL     1      43.205 -18.186   3.811  1.00  0.00     0.001 A 
HETATM   38  C   UNL     1      41.964 -17.605   3.553  1.00  0.00     0.009 A 
ENDBRANCH  32  33
ENDBRANCH  31  32
ENDBRANCH  29  31
ENDBRANCH  10  29
TORSDOF 10
ENDMDL
