MODEL 1
REMARK VINA RESULT:      -8.7      0.000      0.000
REMARK  7 active torsions:
REMARK  status: ('A' for Active; 'I' for Inactive)
REMARK    1  A    between atoms: C_4  and  C_5 
REMARK    2  A    between atoms: C_10  and  C_11 
REMARK       I    between atoms: C_11  and  N_12 
REMARK    3  A    between atoms: N_12  and  C_13 
REMARK    4  A    between atoms: C_13  and  C_14 
REMARK    5  A    between atoms: C_14  and  C_15 
REMARK    6  A    between atoms: C_15  and  N_16 
REMARK    7  A    between atoms: C_26  and  C_27 
ROOT
HETATM    1  C   UNL     1      43.160 -18.527   4.607  1.00  0.00     0.125 C 
HETATM    2  N   UNL     1      42.583 -17.355   3.938  1.00  0.00    -0.365 N 
HETATM    3  C   UNL     1      42.516 -16.155   4.562  1.00  0.00     0.141 A 
HETATM    4  N   UNL     1      43.193 -15.928   5.729  1.00  0.00    -0.238 N 
HETATM    5  N   UNL     1      43.097 -14.663   6.182  1.00  0.00    -0.163 NA
HETATM    6  C   UNL     1      42.247 -14.071   5.308  1.00  0.00     0.165 A 
HETATM    7  C   UNL     1      41.881 -14.973   4.278  1.00  0.00     0.092 A 
HETATM    8 BR   UNL     1      40.773 -14.617   2.811  1.00  0.00    -0.044 Br
HETATM    9  C   UNL     1      43.967 -16.937   6.431  1.00  0.00     0.221 C 
HETATM   10  C   UNL     1      44.359 -18.069   5.465  1.00  0.00     0.067 C 
HETATM   11  H   UNL     1      41.922 -17.582   3.192  1.00  0.00     0.162 HD
ENDROOT
BRANCH   6  12
HETATM   12  C   UNL     1      41.846 -12.674   5.506  1.00  0.00     0.273 C 
HETATM   13  N   UNL     1      41.406 -12.397   6.786  1.00  0.00    -0.355 N 
HETATM   14  H   UNL     1      41.329 -13.217   7.392  1.00  0.00     0.162 HD
HETATM   15  O   UNL     1      41.905 -11.787   4.652  1.00  0.00    -0.266 OA
BRANCH  13  16
HETATM   16  C   UNL     1      40.756 -11.161   7.150  1.00  0.00     0.124 C 
BRANCH  16  17
HETATM   17  C   UNL     1      41.655 -10.192   7.918  1.00  0.00     0.047 C 
BRANCH  17  18
HETATM   18  C   UNL     1      41.842 -10.448   9.414  1.00  0.00     0.236 C 
BRANCH  18  19
HETATM   19  N   UNL     1      42.878 -11.489   9.738  1.00  0.00    -0.067 N 
HETATM   20  H   UNL     1      42.427 -12.418   9.591  1.00  0.00     0.280 HD
HETATM   21  C   UNL     1      44.146 -11.423   8.909  1.00  0.00     0.261 C 
HETATM   22  C   UNL     1      45.105 -12.542   9.331  1.00  0.00     0.195 C 
HETATM   23  O   UNL     1      45.406 -12.463  10.728  1.00  0.00    -0.388 OA
HETATM   24  C   UNL     1      44.224 -12.609  11.525  1.00  0.00     0.195 C 
HETATM   25  C   UNL     1      43.227 -11.485  11.226  1.00  0.00     0.261 C 
ENDBRANCH  18  19
ENDBRANCH  17  18
ENDBRANCH  16  17
ENDBRANCH  13  16
ENDBRANCH   6  12
BRANCH   9  26
HETATM   26  C   UNL     1      43.182 -17.442   7.622  1.00  0.00     0.409 C 
HETATM   27  F   UNL     1      41.847 -17.375   7.435  1.00  0.00    -0.169 F 
HETATM   28  F   UNL     1      43.485 -18.740   7.866  1.00  0.00    -0.169 F 
HETATM   29  F   UNL     1      43.472 -16.757   8.751  1.00  0.00    -0.169 F 
ENDBRANCH   9  26
BRANCH   1  30
HETATM   30  C   UNL     1      43.602 -19.596   3.638  1.00  0.00     0.005 A 
HETATM   31  S   UNL     1      44.769 -20.759   4.120  1.00  0.00    -0.104 SA
HETATM   32  C   UNL     1      44.732 -21.526   2.594  1.00  0.00     0.050 A 
HETATM   33  C   UNL     1      43.853 -20.915   1.728  1.00  0.00     0.008 A 
HETATM   34  C   UNL     1      43.201 -19.801   2.330  1.00  0.00     0.017 A 
ENDBRANCH   1  30
TORSDOF 7
ENDMDL
MODEL 2
REMARK VINA RESULT:      -8.3      2.936      3.665
REMARK  7 active torsions:
REMARK  status: ('A' for Active; 'I' for Inactive)
REMARK    1  A    between atoms: C_4  and  C_5 
REMARK    2  A    between atoms: C_10  and  C_11 
REMARK       I    between atoms: C_11  and  N_12 
REMARK    3  A    between atoms: N_12  and  C_13 
REMARK    4  A    between atoms: C_13  and  C_14 
REMARK    5  A    between atoms: C_14  and  C_15 
REMARK    6  A    between atoms: C_15  and  N_16 
REMARK    7  A    between atoms: C_26  and  C_27 
ROOT
HETATM    1  C   UNL     1      44.099 -19.034   3.481  1.00  0.00     0.125 C 
HETATM    2  N   UNL     1      43.919 -18.170   4.654  1.00  0.00    -0.365 N 
HETATM    3  C   UNL     1      43.226 -17.009   4.568  1.00  0.00     0.141 A 
HETATM    4  N   UNL     1      42.470 -16.718   3.465  1.00  0.00    -0.238 N 
HETATM    5  N   UNL     1      41.774 -15.569   3.564  1.00  0.00    -0.163 NA
HETATM    6  C   UNL     1      42.168 -15.055   4.754  1.00  0.00     0.165 A 
HETATM    7  C   UNL     1      43.061 -15.939   5.410  1.00  0.00     0.092 A 
HETATM    8 BR   UNL     1      43.842 -15.706   7.096  1.00  0.00    -0.044 Br
HETATM    9  C   UNL     1      42.394 -17.562   2.285  1.00  0.00     0.221 C 
HETATM   10  C   UNL     1      42.807 -19.002   2.637  1.00  0.00     0.067 C 
HETATM   11  H   UNL     1      44.634 -18.287   5.374  1.00  0.00     0.162 HD
ENDROOT
BRANCH   6  12
HETATM   12  C   UNL     1      41.656 -13.753   5.197  1.00  0.00     0.273 C 
HETATM   13  N   UNL     1      40.303 -13.752   5.475  1.00  0.00    -0.355 N 
HETATM   14  H   UNL     1      39.826 -14.627   5.245  1.00  0.00     0.162 HD
HETATM   15  O   UNL     1      42.334 -12.735   5.349  1.00  0.00    -0.266 OA
BRANCH  13  16
HETATM   16  C   UNL     1      39.543 -12.548   5.705  1.00  0.00     0.124 C 
BRANCH  16  17
HETATM   17  C   UNL     1      39.402 -12.179   7.182  1.00  0.00     0.047 C 
BRANCH  17  18
HETATM   18  C   UNL     1      40.195 -10.969   7.679  1.00  0.00     0.236 C 
BRANCH  18  19
HETATM   19  N   UNL     1      40.941 -11.205   8.964  1.00  0.00    -0.067 N 
HETATM   20  H   UNL     1      41.049 -12.237   9.064  1.00  0.00     0.280 HD
HETATM   21  C   UNL     1      42.310 -10.558   9.048  1.00  0.00     0.261 C 
HETATM   22  C   UNL     1      42.960 -10.888  10.397  1.00  0.00     0.195 C 
HETATM   23  O   UNL     1      42.132 -10.467  11.486  1.00  0.00    -0.388 OA
HETATM   24  C   UNL     1      40.865 -11.137  11.464  1.00  0.00     0.195 C 
HETATM   25  C   UNL     1      40.100 -10.807  10.177  1.00  0.00     0.261 C 
ENDBRANCH  18  19
ENDBRANCH  17  18
ENDBRANCH  16  17
ENDBRANCH  13  16
ENDBRANCH   6  12
BRANCH   9  26
HETATM   26  C   UNL     1      43.245 -16.971   1.182  1.00  0.00     0.409 C 
HETATM   27  F   UNL     1      42.582 -16.059   0.440  1.00  0.00    -0.169 F 
HETATM   28  F   UNL     1      44.325 -16.345   1.710  1.00  0.00    -0.169 F 
HETATM   29  F   UNL     1      43.718 -17.918   0.341  1.00  0.00    -0.169 F 
ENDBRANCH   9  26
BRANCH   1  30
HETATM   30  C   UNL     1      44.436 -20.458   3.850  1.00  0.00     0.005 A 
HETATM   31  S   UNL     1      44.386 -21.687   2.652  1.00  0.00    -0.104 SA
HETATM   32  C   UNL     1      44.839 -22.892   3.775  1.00  0.00     0.050 A 
HETATM   33  C   UNL     1      45.025 -22.379   5.039  1.00  0.00     0.008 A 
HETATM   34  C   UNL     1      44.792 -20.974   5.082  1.00  0.00     0.017 A 
ENDBRANCH   1  30
TORSDOF 7
ENDMDL
MODEL 3
REMARK VINA RESULT:      -8.0      3.864      5.855
REMARK  7 active torsions:
REMARK  status: ('A' for Active; 'I' for Inactive)
REMARK    1  A    between atoms: C_4  and  C_5 
REMARK    2  A    between atoms: C_10  and  C_11 
REMARK       I    between atoms: C_11  and  N_12 
REMARK    3  A    between atoms: N_12  and  C_13 
REMARK    4  A    between atoms: C_13  and  C_14 
REMARK    5  A    between atoms: C_14  and  C_15 
REMARK    6  A    between atoms: C_15  and  N_16 
REMARK    7  A    between atoms: C_26  and  C_27 
ROOT
HETATM    1  C   UNL     1      44.118 -19.038   3.521  1.00  0.00     0.125 C 
HETATM    2  N   UNL     1      43.946 -18.201   4.714  1.00  0.00    -0.365 N 
HETATM    3  C   UNL     1      43.265 -17.032   4.657  1.00  0.00     0.141 A 
HETATM    4  N   UNL     1      42.513 -16.706   3.561  1.00  0.00    -0.238 N 
HETATM    5  N   UNL     1      41.829 -15.552   3.688  1.00  0.00    -0.163 NA
HETATM    6  C   UNL     1      42.228 -15.072   4.890  1.00  0.00     0.165 A 
HETATM    7  C   UNL     1      43.110 -15.981   5.524  1.00  0.00     0.092 A 
HETATM    8 BR   UNL     1      43.892 -15.797   7.217  1.00  0.00    -0.044 Br
HETATM    9  C   UNL     1      42.429 -17.520   2.360  1.00  0.00     0.221 C 
HETATM   10  C   UNL     1      42.827 -18.972   2.677  1.00  0.00     0.067 C 
HETATM   11  H   UNL     1      44.659 -18.344   5.432  1.00  0.00     0.162 HD
ENDROOT
BRANCH   6  12
HETATM   12  C   UNL     1      41.729 -13.776   5.365  1.00  0.00     0.273 C 
HETATM   13  N   UNL     1      40.351 -13.701   5.432  1.00  0.00    -0.355 N 
HETATM   14  H   UNL     1      39.866 -14.518   5.056  1.00  0.00     0.162 HD
HETATM   15  O   UNL     1      42.432 -12.824   5.708  1.00  0.00    -0.266 OA
BRANCH  13  16
HETATM   16  C   UNL     1      39.635 -12.468   5.651  1.00  0.00     0.124 C 
BRANCH  16  17
HETATM   17  C   UNL     1      38.983 -11.898   4.391  1.00  0.00     0.047 C 
BRANCH  17  18
HETATM   18  C   UNL     1      39.915 -11.445   3.266  1.00  0.00     0.236 C 
BRANCH  18  19
HETATM   19  N   UNL     1      40.213 -12.508   2.245  1.00  0.00    -0.067 N 
HETATM   20  H   UNL     1      41.078 -12.996   2.563  1.00  0.00     0.280 HD
HETATM   21  C   UNL     1      39.117 -13.537   2.039  1.00  0.00     0.261 C 
HETATM   22  C   UNL     1      39.556 -14.563   0.988  1.00  0.00     0.195 C 
HETATM   23  O   UNL     1      39.891 -13.924  -0.248  1.00  0.00    -0.388 OA
HETATM   24  C   UNL     1      40.983 -13.010  -0.082  1.00  0.00     0.195 C 
HETATM   25  C   UNL     1      40.613 -11.896   0.902  1.00  0.00     0.261 C 
ENDBRANCH  18  19
ENDBRANCH  17  18
ENDBRANCH  16  17
ENDBRANCH  13  16
ENDBRANCH   6  12
BRANCH   9  26
HETATM   26  C   UNL     1      43.288 -16.911   1.273  1.00  0.00     0.409 C 
HETATM   27  F   UNL     1      43.738 -17.825   0.388  1.00  0.00    -0.169 F 
HETATM   28  F   UNL     1      42.577 -15.995   0.573  1.00  0.00    -0.169 F 
HETATM   29  F   UNL     1      44.363 -16.264   1.776  1.00  0.00    -0.169 F 
ENDBRANCH   9  26
BRANCH   1  30
HETATM   30  C   UNL     1      44.439 -20.475   3.855  1.00  0.00     0.005 A 
HETATM   31  S   UNL     1      44.369 -21.674   2.629  1.00  0.00    -0.104 SA
HETATM   32  C   UNL     1      44.813 -22.911   3.721  1.00  0.00     0.050 A 
HETATM   33  C   UNL     1      45.011 -22.429   4.996  1.00  0.00     0.008 A 
HETATM   34  C   UNL     1      44.795 -21.024   5.073  1.00  0.00     0.017 A 
ENDBRANCH   1  30
TORSDOF 7
ENDMDL
MODEL 4
REMARK VINA RESULT:      -8.0      1.693      2.201
REMARK  7 active torsions:
REMARK  status: ('A' for Active; 'I' for Inactive)
REMARK    1  A    between atoms: C_4  and  C_5 
REMARK    2  A    between atoms: C_10  and  C_11 
REMARK       I    between atoms: C_11  and  N_12 
REMARK    3  A    between atoms: N_12  and  C_13 
REMARK    4  A    between atoms: C_13  and  C_14 
REMARK    5  A    between atoms: C_14  and  C_15 
REMARK    6  A    between atoms: C_15  and  N_16 
REMARK    7  A    between atoms: C_26  and  C_27 
ROOT
HETATM    1  C   UNL     1      43.150 -18.431   4.635  1.00  0.00     0.125 C 
HETATM    2  N   UNL     1      42.578 -17.256   3.967  1.00  0.00    -0.365 N 
HETATM    3  C   UNL     1      42.514 -16.057   4.594  1.00  0.00     0.141 A 
HETATM    4  N   UNL     1      43.189 -15.834   5.763  1.00  0.00    -0.238 N 
HETATM    5  N   UNL     1      43.097 -14.570   6.219  1.00  0.00    -0.163 NA
HETATM    6  C   UNL     1      42.251 -13.973   5.344  1.00  0.00     0.165 A 
HETATM    7  C   UNL     1      41.884 -14.872   4.311  1.00  0.00     0.092 A 
HETATM    8 BR   UNL     1      40.780 -14.509   2.842  1.00  0.00    -0.044 Br
HETATM    9  C   UNL     1      43.959 -16.848   6.464  1.00  0.00     0.221 C 
HETATM   10  C   UNL     1      44.349 -17.979   5.496  1.00  0.00     0.067 C 
HETATM   11  H   UNL     1      41.918 -17.479   3.220  1.00  0.00     0.162 HD
ENDROOT
BRANCH   6  12
HETATM   12  C   UNL     1      41.855 -12.575   5.544  1.00  0.00     0.273 C 
HETATM   13  N   UNL     1      41.443 -12.292   6.832  1.00  0.00    -0.355 N 
HETATM   14  H   UNL     1      41.379 -13.109   7.443  1.00  0.00     0.162 HD
HETATM   15  O   UNL     1      41.895 -11.692   4.684  1.00  0.00    -0.266 OA
BRANCH  13  16
HETATM   16  C   UNL     1      40.801 -11.055   7.204  1.00  0.00     0.124 C 
BRANCH  16  17
HETATM   17  C   UNL     1      41.733 -10.056   7.891  1.00  0.00     0.047 C 
BRANCH  17  18
HETATM   18  C   UNL     1      42.347 -10.478   9.227  1.00  0.00     0.236 C 
BRANCH  18  19
HETATM   19  N   UNL     1      41.600  -9.980  10.434  1.00  0.00    -0.067 N 
HETATM   20  H   UNL     1      42.314  -9.764  11.162  1.00  0.00     0.280 HD
HETATM   21  C   UNL     1      40.744  -8.748  10.205  1.00  0.00     0.261 C 
HETATM   22  C   UNL     1      40.053  -8.344  11.513  1.00  0.00     0.195 C 
HETATM   23  O   UNL     1      39.266  -9.420  12.034  1.00  0.00    -0.388 OA
HETATM   24  C   UNL     1      40.079 -10.562  12.333  1.00  0.00     0.195 C 
HETATM   25  C   UNL     1      40.759 -11.089  11.066  1.00  0.00     0.261 C 
ENDBRANCH  18  19
ENDBRANCH  17  18
ENDBRANCH  16  17
ENDBRANCH  13  16
ENDBRANCH   6  12
BRANCH   9  26
HETATM   26  C   UNL     1      43.169 -17.352   7.652  1.00  0.00     0.409 C 
HETATM   27  F   UNL     1      41.835 -17.274   7.466  1.00  0.00    -0.169 F 
HETATM   28  F   UNL     1      43.462 -18.654   7.891  1.00  0.00    -0.169 F 
HETATM   29  F   UNL     1      43.464 -16.675   8.785  1.00  0.00    -0.169 F 
ENDBRANCH   9  26
BRANCH   1  30
HETATM   30  C   UNL     1      43.590 -19.500   3.665  1.00  0.00     0.005 A 
HETATM   31  S   UNL     1      44.759 -20.661   4.143  1.00  0.00    -0.104 SA
HETATM   32  C   UNL     1      44.719 -21.429   2.617  1.00  0.00     0.050 A 
HETATM   33  C   UNL     1      43.837 -20.819   1.754  1.00  0.00     0.008 A 
HETATM   34  C   UNL     1      43.185 -19.705   2.358  1.00  0.00     0.017 A 
ENDBRANCH   1  30
TORSDOF 7
ENDMDL
MODEL 5
REMARK VINA RESULT:      -7.8      5.339      8.405
REMARK  7 active torsions:
REMARK  status: ('A' for Active; 'I' for Inactive)
REMARK    1  A    between atoms: C_4  and  C_5 
REMARK    2  A    between atoms: C_10  and  C_11 
REMARK       I    between atoms: C_11  and  N_12 
REMARK    3  A    between atoms: N_12  and  C_13 
REMARK    4  A    between atoms: C_13  and  C_14 
REMARK    5  A    between atoms: C_14  and  C_15 
REMARK    6  A    between atoms: C_15  and  N_16 
REMARK    7  A    between atoms: C_26  and  C_27 
ROOT
HETATM    1  C   UNL     1      42.900 -16.866   4.803  1.00  0.00     0.125 C 
HETATM    2  N   UNL     1      41.843 -15.849   4.851  1.00  0.00    -0.365 N 
HETATM    3  C   UNL     1      41.086 -15.574   3.761  1.00  0.00     0.141 A 
HETATM    4  N   UNL     1      41.110 -16.388   2.662  1.00  0.00    -0.238 N 
HETATM    5  N   UNL     1      40.242 -16.032   1.695  1.00  0.00    -0.163 NA
HETATM    6  C   UNL     1      39.695 -14.883   2.162  1.00  0.00     0.165 A 
HETATM    7  C   UNL     1      40.191 -14.582   3.454  1.00  0.00     0.092 A 
HETATM    8 BR   UNL     1      39.704 -13.134   4.538  1.00  0.00    -0.044 Br
HETATM    9  C   UNL     1      41.972 -17.550   2.528  1.00  0.00     0.221 C 
HETATM   10  C   UNL     1      42.424 -18.036   3.916  1.00  0.00     0.067 C 
HETATM   11  H   UNL     1      41.977 -15.139   5.573  1.00  0.00     0.162 HD
ENDROOT
BRANCH   6  12
HETATM   12  C   UNL     1      38.721 -14.149   1.345  1.00  0.00     0.273 C 
HETATM   13  N   UNL     1      39.201 -12.954   0.847  1.00  0.00    -0.355 N 
HETATM   14  H   UNL     1      40.129 -12.697   1.189  1.00  0.00     0.162 HD
HETATM   15  O   UNL     1      37.582 -14.535   1.077  1.00  0.00    -0.266 OA
BRANCH  13  16
HETATM   16  C   UNL     1      38.362 -11.966   0.213  1.00  0.00     0.124 C 
BRANCH  16  17
HETATM   17  C   UNL     1      38.547 -11.877  -1.302  1.00  0.00     0.047 C 
BRANCH  17  18
HETATM   18  C   UNL     1      37.690 -12.804  -2.167  1.00  0.00     0.236 C 
BRANCH  18  19
HETATM   19  N   UNL     1      38.364 -14.095  -2.541  1.00  0.00    -0.067 N 
HETATM   20  H   UNL     1      38.314 -14.715  -1.704  1.00  0.00     0.280 HD
HETATM   21  C   UNL     1      37.758 -14.823  -3.727  1.00  0.00     0.261 C 
HETATM   22  C   UNL     1      38.528 -16.122  -3.990  1.00  0.00     0.195 C 
HETATM   23  O   UNL     1      39.918 -15.862  -4.210  1.00  0.00    -0.388 OA
HETATM   24  C   UNL     1      40.521 -15.250  -3.063  1.00  0.00     0.195 C 
HETATM   25  C   UNL     1      39.864 -13.899  -2.762  1.00  0.00     0.261 C 
ENDBRANCH  18  19
ENDBRANCH  17  18
ENDBRANCH  16  17
ENDBRANCH  13  16
ENDBRANCH   6  12
BRANCH   9  26
HETATM   26  C   UNL     1      43.141 -17.213   1.627  1.00  0.00     0.409 C 
HETATM   27  F   UNL     1      43.507 -15.916   1.707  1.00  0.00    -0.169 F 
HETATM   28  F   UNL     1      44.223 -17.953   1.968  1.00  0.00    -0.169 F 
HETATM   29  F   UNL     1      42.878 -17.485   0.329  1.00  0.00    -0.169 F 
ENDBRANCH   9  26
BRANCH   1  30
HETATM   30  C   UNL     1      43.280 -17.380   6.171  1.00  0.00     0.005 A 
HETATM   31  S   UNL     1      43.864 -18.984   6.350  1.00  0.00    -0.104 SA
HETATM   32  C   UNL     1      44.035 -18.803   8.040  1.00  0.00     0.050 A 
HETATM   33  C   UNL     1      43.656 -17.551   8.468  1.00  0.00     0.008 A 
HETATM   34  C   UNL     1      43.219 -16.730   7.390  1.00  0.00     0.017 A 
ENDBRANCH   1  30
TORSDOF 7
ENDMDL
MODEL 6
REMARK VINA RESULT:      -7.7      3.007      3.592
REMARK  7 active torsions:
REMARK  status: ('A' for Active; 'I' for Inactive)
REMARK    1  A    between atoms: C_4  and  C_5 
REMARK    2  A    between atoms: C_10  and  C_11 
REMARK       I    between atoms: C_11  and  N_12 
REMARK    3  A    between atoms: N_12  and  C_13 
REMARK    4  A    between atoms: C_13  and  C_14 
REMARK    5  A    between atoms: C_14  and  C_15 
REMARK    6  A    between atoms: C_15  and  N_16 
REMARK    7  A    between atoms: C_26  and  C_27 
ROOT
HETATM    1  C   UNL     1      43.123 -17.428   3.264  1.00  0.00     0.125 C 
HETATM    2  N   UNL     1      43.415 -16.546   4.400  1.00  0.00    -0.365 N 
HETATM    3  C   UNL     1      42.627 -15.479   4.678  1.00  0.00     0.141 A 
HETATM    4  N   UNL     1      41.410 -15.324   4.073  1.00  0.00    -0.238 N 
HETATM    5  N   UNL     1      40.708 -14.263   4.514  1.00  0.00    -0.163 NA
HETATM    6  C   UNL     1      41.552 -13.659   5.385  1.00  0.00     0.165 A 
HETATM    7  C   UNL     1      42.749 -14.404   5.519  1.00  0.00     0.092 A 
HETATM    8 BR   UNL     1      44.200 -14.013   6.638  1.00  0.00    -0.044 Br
HETATM    9  C   UNL     1      40.888 -16.218   3.052  1.00  0.00     0.221 C 
HETATM   10  C   UNL     1      41.593 -17.583   3.135  1.00  0.00     0.067 C 
HETATM   11  H   UNL     1      44.394 -16.549   4.691  1.00  0.00     0.162 HD
ENDROOT
BRANCH   6  12
HETATM   12  C   UNL     1      41.154 -12.410   6.046  1.00  0.00     0.273 C 
HETATM   13  N   UNL     1      40.161 -12.573   6.993  1.00  0.00    -0.355 N 
HETATM   14  H   UNL     1      39.774 -13.518   7.038  1.00  0.00     0.162 HD
HETATM   15  O   UNL     1      41.648 -11.301   5.831  1.00  0.00    -0.266 OA
BRANCH  13  16
HETATM   16  C   UNL     1      39.460 -11.469   7.602  1.00  0.00     0.124 C 
BRANCH  16  17
HETATM   17  C   UNL     1      39.838 -11.227   9.063  1.00  0.00     0.047 C 
BRANCH  17  18
HETATM   18  C   UNL     1      40.856 -10.121   9.347  1.00  0.00     0.236 C 
BRANCH  18  19
HETATM   19  N   UNL     1      41.396 -10.125  10.751  1.00  0.00    -0.067 N 
HETATM   20  H   UNL     1      41.225  -9.173  11.142  1.00  0.00     0.280 HD
HETATM   21  C   UNL     1      40.781 -11.155  11.681  1.00  0.00     0.261 C 
HETATM   22  C   UNL     1      41.410 -11.040  13.074  1.00  0.00     0.195 C 
HETATM   23  O   UNL     1      42.831 -11.195  13.013  1.00  0.00    -0.388 OA
HETATM   24  C   UNL     1      43.432 -10.175  12.205  1.00  0.00     0.195 C 
HETATM   25  C   UNL     1      42.919 -10.255  10.763  1.00  0.00     0.261 C 
ENDBRANCH  18  19
ENDBRANCH  17  18
ENDBRANCH  16  17
ENDBRANCH  13  16
ENDBRANCH   6  12
BRANCH   9  26
HETATM   26  C   UNL     1      41.036 -15.575   1.690  1.00  0.00     0.409 C 
HETATM   27  F   UNL     1      39.977 -14.808   1.355  1.00  0.00    -0.169 F 
HETATM   28  F   UNL     1      42.130 -14.775   1.667  1.00  0.00    -0.169 F 
HETATM   29  F   UNL     1      41.205 -16.490   0.710  1.00  0.00    -0.169 F 
ENDBRANCH   9  26
BRANCH   1  30
HETATM   30  C   UNL     1      43.767 -18.787   3.398  1.00  0.00     0.005 A 
HETATM   31  S   UNL     1      44.407 -19.285   4.911  1.00  0.00    -0.104 SA
HETATM   32  C   UNL     1      44.916 -20.787   4.276  1.00  0.00     0.050 A 
HETATM   33  C   UNL     1      44.611 -20.915   2.939  1.00  0.00     0.008 A 
HETATM   34  C   UNL     1      43.948 -19.760   2.432  1.00  0.00     0.017 A 
ENDBRANCH   1  30
TORSDOF 7
ENDMDL
MODEL 7
REMARK VINA RESULT:      -7.6      5.073      7.969
REMARK  7 active torsions:
REMARK  status: ('A' for Active; 'I' for Inactive)
REMARK    1  A    between atoms: C_4  and  C_5 
REMARK    2  A    between atoms: C_10  and  C_11 
REMARK       I    between atoms: C_11  and  N_12 
REMARK    3  A    between atoms: N_12  and  C_13 
REMARK    4  A    between atoms: C_13  and  C_14 
REMARK    5  A    between atoms: C_14  and  C_15 
REMARK    6  A    between atoms: C_15  and  N_16 
REMARK    7  A    between atoms: C_26  and  C_27 
ROOT
HETATM    1  C   UNL     1      43.412 -16.985   4.638  1.00  0.00     0.125 C 
HETATM    2  N   UNL     1      42.635 -15.752   4.460  1.00  0.00    -0.365 N 
HETATM    3  C   UNL     1      42.061 -15.453   3.271  1.00  0.00     0.141 A 
HETATM    4  N   UNL     1      41.974 -16.386   2.274  1.00  0.00    -0.238 N 
HETATM    5  N   UNL     1      41.302 -15.965   1.184  1.00  0.00    -0.163 NA
HETATM    6  C   UNL     1      41.016 -14.670   1.463  1.00  0.00     0.165 A 
HETATM    7  C   UNL     1      41.463 -14.328   2.763  1.00  0.00     0.092 A 
HETATM    8 BR   UNL     1      41.258 -12.678   3.626  1.00  0.00    -0.044 Br
HETATM    9  C   UNL     1      42.535 -17.724   2.360  1.00  0.00     0.221 C 
HETATM   10  C   UNL     1      42.738 -18.117   3.834  1.00  0.00     0.067 C 
HETATM   11  H   UNL     1      42.880 -15.006   5.113  1.00  0.00     0.162 HD
ENDROOT
BRANCH   6  12
HETATM   12  C   UNL     1      40.322 -13.843   0.470  1.00  0.00     0.273 C 
HETATM   13  N   UNL     1      39.411 -14.542  -0.299  1.00  0.00    -0.355 N 
HETATM   14  H   UNL     1      39.413 -15.552  -0.138  1.00  0.00     0.162 HD
HETATM   15  O   UNL     1      40.480 -12.630   0.316  1.00  0.00    -0.266 OA
BRANCH  13  16
HETATM   16  C   UNL     1      38.782 -13.994  -1.475  1.00  0.00     0.124 C 
BRANCH  16  17
HETATM   17  C   UNL     1      39.429 -14.439  -2.787  1.00  0.00     0.047 C 
BRANCH  17  18
HETATM   18  C   UNL     1      40.211 -13.386  -3.574  1.00  0.00     0.236 C 
BRANCH  18  19
HETATM   19  N   UNL     1      40.973 -12.415  -2.715  1.00  0.00    -0.067 N 
HETATM   20  H   UNL     1      40.564 -12.474  -1.758  1.00  0.00     0.280 HD
HETATM   21  C   UNL     1      42.468 -12.661  -2.626  1.00  0.00     0.261 C 
HETATM   22  C   UNL     1      43.115 -11.612  -1.715  1.00  0.00     0.195 C 
HETATM   23  O   UNL     1      42.846 -10.286  -2.182  1.00  0.00    -0.388 OA
HETATM   24  C   UNL     1      41.439 -10.013  -2.190  1.00  0.00     0.195 C 
HETATM   25  C   UNL     1      40.707 -10.970  -3.137  1.00  0.00     0.261 C 
ENDBRANCH  18  19
ENDBRANCH  17  18
ENDBRANCH  16  17
ENDBRANCH  13  16
ENDBRANCH   6  12
BRANCH   9  26
HETATM   26  C   UNL     1      43.820 -17.788   1.563  1.00  0.00     0.409 C 
HETATM   27  F   UNL     1      44.636 -18.785   1.966  1.00  0.00    -0.169 F 
HETATM   28  F   UNL     1      43.548 -18.001   0.253  1.00  0.00    -0.169 F 
HETATM   29  F   UNL     1      44.520 -16.633   1.631  1.00  0.00    -0.169 F 
ENDBRANCH   9  26
BRANCH   1  30
HETATM   30  C   UNL     1      43.541 -17.392   6.086  1.00  0.00     0.005 A 
HETATM   31  S   UNL     1      44.117 -18.958   6.487  1.00  0.00    -0.104 SA
HETATM   32  C   UNL     1      43.966 -18.657   8.162  1.00  0.00     0.050 A 
HETATM   33  C   UNL     1      43.485 -17.393   8.420  1.00  0.00     0.008 A 
HETATM   34  C   UNL     1      43.239 -16.663   7.222  1.00  0.00     0.017 A 
ENDBRANCH   1  30
TORSDOF 7
ENDMDL
MODEL 8
REMARK VINA RESULT:      -7.6      1.947      2.669
REMARK  7 active torsions:
REMARK  status: ('A' for Active; 'I' for Inactive)
REMARK    1  A    between atoms: C_4  and  C_5 
REMARK    2  A    between atoms: C_10  and  C_11 
REMARK       I    between atoms: C_11  and  N_12 
REMARK    3  A    between atoms: N_12  and  C_13 
REMARK    4  A    between atoms: C_13  and  C_14 
REMARK    5  A    between atoms: C_14  and  C_15 
REMARK    6  A    between atoms: C_15  and  N_16 
REMARK    7  A    between atoms: C_26  and  C_27 
ROOT
HETATM    1  C   UNL     1      43.752 -19.352   4.777  1.00  0.00     0.125 C 
HETATM    2  N   UNL     1      43.421 -18.012   4.278  1.00  0.00    -0.365 N 
HETATM    3  C   UNL     1      43.579 -16.916   5.057  1.00  0.00     0.141 A 
HETATM    4  N   UNL     1      44.273 -16.981   6.234  1.00  0.00    -0.238 N 
HETATM    5  N   UNL     1      44.418 -15.793   6.853  1.00  0.00    -0.163 NA
HETATM    6  C   UNL     1      43.710 -14.938   6.077  1.00  0.00     0.165 A 
HETATM    7  C   UNL     1      43.189 -15.606   4.942  1.00  0.00     0.092 A 
HETATM    8 BR   UNL     1      42.188 -14.851   3.550  1.00  0.00    -0.044 Br
HETATM    9  C   UNL     1      44.830 -18.206   6.785  1.00  0.00     0.221 C 
HETATM   10  C   UNL     1      45.007 -19.253   5.671  1.00  0.00     0.067 C 
HETATM   11  H   UNL     1      42.737 -18.006   3.518  1.00  0.00     0.162 HD
ENDROOT
BRANCH   6  12
HETATM   12  C   UNL     1      43.585 -13.528   6.465  1.00  0.00     0.273 C 
HETATM   13  N   UNL     1      44.077 -13.251   7.725  1.00  0.00    -0.355 N 
HETATM   14  H   UNL     1      44.374 -14.076   8.252  1.00  0.00     0.162 HD
HETATM   15  O   UNL     1      43.117 -12.633   5.758  1.00  0.00    -0.266 OA
BRANCH  13  16
HETATM   16  C   UNL     1      43.861 -11.996   8.403  1.00  0.00     0.124 C 
BRANCH  16  17
HETATM   17  C   UNL     1      44.789 -11.769   9.596  1.00  0.00     0.047 C 
BRANCH  17  18
HETATM   18  C   UNL     1      44.157 -11.792  10.988  1.00  0.00     0.236 C 
BRANCH  18  19
HETATM   19  N   UNL     1      43.189 -10.670  11.246  1.00  0.00    -0.067 N 
HETATM   20  H   UNL     1      43.387  -9.933  10.534  1.00  0.00     0.280 HD
HETATM   21  C   UNL     1      41.722 -11.047  11.167  1.00  0.00     0.261 C 
HETATM   22  C   UNL     1      40.852  -9.813  11.436  1.00  0.00     0.195 C 
HETATM   23  O   UNL     1      41.160  -9.231  12.707  1.00  0.00    -0.388 OA
HETATM   24  C   UNL     1      42.524  -8.794  12.762  1.00  0.00     0.195 C 
HETATM   25  C   UNL     1      43.479  -9.978  12.578  1.00  0.00     0.261 C 
ENDBRANCH  18  19
ENDBRANCH  17  18
ENDBRANCH  16  17
ENDBRANCH  13  16
ENDBRANCH   6  12
BRANCH   9  26
HETATM   26  C   UNL     1      43.947 -18.703   7.909  1.00  0.00     0.409 C 
HETATM   27  F   UNL     1      44.437 -18.403   9.131  1.00  0.00    -0.169 F 
HETATM   28  F   UNL     1      42.718 -18.139   7.824  1.00  0.00    -0.169 F 
HETATM   29  F   UNL     1      43.764 -20.041   7.859  1.00  0.00    -0.169 F 
ENDBRANCH   9  26
BRANCH   1  30
HETATM   30  C   UNL     1      43.990 -20.348   3.668  1.00  0.00     0.005 A 
HETATM   31  S   UNL     1      43.481 -19.987   2.070  1.00  0.00    -0.104 SA
HETATM   32  C   UNL     1      44.052 -21.484   1.478  1.00  0.00     0.050 A 
HETATM   33  C   UNL     1      44.619 -22.251   2.471  1.00  0.00     0.008 A 
HETATM   34  C   UNL     1      44.583 -21.596   3.736  1.00  0.00     0.017 A 
ENDBRANCH   1  30
TORSDOF 7
ENDMDL
MODEL 9
REMARK VINA RESULT:      -7.4      4.736      9.027
REMARK  7 active torsions:
REMARK  status: ('A' for Active; 'I' for Inactive)
REMARK    1  A    between atoms: C_4  and  C_5 
REMARK    2  A    between atoms: C_10  and  C_11 
REMARK       I    between atoms: C_11  and  N_12 
REMARK    3  A    between atoms: N_12  and  C_13 
REMARK    4  A    between atoms: C_13  and  C_14 
REMARK    5  A    between atoms: C_14  and  C_15 
REMARK    6  A    between atoms: C_15  and  N_16 
REMARK    7  A    between atoms: C_26  and  C_27 
ROOT
HETATM    1  C   UNL     1      43.046  -9.714  12.036  1.00  0.00     0.125 C 
HETATM    2  N   UNL     1      42.100  -9.270  11.006  1.00  0.00    -0.365 N 
HETATM    3  C   UNL     1      42.099  -9.825   9.770  1.00  0.00     0.141 A 
HETATM    4  N   UNL     1      42.801 -10.970   9.511  1.00  0.00    -0.238 N 
HETATM    5  N   UNL     1      42.634 -11.446   8.262  1.00  0.00    -0.163 NA
HETATM    6  C   UNL     1      41.853 -10.514   7.664  1.00  0.00     0.165 A 
HETATM    7  C   UNL     1      41.491  -9.500   8.585  1.00  0.00     0.092 A 
HETATM    8 BR   UNL     1      40.385  -8.024   8.259  1.00  0.00    -0.044 Br
HETATM    9  C   UNL     1      43.647 -11.644  10.481  1.00  0.00     0.221 C 
HETATM   10  C   UNL     1      43.239 -11.241  11.909  1.00  0.00     0.067 C 
HETATM   11  H   UNL     1      41.751  -8.319  11.140  1.00  0.00     0.162 HD
ENDROOT
BRANCH   6  12
HETATM   12  C   UNL     1      41.491 -10.657   6.249  1.00  0.00     0.273 C 
HETATM   13  N   UNL     1      40.869 -11.854   5.952  1.00  0.00    -0.355 N 
HETATM   14  H   UNL     1      40.830 -12.513   6.733  1.00  0.00     0.162 HD
HETATM   15  O   UNL     1      41.678  -9.808   5.376  1.00  0.00    -0.266 OA
BRANCH  13  16
HETATM   16  C   UNL     1      40.629 -12.309   4.605  1.00  0.00     0.124 C 
BRANCH  16  17
HETATM   17  C   UNL     1      41.128 -13.728   4.333  1.00  0.00     0.047 C 
BRANCH  17  18
HETATM   18  C   UNL     1      40.677 -14.825   5.299  1.00  0.00     0.236 C 
BRANCH  18  19
HETATM   19  N   UNL     1      41.731 -15.253   6.282  1.00  0.00    -0.067 N 
HETATM   20  H   UNL     1      41.528 -14.757   7.176  1.00  0.00     0.280 HD
HETATM   21  C   UNL     1      41.800 -16.744   6.553  1.00  0.00     0.261 C 
HETATM   22  C   UNL     1      42.902 -17.038   7.578  1.00  0.00     0.195 C 
HETATM   23  O   UNL     1      44.168 -16.545   7.129  1.00  0.00    -0.388 OA
HETATM   24  C   UNL     1      44.139 -15.123   6.950  1.00  0.00     0.195 C 
HETATM   25  C   UNL     1      43.112 -14.732   5.882  1.00  0.00     0.261 C 
ENDBRANCH  18  19
ENDBRANCH  17  18
ENDBRANCH  16  17
ENDBRANCH  13  16
ENDBRANCH   6  12
BRANCH   9  26
HETATM   26  C   UNL     1      45.100 -11.337  10.188  1.00  0.00     0.409 C 
HETATM   27  F   UNL     1      45.274 -10.125   9.618  1.00  0.00    -0.169 F 
HETATM   28  F   UNL     1      45.821 -11.344  11.335  1.00  0.00    -0.169 F 
HETATM   29  F   UNL     1      45.661 -12.257   9.372  1.00  0.00    -0.169 F 
ENDBRANCH   9  26
BRANCH   1  30
HETATM   30  C   UNL     1      42.593  -9.370  13.435  1.00  0.00     0.005 A 
HETATM   31  S   UNL     1      42.105  -7.767  13.806  1.00  0.00    -0.104 SA
HETATM   32  C   UNL     1      41.787  -8.170  15.435  1.00  0.00     0.050 A 
HETATM   33  C   UNL     1      42.046  -9.496  15.701  1.00  0.00     0.008 A 
HETATM   34  C   UNL     1      42.512 -10.189  14.546  1.00  0.00     0.017 A 
ENDBRANCH   1  30
TORSDOF 7
ENDMDL
MODEL 10
REMARK VINA RESULT:      -7.4      5.043      7.933
REMARK  7 active torsions:
REMARK  status: ('A' for Active; 'I' for Inactive)
REMARK    1  A    between atoms: C_4  and  C_5 
REMARK    2  A    between atoms: C_10  and  C_11 
REMARK       I    between atoms: C_11  and  N_12 
REMARK    3  A    between atoms: N_12  and  C_13 
REMARK    4  A    between atoms: C_13  and  C_14 
REMARK    5  A    between atoms: C_14  and  C_15 
REMARK    6  A    between atoms: C_15  and  N_16 
REMARK    7  A    between atoms: C_26  and  C_27 
ROOT
HETATM    1  C   UNL     1      43.720 -17.938   4.711  1.00  0.00     0.125 C 
HETATM    2  N   UNL     1      43.231 -16.576   4.955  1.00  0.00    -0.365 N 
HETATM    3  C   UNL     1      42.722 -15.825   3.950  1.00  0.00     0.141 A 
HETATM    4  N   UNL     1      42.420 -16.381   2.737  1.00  0.00    -0.238 N 
HETATM    5  N   UNL     1      41.843 -15.527   1.869  1.00  0.00    -0.163 NA
HETATM    6  C   UNL     1      41.853 -14.343   2.529  1.00  0.00     0.165 A 
HETATM    7  C   UNL     1      42.380 -14.502   3.834  1.00  0.00     0.092 A 
HETATM    8 BR   UNL     1      42.554 -13.178   5.148  1.00  0.00    -0.044 Br
HETATM    9  C   UNL     1      42.673 -17.770   2.392  1.00  0.00     0.221 C 
HETATM   10  C   UNL     1      42.804 -18.616   3.670  1.00  0.00     0.067 C 
HETATM   11  H   UNL     1      43.642 -16.125   5.774  1.00  0.00     0.162 HD
ENDROOT
BRANCH   6  12
HETATM   12  C   UNL     1      41.345 -13.133   1.872  1.00  0.00     0.273 C 
HETATM   13  N   UNL     1      42.105 -12.724   0.794  1.00  0.00    -0.355 N 
HETATM   14  H   UNL     1      42.966 -13.259   0.658  1.00  0.00     0.162 HD
HETATM   15  O   UNL     1      40.325 -12.520   2.196  1.00  0.00    -0.266 OA
BRANCH  13  16
HETATM   16  C   UNL     1      41.932 -11.449   0.141  1.00  0.00     0.124 C 
BRANCH  16  17
HETATM   17  C   UNL     1      41.846 -11.542  -1.383  1.00  0.00     0.047 C 
BRANCH  17  18
HETATM   18  C   UNL     1      40.462 -11.771  -1.992  1.00  0.00     0.236 C 
BRANCH  18  19
HETATM   19  N   UNL     1      40.169 -13.206  -2.337  1.00  0.00    -0.067 N 
HETATM   20  H   UNL     1      39.890 -13.678  -1.451  1.00  0.00     0.280 HD
HETATM   21  C   UNL     1      39.078 -13.416  -3.370  1.00  0.00     0.261 C 
HETATM   22  C   UNL     1      38.875 -14.915  -3.617  1.00  0.00     0.195 C 
HETATM   23  O   UNL     1      40.094 -15.539  -4.032  1.00  0.00    -0.388 OA
HETATM   24  C   UNL     1      41.109 -15.420  -3.027  1.00  0.00     0.195 C 
HETATM   25  C   UNL     1      41.437 -13.947  -2.761  1.00  0.00     0.261 C 
ENDBRANCH  18  19
ENDBRANCH  17  18
ENDBRANCH  16  17
ENDBRANCH  13  16
ENDBRANCH   6  12
BRANCH   9  26
HETATM   26  C   UNL     1      43.903 -17.858   1.514  1.00  0.00     0.409 C 
HETATM   27  F   UNL     1      43.605 -17.877   0.197  1.00  0.00    -0.169 F 
HETATM   28  F   UNL     1      44.707 -16.788   1.725  1.00  0.00    -0.169 F 
HETATM   29  F   UNL     1      44.642 -18.958   1.781  1.00  0.00    -0.169 F 
ENDBRANCH   9  26
BRANCH   1  30
HETATM   30  C   UNL     1      43.775 -18.774   5.967  1.00  0.00     0.005 A 
HETATM   31  S   UNL     1      43.848 -18.010   7.502  1.00  0.00    -0.104 SA
HETATM   32  C   UNL     1      43.893 -19.508   8.321  1.00  0.00     0.050 A 
HETATM   33  C   UNL     1      43.855 -20.575   7.451  1.00  0.00     0.008 A 
HETATM   34  C   UNL     1      43.787 -20.152   6.093  1.00  0.00     0.017 A 
ENDBRANCH   1  30
TORSDOF 7
ENDMDL
