MODEL 1
REMARK VINA RESULT:      -8.0      0.000      0.000
REMARK  5 active torsions:
REMARK  status: ('A' for Active; 'I' for Inactive)
REMARK    1  A    between atoms: C_8  and  C_9 
REMARK    2  A    between atoms: C_9  and  N_10 
REMARK    3  A    between atoms: N_10  and  C_13 
REMARK    4  A    between atoms: C_13  and  C_14 
REMARK    5  A    between atoms: C_13  and  C_19 
ROOT
HETATM    1  N   UNL     1      42.752 -17.497   2.391  1.00  0.00    -0.056 N 
HETATM    2  H   UNL     1      41.780 -17.819   2.280  1.00  0.00     0.278 HD
HETATM    3  H   UNL     1      42.951 -17.636   3.388  1.00  0.00     0.278 HD
ENDROOT
BRANCH   1   4
HETATM    4  C   UNL     1      43.634 -18.365   1.574  1.00  0.00     0.275 C 
BRANCH   4   5
HETATM    5  C   UNL     1      43.967 -19.643   2.276  1.00  0.00     0.004 A 
HETATM    6  C   UNL     1      44.281 -19.664   3.627  1.00  0.00     0.113 A 
HETATM    7  C   UNL     1      44.555 -20.831   4.302  1.00  0.00     0.105 A 
HETATM    8  O   UNL     1      44.378 -18.566   4.433  1.00  0.00    -0.322 OA
HETATM    9  C   UNL     1      44.530 -22.053   3.671  1.00  0.00     0.040 A 
HETATM   10  O   UNL     1      44.843 -20.619   5.612  1.00  0.00    -0.323 OA
HETATM   11  C   UNL     1      44.208 -22.076   2.312  1.00  0.00     0.003 A 
HETATM   12  C   UNL     1      43.924 -20.883   1.619  1.00  0.00     0.012 A 
HETATM   13  C   UNL     1      44.677 -19.193   5.710  1.00  0.00     0.352 A 
ENDBRANCH   4   5
ENDBRANCH   1   4
BRANCH   1  14
HETATM   14  C   UNL     1      42.800 -16.029   2.094  1.00  0.00     0.292 C 
BRANCH  14  15
HETATM   15  C   UNL     1      43.222 -15.198   3.276  1.00  0.00     0.190 A 
HETATM   16  N   UNL     1      43.747 -13.972   3.122  1.00  0.00    -0.109 NA
HETATM   17  O   UNL     1      43.944 -13.547   4.441  1.00  0.00    -0.205 OA
HETATM   18  C   UNL     1      43.481 -14.545   5.240  1.00  0.00     0.288 A 
HETATM   19  N   UNL     1      42.999 -15.569   4.577  1.00  0.00    -0.215 NA
ENDBRANCH  14  15
BRANCH  14  20
HETATM   20  C   UNL     1      41.459 -15.470   1.649  1.00  0.00    -0.020 A 
HETATM   21  C   UNL     1      40.306 -15.751   2.405  1.00  0.00     0.011 A 
HETATM   22  C   UNL     1      39.064 -15.224   2.039  1.00  0.00     0.024 A 
HETATM   23  C   UNL     1      38.958 -14.411   0.913  1.00  0.00     0.034 A 
HETATM   24 CL   UNL     1      37.431 -13.762   0.467  1.00  0.00    -0.084 Cl
HETATM   25  C   UNL     1      40.084 -14.123   0.148  1.00  0.00     0.024 A 
HETATM   26  C   UNL     1      41.329 -14.646   0.512  1.00  0.00     0.011 A 
ENDBRANCH  14  20
ENDBRANCH   1  14
TORSDOF 5
ENDMDL
MODEL 2
REMARK VINA RESULT:      -7.8      2.967      4.358
REMARK  5 active torsions:
REMARK  status: ('A' for Active; 'I' for Inactive)
REMARK    1  A    between atoms: C_8  and  C_9 
REMARK    2  A    between atoms: C_9  and  N_10 
REMARK    3  A    between atoms: N_10  and  C_13 
REMARK    4  A    between atoms: C_13  and  C_14 
REMARK    5  A    between atoms: C_13  and  C_19 
ROOT
HETATM    1  N   UNL     1      42.259 -17.818   2.654  1.00  0.00    -0.056 N 
HETATM    2  H   UNL     1      42.144 -17.577   1.660  1.00  0.00     0.278 HD
HETATM    3  H   UNL     1      41.830 -18.748   2.738  1.00  0.00     0.278 HD
ENDROOT
BRANCH   1   4
HETATM    4  C   UNL     1      43.708 -17.902   2.957  1.00  0.00     0.275 C 
BRANCH   4   5
HETATM    5  C   UNL     1      44.065 -19.188   3.631  1.00  0.00     0.004 A 
HETATM    6  C   UNL     1      44.125 -20.381   2.925  1.00  0.00     0.113 A 
HETATM    7  C   UNL     1      44.486 -21.570   3.515  1.00  0.00     0.105 A 
HETATM    8  O   UNL     1      43.823 -20.532   1.602  1.00  0.00    -0.322 OA
HETATM    9  C   UNL     1      44.814 -21.643   4.849  1.00  0.00     0.040 A 
HETATM   10  O   UNL     1      44.472 -22.609   2.642  1.00  0.00    -0.323 OA
HETATM   11  C   UNL     1      44.775 -20.462   5.594  1.00  0.00     0.003 A 
HETATM   12  C   UNL     1      44.409 -19.242   4.991  1.00  0.00     0.012 A 
HETATM   13  C   UNL     1      44.106 -21.946   1.419  1.00  0.00     0.352 A 
ENDBRANCH   4   5
ENDBRANCH   1   4
BRANCH   1  14
HETATM   14  C   UNL     1      41.461 -16.848   3.472  1.00  0.00     0.292 C 
BRANCH  14  15
HETATM   15  C   UNL     1      40.690 -15.862   2.636  1.00  0.00     0.190 A 
HETATM   16  N   UNL     1      40.784 -15.851   1.296  1.00  0.00    -0.109 NA
HETATM   17  O   UNL     1      39.889 -14.840   0.927  1.00  0.00    -0.205 OA
HETATM   18  C   UNL     1      39.329 -14.383   2.079  1.00  0.00     0.288 A 
HETATM   19  N   UNL     1      39.762 -14.996   3.155  1.00  0.00    -0.215 NA
ENDBRANCH  14  15
BRANCH  14  20
HETATM   20  C   UNL     1      42.320 -16.016   4.410  1.00  0.00    -0.020 A 
HETATM   21  C   UNL     1      42.447 -16.400   5.758  1.00  0.00     0.011 A 
HETATM   22  C   UNL     1      43.257 -15.673   6.635  1.00  0.00     0.024 A 
HETATM   23  C   UNL     1      43.948 -14.553   6.179  1.00  0.00     0.034 A 
HETATM   24 CL   UNL     1      44.944 -13.663   7.258  1.00  0.00    -0.084 Cl
HETATM   25  C   UNL     1      43.833 -14.152   4.851  1.00  0.00     0.024 A 
HETATM   26  C   UNL     1      43.026 -14.879   3.969  1.00  0.00     0.011 A 
ENDBRANCH  14  20
ENDBRANCH   1  14
TORSDOF 5
ENDMDL
MODEL 3
REMARK VINA RESULT:      -7.6      3.492      6.412
REMARK  5 active torsions:
REMARK  status: ('A' for Active; 'I' for Inactive)
REMARK    1  A    between atoms: C_8  and  C_9 
REMARK    2  A    between atoms: C_9  and  N_10 
REMARK    3  A    between atoms: N_10  and  C_13 
REMARK    4  A    between atoms: C_13  and  C_14 
REMARK    5  A    between atoms: C_13  and  C_19 
ROOT
HETATM    1  N   UNL     1      40.972 -17.451   4.664  1.00  0.00    -0.056 N 
HETATM    2  H   UNL     1      40.776 -18.463   4.648  1.00  0.00     0.278 HD
HETATM    3  H   UNL     1      40.131 -17.027   4.256  1.00  0.00     0.278 HD
ENDROOT
BRANCH   1   4
HETATM    4  C   UNL     1      41.123 -17.020   6.074  1.00  0.00     0.275 C 
BRANCH   4   5
HETATM    5  C   UNL     1      42.127 -15.921   6.219  1.00  0.00     0.004 A 
HETATM    6  C   UNL     1      41.869 -14.641   5.749  1.00  0.00     0.113 A 
HETATM    7  C   UNL     1      42.762 -13.606   5.902  1.00  0.00     0.105 A 
HETATM    8  O   UNL     1      40.744 -14.258   5.078  1.00  0.00    -0.322 OA
HETATM    9  C   UNL     1      43.970 -13.782   6.538  1.00  0.00     0.040 A 
HETATM   10  O   UNL     1      42.309 -12.444   5.365  1.00  0.00    -0.323 OA
HETATM   11  C   UNL     1      44.264 -15.055   7.033  1.00  0.00     0.003 A 
HETATM   12  C   UNL     1      43.350 -16.116   6.880  1.00  0.00     0.012 A 
HETATM   13  C   UNL     1      41.010 -12.840   4.891  1.00  0.00     0.352 A 
ENDBRANCH   4   5
ENDBRANCH   1   4
BRANCH   1  14
HETATM   14  C   UNL     1      42.133 -17.181   3.755  1.00  0.00     0.292 C 
BRANCH  14  15
HETATM   15  C   UNL     1      41.738 -16.491   2.477  1.00  0.00     0.190 A 
HETATM   16  N   UNL     1      40.458 -16.441   2.072  1.00  0.00    -0.109 NA
HETATM   17  O   UNL     1      40.530 -15.685   0.896  1.00  0.00    -0.205 OA
HETATM   18  C   UNL     1      41.835 -15.331   0.746  1.00  0.00     0.288 A 
HETATM   19  N   UNL     1      42.615 -15.774   1.703  1.00  0.00    -0.215 NA
ENDBRANCH  14  15
BRANCH  14  20
HETATM   20  C   UNL     1      42.865 -18.445   3.337  1.00  0.00    -0.020 A 
HETATM   21  C   UNL     1      43.820 -19.012   4.202  1.00  0.00     0.011 A 
HETATM   22  C   UNL     1      44.485 -20.192   3.857  1.00  0.00     0.024 A 
HETATM   23  C   UNL     1      44.207 -20.820   2.646  1.00  0.00     0.034 A 
HETATM   24 CL   UNL     1      45.024 -22.271   2.226  1.00  0.00    -0.084 Cl
HETATM   25  C   UNL     1      43.271 -20.274   1.772  1.00  0.00     0.024 A 
HETATM   26  C   UNL     1      42.601 -19.095   2.114  1.00  0.00     0.011 A 
ENDBRANCH  14  20
ENDBRANCH   1  14
TORSDOF 5
ENDMDL
MODEL 4
REMARK VINA RESULT:      -7.5      3.187      6.841
REMARK  5 active torsions:
REMARK  status: ('A' for Active; 'I' for Inactive)
REMARK    1  A    between atoms: C_8  and  C_9 
REMARK    2  A    between atoms: C_9  and  N_10 
REMARK    3  A    between atoms: N_10  and  C_13 
REMARK    4  A    between atoms: C_13  and  C_14 
REMARK    5  A    between atoms: C_13  and  C_19 
ROOT
HETATM    1  N   UNL     1      40.416 -16.152   2.762  1.00  0.00    -0.056 N 
HETATM    2  H   UNL     1      39.675 -16.856   2.890  1.00  0.00     0.278 HD
HETATM    3  H   UNL     1      40.760 -16.320   1.809  1.00  0.00     0.278 HD
ENDROOT
BRANCH   1   4
HETATM    4  C   UNL     1      39.808 -14.803   2.848  1.00  0.00     0.275 C 
BRANCH   4   5
HETATM    5  C   UNL     1      39.256 -14.353   1.533  1.00  0.00     0.004 A 
HETATM    6  C   UNL     1      39.935 -14.588   0.346  1.00  0.00     0.113 A 
HETATM    7  C   UNL     1      39.432 -14.216  -0.878  1.00  0.00     0.105 A 
HETATM    8  O   UNL     1      41.161 -15.180   0.242  1.00  0.00    -0.322 OA
HETATM    9  C   UNL     1      38.214 -13.586  -0.997  1.00  0.00     0.040 A 
HETATM   10  O   UNL     1      40.262 -14.537  -1.903  1.00  0.00    -0.323 OA
HETATM   11  C   UNL     1      37.493 -13.339   0.174  1.00  0.00     0.003 A 
HETATM   12  C   UNL     1      38.005 -13.722   1.429  1.00  0.00     0.012 A 
HETATM   13  C   UNL     1      41.332 -15.197  -1.202  1.00  0.00     0.352 A 
ENDBRANCH   4   5
ENDBRANCH   1   4
BRANCH   1  14
HETATM   14  C   UNL     1      41.522 -16.448   3.729  1.00  0.00     0.292 C 
BRANCH  14  15
HETATM   15  C   UNL     1      42.509 -15.319   3.866  1.00  0.00     0.190 A 
HETATM   16  N   UNL     1      43.256 -14.909   2.827  1.00  0.00    -0.109 NA
HETATM   17  O   UNL     1      43.977 -13.836   3.365  1.00  0.00    -0.205 OA
HETATM   18  C   UNL     1      43.557 -13.696   4.650  1.00  0.00     0.288 A 
HETATM   19  N   UNL     1      42.635 -14.560   5.001  1.00  0.00    -0.215 NA
ENDBRANCH  14  15
BRANCH  14  20
HETATM   20  C   UNL     1      42.339 -17.669   3.340  1.00  0.00    -0.020 A 
HETATM   21  C   UNL     1      43.201 -18.256   4.284  1.00  0.00     0.011 A 
HETATM   22  C   UNL     1      43.940 -19.399   3.964  1.00  0.00     0.024 A 
HETATM   23  C   UNL     1      43.828 -19.969   2.698  1.00  0.00     0.034 A 
HETATM   24 CL   UNL     1      44.735 -21.375   2.308  1.00  0.00    -0.084 Cl
HETATM   25  C   UNL     1      42.985 -19.401   1.747  1.00  0.00     0.024 A 
HETATM   26  C   UNL     1      42.242 -18.260   2.063  1.00  0.00     0.011 A 
ENDBRANCH  14  20
ENDBRANCH   1  14
TORSDOF 5
ENDMDL
MODEL 5
REMARK VINA RESULT:      -7.4      3.285      6.732
REMARK  5 active torsions:
REMARK  status: ('A' for Active; 'I' for Inactive)
REMARK    1  A    between atoms: C_8  and  C_9 
REMARK    2  A    between atoms: C_9  and  N_10 
REMARK    3  A    between atoms: N_10  and  C_13 
REMARK    4  A    between atoms: C_13  and  C_14 
REMARK    5  A    between atoms: C_13  and  C_19 
ROOT
HETATM    1  N   UNL     1      43.309 -15.747   3.289  1.00  0.00    -0.056 N 
HETATM    2  H   UNL     1      43.698 -16.108   2.406  1.00  0.00     0.278 HD
HETATM    3  H   UNL     1      44.130 -15.405   3.803  1.00  0.00     0.278 HD
ENDROOT
BRANCH   1   4
HETATM    4  C   UNL     1      42.401 -14.617   2.979  1.00  0.00     0.275 C 
BRANCH   4   5
HETATM    5  C   UNL     1      41.978 -14.617   1.544  1.00  0.00     0.004 A 
HETATM    6  C   UNL     1      42.017 -13.459   0.780  1.00  0.00     0.113 A 
HETATM    7  C   UNL     1      41.667 -13.440  -0.549  1.00  0.00     0.105 A 
HETATM    8  O   UNL     1      42.374 -12.223   1.238  1.00  0.00    -0.322 OA
HETATM    9  C   UNL     1      41.259 -14.580  -1.205  1.00  0.00     0.040 A 
HETATM   10  O   UNL     1      41.773 -12.204  -1.099  1.00  0.00    -0.323 OA
HETATM   11  C   UNL     1      41.215 -15.769  -0.473  1.00  0.00     0.003 A 
HETATM   12  C   UNL     1      41.575 -15.791   0.888  1.00  0.00     0.012 A 
HETATM   13  C   UNL     1      42.273 -11.442   0.015  1.00  0.00     0.352 A 
ENDBRANCH   4   5
ENDBRANCH   1   4
BRANCH   1  14
HETATM   14  C   UNL     1      42.713 -16.894   4.047  1.00  0.00     0.292 C 
BRANCH  14  15
HETATM   15  C   UNL     1      43.001 -16.843   5.523  1.00  0.00     0.190 A 
HETATM   16  N   UNL     1      43.947 -16.034   6.027  1.00  0.00    -0.109 NA
HETATM   17  O   UNL     1      43.850 -16.258   7.406  1.00  0.00    -0.205 OA
HETATM   18  C   UNL     1      42.833 -17.145   7.580  1.00  0.00     0.288 A 
HETATM   19  N   UNL     1      42.258 -17.514   6.461  1.00  0.00    -0.215 NA
ENDBRANCH  14  15
BRANCH  14  20
HETATM   20  C   UNL     1      43.220 -18.246   3.571  1.00  0.00    -0.020 A 
HETATM   21  C   UNL     1      42.736 -18.781   2.363  1.00  0.00     0.011 A 
HETATM   22  C   UNL     1      43.209 -20.007   1.884  1.00  0.00     0.024 A 
HETATM   23  C   UNL     1      44.168 -20.713   2.606  1.00  0.00     0.034 A 
HETATM   24 CL   UNL     1      44.749 -22.218   2.014  1.00  0.00    -0.084 Cl
HETATM   25  C   UNL     1      44.656 -20.205   3.806  1.00  0.00     0.024 A 
HETATM   26  C   UNL     1      44.189 -18.978   4.287  1.00  0.00     0.011 A 
ENDBRANCH  14  20
ENDBRANCH   1  14
TORSDOF 5
ENDMDL
MODEL 6
REMARK VINA RESULT:      -7.3      3.381      6.884
REMARK  5 active torsions:
REMARK  status: ('A' for Active; 'I' for Inactive)
REMARK    1  A    between atoms: C_8  and  C_9 
REMARK    2  A    between atoms: C_9  and  N_10 
REMARK    3  A    between atoms: N_10  and  C_13 
REMARK    4  A    between atoms: C_13  and  C_14 
REMARK    5  A    between atoms: C_13  and  C_19 
ROOT
HETATM    1  N   UNL     1      42.343 -15.995   1.137  1.00  0.00    -0.056 N 
HETATM    2  H   UNL     1      42.999 -16.706   0.782  1.00  0.00     0.278 HD
HETATM    3  H   UNL     1      42.836 -15.105   0.994  1.00  0.00     0.278 HD
ENDROOT
BRANCH   1   4
HETATM    4  C   UNL     1      41.115 -16.030   0.308  1.00  0.00     0.275 C 
BRANCH   4   5
HETATM    5  C   UNL     1      41.230 -15.155  -0.900  1.00  0.00     0.004 A 
HETATM    6  C   UNL     1      41.617 -13.826  -0.795  1.00  0.00     0.113 A 
HETATM    7  C   UNL     1      41.764 -13.012  -1.894  1.00  0.00     0.105 A 
HETATM    8  O   UNL     1      41.872 -13.168   0.373  1.00  0.00    -0.322 OA
HETATM    9  C   UNL     1      41.537 -13.474  -3.171  1.00  0.00     0.040 A 
HETATM   10  O   UNL     1      42.143 -11.752  -1.562  1.00  0.00    -0.323 OA
HETATM   11  C   UNL     1      41.154 -14.810  -3.320  1.00  0.00     0.003 A 
HETATM   12  C   UNL     1      41.006 -15.646  -2.197  1.00  0.00     0.012 A 
HETATM   13  C   UNL     1      42.266 -11.863  -0.132  1.00  0.00     0.352 A 
ENDBRANCH   4   5
ENDBRANCH   1   4
BRANCH   1  14
HETATM   14  C   UNL     1      42.161 -16.210   2.609  1.00  0.00     0.292 C 
BRANCH  14  15
HETATM   15  C   UNL     1      42.671 -15.066   3.443  1.00  0.00     0.190 A 
HETATM   16  N   UNL     1      43.848 -14.474   3.179  1.00  0.00    -0.109 NA
HETATM   17  O   UNL     1      43.908 -13.456   4.139  1.00  0.00    -0.205 OA
HETATM   18  C   UNL     1      42.748 -13.524   4.846  1.00  0.00     0.288 A 
HETATM   19  N   UNL     1      41.940 -14.475   4.441  1.00  0.00    -0.215 NA
ENDBRANCH  14  15
BRANCH  14  20
HETATM   20  C   UNL     1      42.878 -17.449   3.119  1.00  0.00    -0.020 A 
HETATM   21  C   UNL     1      43.486 -18.326   2.201  1.00  0.00     0.011 A 
HETATM   22  C   UNL     1      44.180 -19.456   2.644  1.00  0.00     0.024 A 
HETATM   23  C   UNL     1      44.275 -19.725   4.006  1.00  0.00     0.034 A 
HETATM   24 CL   UNL     1      45.130 -21.113   4.548  1.00  0.00    -0.084 Cl
HETATM   25  C   UNL     1      43.677 -18.875   4.932  1.00  0.00     0.024 A 
HETATM   26  C   UNL     1      42.984 -17.742   4.494  1.00  0.00     0.011 A 
ENDBRANCH  14  20
ENDBRANCH   1  14
TORSDOF 5
ENDMDL
MODEL 7
REMARK VINA RESULT:      -7.2      3.830      7.129
REMARK  5 active torsions:
REMARK  status: ('A' for Active; 'I' for Inactive)
REMARK    1  A    between atoms: C_8  and  C_9 
REMARK    2  A    between atoms: C_9  and  N_10 
REMARK    3  A    between atoms: N_10  and  C_13 
REMARK    4  A    between atoms: C_13  and  C_14 
REMARK    5  A    between atoms: C_13  and  C_19 
ROOT
HETATM    1  N   UNL     1      42.083 -15.200   1.044  1.00  0.00    -0.056 N 
HETATM    2  H   UNL     1      41.692 -15.857   0.353  1.00  0.00     0.278 HD
HETATM    3  H   UNL     1      43.092 -15.205   0.852  1.00  0.00     0.278 HD
ENDROOT
BRANCH   1   4
HETATM    4  C   UNL     1      41.525 -13.852   0.784  1.00  0.00     0.275 C 
BRANCH   4   5
HETATM    5  C   UNL     1      41.770 -13.407  -0.623  1.00  0.00     0.004 A 
HETATM    6  C   UNL     1      41.404 -14.197  -1.704  1.00  0.00     0.113 A 
HETATM    7  C   UNL     1      41.586 -13.794  -3.006  1.00  0.00     0.105 A 
HETATM    8  O   UNL     1      40.855 -15.444  -1.621  1.00  0.00    -0.322 OA
HETATM    9  C   UNL     1      42.143 -12.574  -3.314  1.00  0.00     0.040 A 
HETATM   10  O   UNL     1      41.164 -14.723  -3.902  1.00  0.00    -0.323 OA
HETATM   11  C   UNL     1      42.517 -11.744  -2.253  1.00  0.00     0.003 A 
HETATM   12  C   UNL     1      42.328 -12.153  -0.919  1.00  0.00     0.012 A 
HETATM   13  C   UNL     1      40.650 -15.744  -3.029  1.00  0.00     0.352 A 
ENDBRANCH   4   5
ENDBRANCH   1   4
BRANCH   1  14
HETATM   14  C   UNL     1      41.855 -15.764   2.414  1.00  0.00     0.292 C 
BRANCH  14  15
HETATM   15  C   UNL     1      42.272 -14.829   3.517  1.00  0.00     0.190 A 
HETATM   16  N   UNL     1      41.415 -14.449   4.479  1.00  0.00    -0.109 NA
HETATM   17  O   UNL     1      42.207 -13.642   5.305  1.00  0.00    -0.205 OA
HETATM   18  C   UNL     1      43.458 -13.657   4.771  1.00  0.00     0.288 A 
HETATM   19  N   UNL     1      43.561 -14.394   3.691  1.00  0.00    -0.215 NA
ENDBRANCH  14  15
BRANCH  14  20
HETATM   20  C   UNL     1      42.613 -17.058   2.656  1.00  0.00    -0.020 A 
HETATM   21  C   UNL     1      42.558 -17.667   3.924  1.00  0.00     0.011 A 
HETATM   22  C   UNL     1      43.219 -18.875   4.166  1.00  0.00     0.024 A 
HETATM   23  C   UNL     1      43.945 -19.488   3.148  1.00  0.00     0.034 A 
HETATM   24 CL   UNL     1      44.754 -20.973   3.447  1.00  0.00    -0.084 Cl
HETATM   25  C   UNL     1      44.017 -18.901   1.888  1.00  0.00     0.024 A 
HETATM   26  C   UNL     1      43.355 -17.694   1.640  1.00  0.00     0.011 A 
ENDBRANCH  14  20
ENDBRANCH   1  14
TORSDOF 5
ENDMDL
MODEL 8
REMARK VINA RESULT:      -7.2      3.510      7.278
REMARK  5 active torsions:
REMARK  status: ('A' for Active; 'I' for Inactive)
REMARK    1  A    between atoms: C_8  and  C_9 
REMARK    2  A    between atoms: C_9  and  N_10 
REMARK    3  A    between atoms: N_10  and  C_13 
REMARK    4  A    between atoms: C_13  and  C_14 
REMARK    5  A    between atoms: C_13  and  C_19 
ROOT
HETATM    1  N   UNL     1      43.158 -15.981   4.743  1.00  0.00    -0.056 N 
HETATM    2  H   UNL     1      43.698 -16.361   5.534  1.00  0.00     0.278 HD
HETATM    3  H   UNL     1      42.182 -16.197   4.980  1.00  0.00     0.278 HD
ENDROOT
BRANCH   1   4
HETATM    4  C   UNL     1      43.354 -14.513   4.698  1.00  0.00     0.275 C 
BRANCH   4   5
HETATM    5  C   UNL     1      42.082 -13.787   4.394  1.00  0.00     0.004 A 
HETATM    6  C   UNL     1      41.867 -13.194   3.159  1.00  0.00     0.113 A 
HETATM    7  C   UNL     1      40.692 -12.552   2.844  1.00  0.00     0.105 A 
HETATM    8  O   UNL     1      42.769 -13.152   2.135  1.00  0.00    -0.322 OA
HETATM    9  C   UNL     1      39.654 -12.464   3.743  1.00  0.00     0.040 A 
HETATM   10  O   UNL     1      40.699 -12.041   1.586  1.00  0.00    -0.323 OA
HETATM   11  C   UNL     1      39.828 -13.056   4.997  1.00  0.00     0.003 A 
HETATM   12  C   UNL     1      41.029 -13.717   5.320  1.00  0.00     0.012 A 
HETATM   13  C   UNL     1      41.990 -12.467   1.116  1.00  0.00     0.352 A 
ENDBRANCH   4   5
ENDBRANCH   1   4
BRANCH   1  14
HETATM   14  C   UNL     1      43.530 -16.743   3.507  1.00  0.00     0.292 C 
BRANCH  14  15
HETATM   15  C   UNL     1      42.410 -16.829   2.504  1.00  0.00     0.190 A 
HETATM   16  N   UNL     1      41.156 -17.133   2.876  1.00  0.00    -0.109 NA
HETATM   17  O   UNL     1      40.445 -17.057   1.672  1.00  0.00    -0.205 OA
HETATM   18  C   UNL     1      41.340 -16.679   0.720  1.00  0.00     0.288 A 
HETATM   19  N   UNL     1      42.554 -16.496   1.182  1.00  0.00    -0.215 NA
ENDBRANCH  14  15
BRANCH  14  20
HETATM   20  C   UNL     1      43.941 -18.177   3.796  1.00  0.00    -0.020 A 
HETATM   21  C   UNL     1      44.179 -18.576   5.124  1.00  0.00     0.011 A 
HETATM   22  C   UNL     1      44.526 -19.897   5.423  1.00  0.00     0.024 A 
HETATM   23  C   UNL     1      44.642 -20.835   4.400  1.00  0.00     0.034 A 
HETATM   24 CL   UNL     1      45.066 -22.458   4.770  1.00  0.00    -0.084 Cl
HETATM   25  C   UNL     1      44.416 -20.461   3.079  1.00  0.00     0.024 A 
HETATM   26  C   UNL     1      44.065 -19.142   2.775  1.00  0.00     0.011 A 
ENDBRANCH  14  20
ENDBRANCH   1  14
TORSDOF 5
ENDMDL
MODEL 9
REMARK VINA RESULT:      -7.1      4.039      5.310
REMARK  5 active torsions:
REMARK  status: ('A' for Active; 'I' for Inactive)
REMARK    1  A    between atoms: C_8  and  C_9 
REMARK    2  A    between atoms: C_9  and  N_10 
REMARK    3  A    between atoms: N_10  and  C_13 
REMARK    4  A    between atoms: C_13  and  C_14 
REMARK    5  A    between atoms: C_13  and  C_19 
ROOT
HETATM    1  N   UNL     1      41.761 -15.703  -0.221  1.00  0.00    -0.056 N 
HETATM    2  H   UNL     1      42.608 -15.281   0.188  1.00  0.00     0.278 HD
HETATM    3  H   UNL     1      42.113 -16.263  -1.006  1.00  0.00     0.278 HD
ENDROOT
BRANCH   1   4
HETATM    4  C   UNL     1      41.137 -16.588   0.791  1.00  0.00     0.275 C 
BRANCH   4   5
HETATM    5  C   UNL     1      42.160 -17.306   1.613  1.00  0.00     0.004 A 
HETATM    6  C   UNL     1      41.964 -17.541   2.966  1.00  0.00     0.113 A 
HETATM    7  C   UNL     1      42.873 -18.230   3.734  1.00  0.00     0.105 A 
HETATM    8  O   UNL     1      40.890 -17.116   3.694  1.00  0.00    -0.322 OA
HETATM    9  C   UNL     1      44.037 -18.732   3.199  1.00  0.00     0.040 A 
HETATM   10  O   UNL     1      42.484 -18.339   5.030  1.00  0.00    -0.323 OA
HETATM   11  C   UNL     1      44.269 -18.524   1.836  1.00  0.00     0.003 A 
HETATM   12  C   UNL     1      43.337 -17.822   1.047  1.00  0.00     0.012 A 
HETATM   13  C   UNL     1      41.204 -17.683   4.996  1.00  0.00     0.352 A 
ENDBRANCH   4   5
ENDBRANCH   1   4
BRANCH   1  14
HETATM   14  C   UNL     1      40.901 -14.602  -0.766  1.00  0.00     0.292 C 
BRANCH  14  15
HETATM   15  C   UNL     1      40.319 -14.919  -2.117  1.00  0.00     0.190 A 
HETATM   16  N   UNL     1      40.883 -15.828  -2.930  1.00  0.00    -0.109 NA
HETATM   17  O   UNL     1      40.015 -15.846  -4.029  1.00  0.00    -0.205 OA
HETATM   18  C   UNL     1      39.009 -14.978  -3.740  1.00  0.00     0.288 A 
HETATM   19  N   UNL     1      39.130 -14.404  -2.566  1.00  0.00    -0.215 NA
ENDBRANCH  14  15
BRANCH  14  20
HETATM   20  C   UNL     1      41.652 -13.292  -0.933  1.00  0.00    -0.020 A 
HETATM   21  C   UNL     1      41.732 -12.396   0.149  1.00  0.00     0.011 A 
HETATM   22  C   UNL     1      42.443 -11.197   0.035  1.00  0.00     0.024 A 
HETATM   23  C   UNL     1      43.081 -10.878  -1.161  1.00  0.00     0.034 A 
HETATM   24 CL   UNL     1      43.956  -9.407  -1.298  1.00  0.00    -0.084 Cl
HETATM   25  C   UNL     1      43.011 -11.747  -2.246  1.00  0.00     0.024 A 
HETATM   26  C   UNL     1      42.303 -12.948  -2.135  1.00  0.00     0.011 A 
ENDBRANCH  14  20
ENDBRANCH   1  14
TORSDOF 5
ENDMDL
MODEL 10
REMARK VINA RESULT:      -7.1      2.773      3.715
REMARK  5 active torsions:
REMARK  status: ('A' for Active; 'I' for Inactive)
REMARK    1  A    between atoms: C_8  and  C_9 
REMARK    2  A    between atoms: C_9  and  N_10 
REMARK    3  A    between atoms: N_10  and  C_13 
REMARK    4  A    between atoms: C_13  and  C_14 
REMARK    5  A    between atoms: C_13  and  C_19 
ROOT
HETATM    1  N   UNL     1      42.280 -16.748   2.069  1.00  0.00    -0.056 N 
HETATM    2  H   UNL     1      42.895 -16.617   2.886  1.00  0.00     0.278 HD
HETATM    3  H   UNL     1      42.824 -16.372   1.284  1.00  0.00     0.278 HD
ENDROOT
BRANCH   1   4
HETATM    4  C   UNL     1      42.052 -18.200   1.876  1.00  0.00     0.275 C 
BRANCH   4   5
HETATM    5  C   UNL     1      43.097 -19.026   2.557  1.00  0.00     0.004 A 
HETATM    6  C   UNL     1      43.539 -18.719   3.836  1.00  0.00     0.113 A 
HETATM    7  C   UNL     1      44.473 -19.484   4.496  1.00  0.00     0.105 A 
HETATM    8  O   UNL     1      43.137 -17.644   4.574  1.00  0.00    -0.322 OA
HETATM    9  C   UNL     1      45.023 -20.607   3.921  1.00  0.00     0.040 A 
HETATM   10  O   UNL     1      44.764 -19.000   5.730  1.00  0.00    -0.323 OA
HETATM   11  C   UNL     1      44.597 -20.955   2.637  1.00  0.00     0.003 A 
HETATM   12  C   UNL     1      43.639 -20.176   1.960  1.00  0.00     0.012 A 
HETATM   13  C   UNL     1      43.880 -17.867   5.805  1.00  0.00     0.352 A 
ENDBRANCH   4   5
ENDBRANCH   1   4
BRANCH   1  14
HETATM   14  C   UNL     1      41.059 -15.899   2.255  1.00  0.00     0.292 C 
BRANCH  14  15
HETATM   15  C   UNL     1      40.683 -15.123   1.022  1.00  0.00     0.190 A 
HETATM   16  N   UNL     1      41.449 -15.142  -0.081  1.00  0.00    -0.109 NA
HETATM   17  O   UNL     1      40.725 -14.349  -0.980  1.00  0.00    -0.205 OA
HETATM   18  C   UNL     1      39.589 -13.974  -0.333  1.00  0.00     0.288 A 
HETATM   19  N   UNL     1      39.498 -14.446   0.888  1.00  0.00    -0.215 NA
ENDBRANCH  14  15
BRANCH  14  20
HETATM   20  C   UNL     1      41.216 -14.870   3.362  1.00  0.00    -0.020 A 
HETATM   21  C   UNL     1      42.294 -13.966   3.321  1.00  0.00     0.011 A 
HETATM   22  C   UNL     1      42.445 -12.988   4.309  1.00  0.00     0.024 A 
HETATM   23  C   UNL     1      41.523 -12.901   5.349  1.00  0.00     0.034 A 
HETATM   24 CL   UNL     1      41.710 -11.696   6.560  1.00  0.00    -0.084 Cl
HETATM   25  C   UNL     1      40.452 -13.787   5.412  1.00  0.00     0.024 A 
HETATM   26  C   UNL     1      40.296 -14.766   4.425  1.00  0.00     0.011 A 
ENDBRANCH  14  20
ENDBRANCH   1  14
TORSDOF 5
ENDMDL
