MODEL 1
REMARK VINA RESULT:      -8.9      0.000      0.000
REMARK  4 active torsions:
REMARK  status: ('A' for Active; 'I' for Inactive)
REMARK    1  A    between atoms: C_7  and  C_8 
REMARK    2  A    between atoms: C_8  and  N_9 
REMARK    3  A    between atoms: N_15  and  C_17 
REMARK    4  A    between atoms: C_21  and  C_22 
ROOT
HETATM    1  N   UNL     1      43.501 -13.770   6.433  1.00  0.00    -0.067 N 
HETATM    2  H   UNL     1      43.258 -12.779   6.578  1.00  0.00     0.280 HD
HETATM    3  C   UNL     1      44.011 -13.859   5.022  1.00  0.00     0.236 C 
HETATM    4  C   UNL     1      44.181 -15.317   4.587  1.00  0.00     0.039 C 
HETATM    5  C   UNL     1      42.905 -16.186   4.765  1.00  0.00    -0.013 C 
HETATM    6  C   UNL     1      41.782 -15.811   3.758  1.00  0.00     0.245 C 
HETATM    7  N   UNL     1      42.164 -16.167   2.341  1.00  0.00    -0.065 N 
HETATM    8  H   UNL     1      43.030 -15.686   2.061  1.00  0.00     0.280 HD
HETATM    9  C   UNL     1      42.425 -17.658   2.172  1.00  0.00     0.244 C 
HETATM   10  C   UNL     1      43.557 -18.085   3.117  1.00  0.00     0.045 C 
HETATM   11  C   UNL     1      43.244 -17.693   4.574  1.00  0.00     0.022 C 
HETATM   12  C   UNL     1      42.403 -15.997   6.227  1.00  0.00     0.039 C 
HETATM   13  C   UNL     1      42.239 -14.543   6.665  1.00  0.00     0.236 C 
ENDROOT
BRANCH   7  14
HETATM   14  C   UNL     1      41.111 -15.719   1.365  1.00  0.00     0.188 A 
HETATM   15  C   UNL     1      41.492 -14.617   0.417  1.00  0.00     0.035 A 
HETATM   16  C   UNL     1      41.357 -16.026  -0.084  1.00  0.00     0.035 A 
ENDBRANCH   7  14
BRANCH  10  17
HETATM   17  C   UNL     1      43.838 -19.567   2.977  1.00  0.00    -0.052 A 
HETATM   18  C   UNL     1      44.504 -20.247   4.009  1.00  0.00     0.007 A 
HETATM   19  C   UNL     1      44.797 -21.608   3.893  1.00  0.00     0.001 A 
HETATM   20  C   UNL     1      44.430 -22.306   2.747  1.00  0.00     0.000 A 
HETATM   21  C   UNL     1      43.764 -21.648   1.717  1.00  0.00     0.001 A 
HETATM   22  C   UNL     1      43.469 -20.288   1.829  1.00  0.00     0.007 A 
ENDBRANCH  10  17
BRANCH   1  23
HETATM   23  C   UNL     1      44.563 -13.987   7.513  1.00  0.00     0.277 C 
BRANCH  23  24
HETATM   24  C   UNL     1      44.759 -12.771   8.341  1.00  0.00     0.011 A 
HETATM   25  C   UNL     1      45.922 -11.955   8.422  1.00  0.00     0.060 A 
HETATM   26  C   UNL     1      47.241 -12.138   7.761  1.00  0.00     0.073 C 
HETATM   27  N   UNL     1      45.713 -10.885   9.189  1.00  0.00    -0.178 NA
HETATM   28  N   UNL     1      44.488 -11.058   9.699  1.00  0.00    -0.284 N 
HETATM   29  C   UNL     1      43.949 -10.098  10.636  1.00  0.00     0.179 C 
HETATM   30  C   UNL     1      43.856 -12.163   9.198  1.00  0.00     0.122 A 
ENDBRANCH  23  24
ENDBRANCH   1  23
TORSDOF 4
ENDMDL
MODEL 2
REMARK VINA RESULT:      -8.5      3.146      7.525
REMARK  4 active torsions:
REMARK  status: ('A' for Active; 'I' for Inactive)
REMARK    1  A    between atoms: C_7  and  C_8 
REMARK    2  A    between atoms: C_8  and  N_9 
REMARK    3  A    between atoms: N_15  and  C_17 
REMARK    4  A    between atoms: C_21  and  C_22 
ROOT
HETATM    1  N   UNL     1      40.219 -14.066   1.130  1.00  0.00    -0.067 N 
HETATM    2  H   UNL     1      39.848 -13.111   1.246  1.00  0.00     0.280 HD
HETATM    3  C   UNL     1      39.959 -14.762   2.436  1.00  0.00     0.236 C 
HETATM    4  C   UNL     1      40.677 -16.113   2.496  1.00  0.00     0.039 C 
HETATM    5  C   UNL     1      42.202 -16.034   2.211  1.00  0.00    -0.013 C 
HETATM    6  C   UNL     1      42.989 -15.344   3.359  1.00  0.00     0.245 C 
HETATM    7  N   UNL     1      42.985 -16.180   4.617  1.00  0.00    -0.065 N 
HETATM    8  H   UNL     1      42.024 -16.357   4.938  1.00  0.00     0.280 HD
HETATM    9  C   UNL     1      43.627 -17.545   4.403  1.00  0.00     0.244 C 
HETATM   10  C   UNL     1      42.867 -18.295   3.302  1.00  0.00     0.045 C 
HETATM   11  C   UNL     1      42.791 -17.461   2.008  1.00  0.00     0.022 C 
HETATM   12  C   UNL     1      42.396 -15.250   0.879  1.00  0.00     0.039 C 
HETATM   13  C   UNL     1      41.675 -13.906   0.815  1.00  0.00     0.236 C 
ENDROOT
BRANCH   7  14
HETATM   14  C   UNL     1      43.672 -15.464   5.747  1.00  0.00     0.188 A 
HETATM   15  C   UNL     1      43.251 -15.841   7.140  1.00  0.00     0.035 A 
HETATM   16  C   UNL     1      44.585 -16.286   6.612  1.00  0.00     0.035 A 
ENDBRANCH   7  14
BRANCH  10  17
HETATM   17  C   UNL     1      43.485 -19.658   3.060  1.00  0.00    -0.052 A 
HETATM   18  C   UNL     1      43.176 -20.361   1.885  1.00  0.00     0.007 A 
HETATM   19  C   UNL     1      43.713 -21.629   1.652  1.00  0.00     0.001 A 
HETATM   20  C   UNL     1      44.564 -22.211   2.587  1.00  0.00     0.000 A 
HETATM   21  C   UNL     1      44.884 -21.524   3.754  1.00  0.00     0.001 A 
HETATM   22  C   UNL     1      44.350 -20.257   3.991  1.00  0.00     0.007 A 
ENDBRANCH  10  17
BRANCH   1  23
HETATM   23  C   UNL     1      39.387 -14.578  -0.046  1.00  0.00     0.277 C 
BRANCH  23  24
HETATM   24  C   UNL     1      39.707 -13.854  -1.301  1.00  0.00     0.011 A 
HETATM   25  C   UNL     1      40.315 -14.380  -2.475  1.00  0.00     0.060 A 
HETATM   26  C   UNL     1      40.837 -15.750  -2.725  1.00  0.00     0.073 C 
HETATM   27  N   UNL     1      40.361 -13.471  -3.449  1.00  0.00    -0.178 NA
HETATM   28  N   UNL     1      39.910 -12.341  -2.890  1.00  0.00    -0.284 N 
HETATM   29  C   UNL     1      39.875 -11.116  -3.655  1.00  0.00     0.179 C 
HETATM   30  C   UNL     1      39.474 -12.523  -1.606  1.00  0.00     0.122 A 
ENDBRANCH  23  24
ENDBRANCH   1  23
TORSDOF 4
ENDMDL
MODEL 3
REMARK VINA RESULT:      -8.2      3.473      6.248
REMARK  4 active torsions:
REMARK  status: ('A' for Active; 'I' for Inactive)
REMARK    1  A    between atoms: C_7  and  C_8 
REMARK    2  A    between atoms: C_8  and  N_9 
REMARK    3  A    between atoms: N_15  and  C_17 
REMARK    4  A    between atoms: C_21  and  C_22 
ROOT
HETATM    1  N   UNL     1      41.222 -13.646   3.089  1.00  0.00    -0.067 N 
HETATM    2  H   UNL     1      40.954 -12.735   3.487  1.00  0.00     0.280 HD
HETATM    3  C   UNL     1      40.772 -14.674   4.089  1.00  0.00     0.236 C 
HETATM    4  C   UNL     1      41.322 -16.060   3.744  1.00  0.00     0.039 C 
HETATM    5  C   UNL     1      42.866 -16.104   3.570  1.00  0.00    -0.013 C 
HETATM    6  C   UNL     1      43.624 -15.921   4.914  1.00  0.00     0.245 C 
HETATM    7  N   UNL     1      43.414 -17.100   5.835  1.00  0.00    -0.065 N 
HETATM    8  H   UNL     1      42.415 -17.236   6.038  1.00  0.00     0.280 HD
HETATM    9  C   UNL     1      43.913 -18.404   5.225  1.00  0.00     0.244 C 
HETATM   10  C   UNL     1      43.170 -18.662   3.907  1.00  0.00     0.045 C 
HETATM   11  C   UNL     1      43.303 -17.463   2.948  1.00  0.00     0.022 C 
HETATM   12  C   UNL     1      43.263 -14.978   2.570  1.00  0.00     0.039 C 
HETATM   13  C   UNL     1      42.709 -13.596   2.909  1.00  0.00     0.236 C 
ENDROOT
BRANCH   7  14
HETATM   14  C   UNL     1      44.078 -16.874   7.166  1.00  0.00     0.188 A 
HETATM   15  C   UNL     1      43.258 -17.175   8.390  1.00  0.00     0.035 A 
HETATM   16  C   UNL     1      44.376 -18.094   7.989  1.00  0.00     0.035 A 
ENDBRANCH   7  14
BRANCH  10  17
HETATM   17  C   UNL     1      43.647 -19.951   3.269  1.00  0.00    -0.052 A 
HETATM   18  C   UNL     1      44.501 -20.805   3.986  1.00  0.00     0.007 A 
HETATM   19  C   UNL     1      44.974 -21.986   3.410  1.00  0.00     0.001 A 
HETATM   20  C   UNL     1      44.601 -22.331   2.114  1.00  0.00     0.000 A 
HETATM   21  C   UNL     1      43.751 -21.498   1.393  1.00  0.00     0.001 A 
HETATM   22  C   UNL     1      43.275 -20.316   1.965  1.00  0.00     0.007 A 
ENDBRANCH  10  17
BRANCH   1  23
HETATM   23  C   UNL     1      40.443 -13.647   1.773  1.00  0.00     0.277 C 
BRANCH  23  24
HETATM   24  C   UNL     1      39.367 -12.625   1.771  1.00  0.00     0.011 A 
HETATM   25  C   UNL     1      38.027 -12.777   1.317  1.00  0.00     0.060 A 
HETATM   26  C   UNL     1      37.383 -13.956   0.679  1.00  0.00     0.073 C 
HETATM   27  N   UNL     1      37.305 -11.683   1.558  1.00  0.00    -0.178 NA
HETATM   28  N   UNL     1      38.178 -10.791   2.042  1.00  0.00    -0.284 N 
HETATM   29  C   UNL     1      37.744  -9.451   2.365  1.00  0.00     0.179 C 
HETATM   30  C   UNL     1      39.429 -11.316   2.219  1.00  0.00     0.122 A 
ENDBRANCH  23  24
ENDBRANCH   1  23
TORSDOF 4
ENDMDL
MODEL 4
REMARK VINA RESULT:      -7.9      2.347      2.966
REMARK  4 active torsions:
REMARK  status: ('A' for Active; 'I' for Inactive)
REMARK    1  A    between atoms: C_7  and  C_8 
REMARK    2  A    between atoms: C_8  and  N_9 
REMARK    3  A    between atoms: N_15  and  C_17 
REMARK    4  A    between atoms: C_21  and  C_22 
ROOT
HETATM    1  N   UNL     1      41.230 -12.235   5.550  1.00  0.00    -0.067 N 
HETATM    2  H   UNL     1      40.732 -11.340   5.439  1.00  0.00     0.280 HD
HETATM    3  C   UNL     1      42.069 -12.388   4.313  1.00  0.00     0.236 C 
HETATM    4  C   UNL     1      42.678 -13.790   4.226  1.00  0.00     0.039 C 
HETATM    5  C   UNL     1      41.639 -14.941   4.329  1.00  0.00    -0.013 C 
HETATM    6  C   UNL     1      40.734 -15.042   3.070  1.00  0.00     0.245 C 
HETATM    7  N   UNL     1      41.517 -15.484   1.857  1.00  0.00    -0.065 N 
HETATM    8  H   UNL     1      42.285 -14.830   1.656  1.00  0.00     0.280 HD
HETATM    9  C   UNL     1      42.155 -16.854   2.050  1.00  0.00     0.244 C 
HETATM   10  C   UNL     1      43.096 -16.807   3.262  1.00  0.00     0.045 C 
HETATM   11  C   UNL     1      42.360 -16.307   4.520  1.00  0.00     0.022 C 
HETATM   12  C   UNL     1      40.771 -14.684   5.597  1.00  0.00     0.039 C 
HETATM   13  C   UNL     1      40.168 -13.284   5.688  1.00  0.00     0.236 C 
ENDROOT
BRANCH   7  14
HETATM   14  C   UNL     1      40.652 -15.493   0.626  1.00  0.00     0.188 A 
HETATM   15  C   UNL     1      40.986 -14.489  -0.442  1.00  0.00     0.035 A 
HETATM   16  C   UNL     1      41.300 -15.943  -0.652  1.00  0.00     0.035 A 
ENDBRANCH   7  14
BRANCH  10  17
HETATM   17  C   UNL     1      43.744 -18.159   3.486  1.00  0.00    -0.052 A 
HETATM   18  C   UNL     1      43.839 -19.068   2.421  1.00  0.00     0.007 A 
HETATM   19  C   UNL     1      44.410 -20.329   2.609  1.00  0.00     0.001 A 
HETATM   20  C   UNL     1      44.893 -20.698   3.861  1.00  0.00     0.000 A 
HETATM   21  C   UNL     1      44.811 -19.806   4.925  1.00  0.00     0.001 A 
HETATM   22  C   UNL     1      44.242 -18.544   4.742  1.00  0.00     0.007 A 
ENDBRANCH  10  17
BRANCH   1  23
HETATM   23  C   UNL     1      42.022 -11.989   6.835  1.00  0.00     0.277 C 
BRANCH  23  24
HETATM   24  C   UNL     1      41.551 -10.774   7.545  1.00  0.00     0.011 A 
HETATM   25  C   UNL     1      42.083 -10.206   8.737  1.00  0.00     0.060 A 
HETATM   26  C   UNL     1      43.186 -10.704   9.601  1.00  0.00     0.073 C 
HETATM   27  N   UNL     1      41.478  -9.057   9.039  1.00  0.00    -0.178 NA
HETATM   28  N   UNL     1      40.492  -8.937   8.142  1.00  0.00    -0.284 N 
HETATM   29  C   UNL     1      39.583  -7.816   8.207  1.00  0.00     0.179 C 
HETATM   30  C   UNL     1      40.510  -9.929   7.200  1.00  0.00     0.122 A 
ENDBRANCH  23  24
ENDBRANCH   1  23
TORSDOF 4
ENDMDL
MODEL 5
REMARK VINA RESULT:      -7.9      4.366      8.066
REMARK  4 active torsions:
REMARK  status: ('A' for Active; 'I' for Inactive)
REMARK    1  A    between atoms: C_7  and  C_8 
REMARK    2  A    between atoms: C_8  and  N_9 
REMARK    3  A    between atoms: N_15  and  C_17 
REMARK    4  A    between atoms: C_21  and  C_22 
ROOT
HETATM    1  N   UNL     1      42.750 -17.171   2.779  1.00  0.00    -0.067 N 
HETATM    2  H   UNL     1      43.440 -17.918   2.612  1.00  0.00     0.280 HD
HETATM    3  C   UNL     1      41.564 -17.518   1.925  1.00  0.00     0.236 C 
HETATM    4  C   UNL     1      40.556 -16.366   1.883  1.00  0.00     0.039 C 
HETATM    5  C   UNL     1      41.165 -15.005   1.447  1.00  0.00    -0.013 C 
HETATM    6  C   UNL     1      41.554 -14.979  -0.057  1.00  0.00     0.245 C 
HETATM    7  N   UNL     1      40.335 -15.035  -0.947  1.00  0.00    -0.065 N 
HETATM    8  H   UNL     1      39.785 -15.885  -0.765  1.00  0.00     0.280 HD
HETATM    9  C   UNL     1      39.398 -13.856  -0.715  1.00  0.00     0.244 C 
HETATM   10  C   UNL     1      38.946 -13.849   0.751  1.00  0.00     0.045 C 
HETATM   11  C   UNL     1      40.154 -13.850   1.708  1.00  0.00     0.022 C 
HETATM   12  C   UNL     1      42.419 -14.742   2.332  1.00  0.00     0.039 C 
HETATM   13  C   UNL     1      43.422 -15.892   2.380  1.00  0.00     0.236 C 
ENDROOT
BRANCH   7  14
HETATM   14  C   UNL     1      40.725 -15.099  -2.398  1.00  0.00     0.188 A 
HETATM   15  C   UNL     1      40.100 -16.194  -3.218  1.00  0.00     0.035 A 
HETATM   16  C   UNL     1      39.655 -14.771  -3.401  1.00  0.00     0.035 A 
ENDBRANCH   7  14
BRANCH  10  17
HETATM   17  C   UNL     1      38.015 -12.683   1.017  1.00  0.00    -0.052 A 
HETATM   18  C   UNL     1      36.829 -12.559   0.275  1.00  0.00     0.007 A 
HETATM   19  C   UNL     1      35.967 -11.480   0.485  1.00  0.00     0.001 A 
HETATM   20  C   UNL     1      36.278 -10.512   1.436  1.00  0.00     0.000 A 
HETATM   21  C   UNL     1      37.446 -10.624   2.182  1.00  0.00     0.001 A 
HETATM   22  C   UNL     1      38.310 -11.701   1.977  1.00  0.00     0.007 A 
ENDBRANCH  10  17
BRANCH   1  23
HETATM   23  C   UNL     1      42.516 -17.299   4.285  1.00  0.00     0.277 C 
BRANCH  23  24
HETATM   24  C   UNL     1      43.241 -18.461   4.855  1.00  0.00     0.011 A 
HETATM   25  C   UNL     1      43.450 -18.763   6.230  1.00  0.00     0.060 A 
HETATM   26  C   UNL     1      43.061 -17.976   7.430  1.00  0.00     0.073 C 
HETATM   27  N   UNL     1      44.057 -19.940   6.383  1.00  0.00    -0.178 NA
HETATM   28  N   UNL     1      44.351 -20.343   5.141  1.00  0.00    -0.284 N 
HETATM   29  C   UNL     1      45.075 -21.575   4.930  1.00  0.00     0.179 C 
HETATM   30  C   UNL     1      43.855 -19.503   4.181  1.00  0.00     0.122 A 
ENDBRANCH  23  24
ENDBRANCH   1  23
TORSDOF 4
ENDMDL
MODEL 6
REMARK VINA RESULT:      -7.9      3.027      8.682
REMARK  4 active torsions:
REMARK  status: ('A' for Active; 'I' for Inactive)
REMARK    1  A    between atoms: C_7  and  C_8 
REMARK    2  A    between atoms: C_8  and  N_9 
REMARK    3  A    between atoms: N_15  and  C_17 
REMARK    4  A    between atoms: C_21  and  C_22 
ROOT
HETATM    1  N   UNL     1      41.107 -15.110   2.276  1.00  0.00    -0.067 N 
HETATM    2  H   UNL     1      40.582 -15.772   1.686  1.00  0.00     0.280 HD
HETATM    3  C   UNL     1      42.391 -15.810   2.625  1.00  0.00     0.236 C 
HETATM    4  C   UNL     1      43.165 -15.042   3.700  1.00  0.00     0.039 C 
HETATM    5  C   UNL     1      42.340 -14.738   4.981  1.00  0.00    -0.013 C 
HETATM    6  C   UNL     1      42.052 -16.013   5.822  1.00  0.00     0.245 C 
HETATM    7  N   UNL     1      43.314 -16.575   6.431  1.00  0.00    -0.065 N 
HETATM    8  H   UNL     1      44.001 -16.811   5.703  1.00  0.00     0.280 HD
HETATM    9  C   UNL     1      43.996 -15.580   7.362  1.00  0.00     0.244 C 
HETATM   10  C   UNL     1      44.343 -14.308   6.578  1.00  0.00     0.045 C 
HETATM   11  C   UNL     1      43.097 -13.722   5.885  1.00  0.00     0.022 C 
HETATM   12  C   UNL     1      41.004 -14.071   4.539  1.00  0.00     0.039 C 
HETATM   13  C   UNL     1      40.234 -14.833   3.462  1.00  0.00     0.236 C 
ENDROOT
BRANCH   7  14
HETATM   14  C   UNL     1      43.038 -17.856   7.168  1.00  0.00     0.188 A 
HETATM   15  C   UNL     1      43.697 -19.098   6.634  1.00  0.00     0.035 A 
HETATM   16  C   UNL     1      44.191 -18.473   7.908  1.00  0.00     0.035 A 
ENDBRANCH   7  14
BRANCH  10  17
HETATM   17  C   UNL     1      45.019 -13.293   7.478  1.00  0.00    -0.052 A 
HETATM   18  C   UNL     1      46.335 -12.888   7.202  1.00  0.00     0.007 A 
HETATM   19  C   UNL     1      46.988 -11.974   8.031  1.00  0.00     0.001 A 
HETATM   20  C   UNL     1      46.338 -11.453   9.146  1.00  0.00     0.000 A 
HETATM   21  C   UNL     1      45.032 -11.841   9.431  1.00  0.00     0.001 A 
HETATM   22  C   UNL     1      44.375 -12.753   8.604  1.00  0.00     0.007 A 
ENDBRANCH  10  17
BRANCH   1  23
HETATM   23  C   UNL     1      41.264 -13.916   1.334  1.00  0.00     0.277 C 
BRANCH  23  24
HETATM   24  C   UNL     1      40.549 -14.131   0.052  1.00  0.00     0.011 A 
HETATM   25  C   UNL     1      39.159 -13.964  -0.204  1.00  0.00     0.060 A 
HETATM   26  C   UNL     1      38.070 -13.599   0.741  1.00  0.00     0.073 C 
HETATM   27  N   UNL     1      38.876 -14.147  -1.494  1.00  0.00    -0.178 NA
HETATM   28  N   UNL     1      40.028 -14.547  -2.048  1.00  0.00    -0.284 N 
HETATM   29  C   UNL     1      40.077 -14.895  -3.449  1.00  0.00     0.179 C 
HETATM   30  C   UNL     1      41.074 -14.526  -1.167  1.00  0.00     0.122 A 
ENDBRANCH  23  24
ENDBRANCH   1  23
TORSDOF 4
ENDMDL
MODEL 7
REMARK VINA RESULT:      -7.7      3.042      5.601
REMARK  4 active torsions:
REMARK  status: ('A' for Active; 'I' for Inactive)
REMARK    1  A    between atoms: C_7  and  C_8 
REMARK    2  A    between atoms: C_8  and  N_9 
REMARK    3  A    between atoms: N_15  and  C_17 
REMARK    4  A    between atoms: C_21  and  C_22 
ROOT
HETATM    1  N   UNL     1      40.596 -13.502   6.118  1.00  0.00    -0.067 N 
HETATM    2  H   UNL     1      40.672 -13.694   7.128  1.00  0.00     0.280 HD
HETATM    3  C   UNL     1      40.241 -14.816   5.482  1.00  0.00     0.236 C 
HETATM    4  C   UNL     1      40.336 -14.735   3.956  1.00  0.00     0.039 C 
HETATM    5  C   UNL     1      41.706 -14.225   3.431  1.00  0.00    -0.013 C 
HETATM    6  C   UNL     1      42.848 -15.256   3.643  1.00  0.00     0.245 C 
HETATM    7  N   UNL     1      42.659 -16.481   2.780  1.00  0.00    -0.065 N 
HETATM    8  H   UNL     1      41.761 -16.940   2.983  1.00  0.00     0.280 HD
HETATM    9  C   UNL     1      42.645 -16.142   1.294  1.00  0.00     0.244 C 
HETATM   10  C   UNL     1      41.507 -15.150   1.012  1.00  0.00     0.045 C 
HETATM   11  C   UNL     1      41.619 -13.903   1.910  1.00  0.00     0.022 C 
HETATM   12  C   UNL     1      42.035 -12.897   4.176  1.00  0.00     0.039 C 
HETATM   13  C   UNL     1      41.934 -12.974   5.698  1.00  0.00     0.236 C 
ENDROOT
BRANCH   7  14
HETATM   14  C   UNL     1      43.720 -17.511   3.057  1.00  0.00     0.188 A 
HETATM   15  C   UNL     1      43.246 -18.909   3.339  1.00  0.00     0.035 A 
HETATM   16  C   UNL     1      43.902 -18.588   2.027  1.00  0.00     0.035 A 
ENDBRANCH   7  14
BRANCH  10  17
HETATM   17  C   UNL     1      41.468 -14.787  -0.458  1.00  0.00    -0.052 A 
HETATM   18  C   UNL     1      41.053 -15.744  -1.399  1.00  0.00     0.007 A 
HETATM   19  C   UNL     1      41.033 -15.440  -2.762  1.00  0.00     0.001 A 
HETATM   20  C   UNL     1      41.426 -14.181  -3.204  1.00  0.00     0.000 A 
HETATM   21  C   UNL     1      41.836 -13.220  -2.284  1.00  0.00     0.001 A 
HETATM   22  C   UNL     1      41.857 -13.518  -0.920  1.00  0.00     0.007 A 
ENDBRANCH  10  17
BRANCH   1  23
HETATM   23  C   UNL     1      39.484 -12.453   6.088  1.00  0.00     0.277 C 
BRANCH  23  24
HETATM   24  C   UNL     1      39.652 -11.444   7.163  1.00  0.00     0.011 A 
HETATM   25  C   UNL     1      40.158 -10.120   7.038  1.00  0.00     0.060 A 
HETATM   26  C   UNL     1      40.699  -9.435   5.834  1.00  0.00     0.073 C 
HETATM   27  N   UNL     1      40.075  -9.456   8.191  1.00  0.00    -0.178 NA
HETATM   28  N   UNL     1      39.643 -10.358   9.080  1.00  0.00    -0.284 N 
HETATM   29  C   UNL     1      39.489  -9.993  10.469  1.00  0.00     0.179 C 
HETATM   30  C   UNL     1      39.344 -11.565   8.508  1.00  0.00     0.122 A 
ENDBRANCH  23  24
ENDBRANCH   1  23
TORSDOF 4
ENDMDL
MODEL 8
REMARK VINA RESULT:      -7.5      2.615      6.912
REMARK  4 active torsions:
REMARK  status: ('A' for Active; 'I' for Inactive)
REMARK    1  A    between atoms: C_7  and  C_8 
REMARK    2  A    between atoms: C_8  and  N_9 
REMARK    3  A    between atoms: N_15  and  C_17 
REMARK    4  A    between atoms: C_21  and  C_22 
ROOT
HETATM    1  N   UNL     1      40.213 -13.928   3.001  1.00  0.00    -0.067 N 
HETATM    2  H   UNL     1      39.845 -12.971   3.099  1.00  0.00     0.280 HD
HETATM    3  C   UNL     1      40.153 -14.527   4.378  1.00  0.00     0.236 C 
HETATM    4  C   UNL     1      40.897 -15.864   4.433  1.00  0.00     0.039 C 
HETATM    5  C   UNL     1      42.365 -15.794   3.929  1.00  0.00    -0.013 C 
HETATM    6  C   UNL     1      43.294 -15.015   4.901  1.00  0.00     0.245 C 
HETATM    7  N   UNL     1      43.482 -15.754   6.204  1.00  0.00    -0.065 N 
HETATM    8  H   UNL     1      42.579 -15.915   6.671  1.00  0.00     0.280 HD
HETATM    9  C   UNL     1      44.113 -17.126   6.001  1.00  0.00     0.244 C 
HETATM   10  C   UNL     1      43.219 -17.963   5.076  1.00  0.00     0.045 C 
HETATM   11  C   UNL     1      42.945 -17.228   3.749  1.00  0.00     0.022 C 
HETATM   12  C   UNL     1      42.355 -15.111   2.530  1.00  0.00     0.039 C 
HETATM   13  C   UNL     1      41.607 -13.781   2.472  1.00  0.00     0.236 C 
ENDROOT
BRANCH   7  14
HETATM   14  C   UNL     1      44.308 -14.951   7.170  1.00  0.00     0.188 A 
HETATM   15  C   UNL     1      45.274 -13.964   6.576  1.00  0.00     0.035 A 
HETATM   16  C   UNL     1      44.020 -13.479   7.246  1.00  0.00     0.035 A 
ENDBRANCH   7  14
BRANCH  10  17
HETATM   17  C   UNL     1      43.821 -19.335   4.849  1.00  0.00    -0.052 A 
HETATM   18  C   UNL     1      44.103 -19.761   3.541  1.00  0.00     0.007 A 
HETATM   19  C   UNL     1      44.635 -21.031   3.305  1.00  0.00     0.001 A 
HETATM   20  C   UNL     1      44.892 -21.890   4.368  1.00  0.00     0.000 A 
HETATM   21  C   UNL     1      44.623 -21.481   5.671  1.00  0.00     0.001 A 
HETATM   22  C   UNL     1      44.092 -20.212   5.912  1.00  0.00     0.007 A 
ENDBRANCH  10  17
BRANCH   1  23
HETATM   23  C   UNL     1      39.233 -14.533   1.995  1.00  0.00     0.277 C 
BRANCH  23  24
HETATM   24  C   UNL     1      39.083 -13.677   0.793  1.00  0.00     0.011 A 
HETATM   25  C   UNL     1      38.512 -12.376   0.721  1.00  0.00     0.060 A 
HETATM   26  C   UNL     1      37.872 -11.574   1.797  1.00  0.00     0.073 C 
HETATM   27  N   UNL     1      38.633 -11.859  -0.502  1.00  0.00    -0.178 NA
HETATM   28  N   UNL     1      39.156 -12.842  -1.245  1.00  0.00    -0.284 N 
HETATM   29  C   UNL     1      39.373 -12.647  -2.660  1.00  0.00     0.179 C 
HETATM   30  C   UNL     1      39.474 -13.950  -0.507  1.00  0.00     0.122 A 
ENDBRANCH  23  24
ENDBRANCH   1  23
TORSDOF 4
ENDMDL
MODEL 9
REMARK VINA RESULT:      -7.3      3.488      7.489
REMARK  4 active torsions:
REMARK  status: ('A' for Active; 'I' for Inactive)
REMARK    1  A    between atoms: C_7  and  C_8 
REMARK    2  A    between atoms: C_8  and  N_9 
REMARK    3  A    between atoms: N_15  and  C_17 
REMARK    4  A    between atoms: C_21  and  C_22 
ROOT
HETATM    1  N   UNL     1      41.910 -16.052   3.195  1.00  0.00    -0.067 N 
HETATM    2  H   UNL     1      42.635 -16.773   3.322  1.00  0.00     0.280 HD
HETATM    3  C   UNL     1      40.875 -16.672   2.299  1.00  0.00     0.236 C 
HETATM    4  C   UNL     1      39.857 -15.631   1.826  1.00  0.00     0.039 C 
HETATM    5  C   UNL     1      40.492 -14.385   1.149  1.00  0.00    -0.013 C 
HETATM    6  C   UNL     1      41.103 -14.707  -0.243  1.00  0.00     0.245 C 
HETATM    7  N   UNL     1      40.035 -15.057  -1.252  1.00  0.00    -0.065 N 
HETATM    8  H   UNL     1      39.485 -15.868  -0.940  1.00  0.00     0.280 HD
HETATM    9  C   UNL     1      39.046 -13.918  -1.461  1.00  0.00     0.244 C 
HETATM   10  C   UNL     1      38.376 -13.576  -0.123  1.00  0.00     0.045 C 
HETATM   11  C   UNL     1      39.425 -13.266   0.963  1.00  0.00     0.022 C 
HETATM   12  C   UNL     1      41.591 -13.834   2.105  1.00  0.00     0.039 C 
HETATM   13  C   UNL     1      42.603 -14.872   2.584  1.00  0.00     0.236 C 
ENDROOT
BRANCH   7  14
HETATM   14  C   UNL     1      40.642 -15.454  -2.570  1.00  0.00     0.188 A 
HETATM   15  C   UNL     1      39.856 -16.420  -3.412  1.00  0.00     0.035 A 
HETATM   16  C   UNL     1      39.941 -14.974  -3.809  1.00  0.00     0.035 A 
ENDBRANCH   7  14
BRANCH  10  17
HETATM   17  C   UNL     1      37.388 -12.441  -0.295  1.00  0.00    -0.052 A 
HETATM   18  C   UNL     1      36.647 -11.992   0.810  1.00  0.00     0.007 A 
HETATM   19  C   UNL     1      35.712 -10.964   0.671  1.00  0.00     0.001 A 
HETATM   20  C   UNL     1      35.504 -10.372  -0.571  1.00  0.00     0.000 A 
HETATM   21  C   UNL     1      36.233 -10.802  -1.675  1.00  0.00     0.001 A 
HETATM   22  C   UNL     1      37.170 -11.828  -1.540  1.00  0.00     0.007 A 
ENDBRANCH  10  17
BRANCH   1  23
HETATM   23  C   UNL     1      41.453 -15.818   4.636  1.00  0.00     0.277 C 
BRANCH  23  24
HETATM   24  C   UNL     1      42.599 -15.541   5.536  1.00  0.00     0.011 A 
HETATM   25  C   UNL     1      43.551 -16.471   6.040  1.00  0.00     0.060 A 
HETATM   26  C   UNL     1      43.608 -17.945   5.853  1.00  0.00     0.073 C 
HETATM   27  N   UNL     1      44.506 -15.860   6.741  1.00  0.00    -0.178 NA
HETATM   28  N   UNL     1      44.124 -14.578   6.802  1.00  0.00    -0.284 N 
HETATM   29  C   UNL     1      44.909 -13.621   7.547  1.00  0.00     0.179 C 
HETATM   30  C   UNL     1      42.997 -14.326   6.068  1.00  0.00     0.122 A 
ENDBRANCH  23  24
ENDBRANCH   1  23
TORSDOF 4
ENDMDL
MODEL 10
REMARK VINA RESULT:      -7.2      4.180      7.894
REMARK  4 active torsions:
REMARK  status: ('A' for Active; 'I' for Inactive)
REMARK    1  A    between atoms: C_7  and  C_8 
REMARK    2  A    between atoms: C_8  and  N_9 
REMARK    3  A    between atoms: N_15  and  C_17 
REMARK    4  A    between atoms: C_21  and  C_22 
ROOT
HETATM    1  N   UNL     1      42.132 -17.164   2.896  1.00  0.00    -0.067 N 
HETATM    2  H   UNL     1      42.870 -17.868   2.748  1.00  0.00     0.280 HD
HETATM    3  C   UNL     1      41.218 -17.281   1.709  1.00  0.00     0.236 C 
HETATM    4  C   UNL     1      40.211 -16.129   1.672  1.00  0.00     0.039 C 
HETATM    5  C   UNL     1      40.858 -14.717   1.729  1.00  0.00    -0.013 C 
HETATM    6  C   UNL     1      41.617 -14.355   0.423  1.00  0.00     0.245 C 
HETATM    7  N   UNL     1      40.670 -14.179  -0.740  1.00  0.00    -0.065 N 
HETATM    8  H   UNL     1      40.125 -15.036  -0.905  1.00  0.00     0.280 HD
HETATM    9  C   UNL     1      39.660 -13.065  -0.497  1.00  0.00     0.244 C 
HETATM   10  C   UNL     1      38.847 -13.385   0.765  1.00  0.00     0.045 C 
HETATM   11  C   UNL     1      39.769 -13.631   1.975  1.00  0.00     0.022 C 
HETATM   12  C   UNL     1      41.833 -14.691   2.943  1.00  0.00     0.039 C 
HETATM   13  C   UNL     1      42.834 -15.844   2.986  1.00  0.00     0.236 C 
ENDROOT
BRANCH   7  14
HETATM   14  C   UNL     1      41.421 -13.917  -2.017  1.00  0.00     0.188 A 
HETATM   15  C   UNL     1      41.263 -14.933  -3.114  1.00  0.00     0.035 A 
HETATM   16  C   UNL     1      40.598 -13.591  -3.231  1.00  0.00     0.035 A 
ENDBRANCH   7  14
BRANCH  10  17
HETATM   17  C   UNL     1      37.835 -12.291   1.039  1.00  0.00    -0.052 A 
HETATM   18  C   UNL     1      36.624 -12.273   0.329  1.00  0.00     0.007 A 
HETATM   19  C   UNL     1      35.686 -11.261   0.546  1.00  0.00     0.001 A 
HETATM   20  C   UNL     1      35.944 -10.256   1.474  1.00  0.00     0.000 A 
HETATM   21  C   UNL     1      37.137 -10.263   2.189  1.00  0.00     0.001 A 
HETATM   22  C   UNL     1      38.077 -11.273   1.976  1.00  0.00     0.007 A 
ENDBRANCH  10  17
BRANCH   1  23
HETATM   23  C   UNL     1      41.525 -17.630   4.221  1.00  0.00     0.277 C 
BRANCH  23  24
HETATM   24  C   UNL     1      42.565 -18.123   5.157  1.00  0.00     0.011 A 
HETATM   25  C   UNL     1      43.669 -18.971   4.859  1.00  0.00     0.060 A 
HETATM   26  C   UNL     1      44.027 -19.623   3.572  1.00  0.00     0.073 C 
HETATM   27  N   UNL     1      44.460 -19.131   5.920  1.00  0.00    -0.178 NA
HETATM   28  N   UNL     1      43.827 -18.508   6.922  1.00  0.00    -0.284 N 
HETATM   29  C   UNL     1      44.382 -18.528   8.256  1.00  0.00     0.179 C 
HETATM   30  C   UNL     1      42.695 -17.858   6.510  1.00  0.00     0.122 A 
ENDBRANCH  23  24
ENDBRANCH   1  23
TORSDOF 4
ENDMDL
