MODEL 1
REMARK VINA RESULT:      -8.7      0.000      0.000
REMARK  8 active torsions:
REMARK  status: ('A' for Active; 'I' for Inactive)
REMARK    1  A    between atoms: O_2  and  C_3 
REMARK    2  A    between atoms: C_3  and  C_4 
REMARK    3  A    between atoms: C_9  and  N_10 
REMARK       I    between atoms: N_10  and  C_11 
REMARK    4  A    between atoms: C_11  and  C_12 
REMARK    5  A    between atoms: C_12  and  N_13 
REMARK    6  A    between atoms: N_17  and  C_19 
REMARK    7  A    between atoms: C_19  and  C_20 
REMARK    8  A    between atoms: C_23  and  N_24 
ROOT
HETATM    1  C   UNL     1      39.824 -14.344   0.889  1.00  0.00     0.337 C 
ENDROOT
BRANCH   1   2
HETATM    2  C   UNL     1      38.517 -14.018   0.181  1.00  0.00     0.248 C 
HETATM    3  N   UNL     1      38.494 -13.512  -1.079  1.00  0.00    -0.323 N 
HETATM    4  H   UNL     1      37.587 -13.113  -1.344  1.00  0.00     0.169 HD
HETATM    5  O   UNL     1      37.486 -14.112   0.857  1.00  0.00    -0.271 OA
BRANCH   3   6
HETATM    6  C   UNL     1      39.542 -13.235  -1.953  1.00  0.00     0.080 C 
HETATM    7  C   UNL     1      39.710 -13.978  -3.115  1.00  0.00     0.136 C 
HETATM    8  N   UNL     1      40.734 -13.400  -3.826  1.00  0.00    -0.349 N 
HETATM    9  H   UNL     1      41.070 -13.742  -4.720  1.00  0.00     0.166 HD
HETATM   10  C   UNL     1      41.266 -12.341  -3.133  1.00  0.00     0.045 A 
HETATM   11  C   UNL     1      40.613 -12.281  -1.900  1.00  0.00     0.020 A 
HETATM   12  C   UNL     1      42.316 -11.487  -3.490  1.00  0.00     0.030 A 
HETATM   13  C   UNL     1      41.148 -11.400  -0.930  1.00  0.00     0.016 A 
HETATM   14  C   UNL     1      42.203 -10.541  -1.264  1.00  0.00     0.001 A 
HETATM   15  C   UNL     1      42.761 -10.570  -2.537  1.00  0.00     0.002 A 
BRANCH   7  16
HETATM   16  C   UNL     1      38.962 -15.127  -3.569  1.00  0.00     0.312 C 
HETATM   17  O   UNL     1      39.459 -16.063  -4.180  1.00  0.00    -0.258 OA
BRANCH  16  18
HETATM   18  O   UNL     1      37.659 -15.007  -3.203  1.00  0.00    -0.321 OA
HETATM   19  C   UNL     1      36.790 -14.590  -4.260  1.00  0.00     0.213 C 
ENDBRANCH  16  18
ENDBRANCH   7  16
ENDBRANCH   3   6
ENDBRANCH   1   2
BRANCH   1  20
HETATM   20  N   UNL     1      39.547 -15.106   2.213  1.00  0.00    -0.060 N 
HETATM   21  H   UNL     1      38.539 -14.893   2.374  1.00  0.00     0.280 HD
HETATM   22  C   UNL     1      40.279 -14.537   3.418  1.00  0.00     0.263 C 
HETATM   23  C   UNL     1      41.783 -14.909   3.405  1.00  0.00     0.263 C 
HETATM   24  N   UNL     1      42.021 -16.407   3.178  1.00  0.00    -0.064 N 
HETATM   25  H   UNL     1      41.766 -16.898   4.049  1.00  0.00     0.280 HD
HETATM   26  C   UNL     1      41.198 -17.004   2.033  1.00  0.00     0.263 C 
HETATM   27  C   UNL     1      39.704 -16.605   2.111  1.00  0.00     0.263 C 
BRANCH  24  28
HETATM   28  C   UNL     1      43.505 -16.729   2.970  1.00  0.00     0.273 C 
BRANCH  28  29
HETATM   29  C   UNL     1      43.861 -18.160   3.266  1.00  0.00    -0.032 A 
HETATM   30  C   UNL     1      43.915 -19.108   2.230  1.00  0.00     0.011 A 
HETATM   31  C   UNL     1      44.252 -20.439   2.501  1.00  0.00     0.037 A 
HETATM   32  C   UNL     1      44.528 -20.832   3.817  1.00  0.00     0.102 A 
HETATM   33  C   UNL     1      44.474 -19.899   4.859  1.00  0.00     0.037 A 
HETATM   34  C   UNL     1      44.146 -18.568   4.580  1.00  0.00     0.011 A 
BRANCH  32  35
HETATM   35  N   UNL     1      44.874 -22.231   4.107  1.00  0.00    -0.116 N 
HETATM   36  O   UNL     1      44.743 -23.051   3.190  1.00  0.00    -0.532 OA
HETATM   37  O   UNL     1      45.252 -22.494   5.255  1.00  0.00    -0.532 OA
ENDBRANCH  32  35
ENDBRANCH  28  29
ENDBRANCH  24  28
ENDBRANCH   1  20
TORSDOF 8
ENDMDL
MODEL 2
REMARK VINA RESULT:      -8.7      2.537      4.566
REMARK  8 active torsions:
REMARK  status: ('A' for Active; 'I' for Inactive)
REMARK    1  A    between atoms: O_2  and  C_3 
REMARK    2  A    between atoms: C_3  and  C_4 
REMARK    3  A    between atoms: C_9  and  N_10 
REMARK       I    between atoms: N_10  and  C_11 
REMARK    4  A    between atoms: C_11  and  C_12 
REMARK    5  A    between atoms: C_12  and  N_13 
REMARK    6  A    between atoms: N_17  and  C_19 
REMARK    7  A    between atoms: C_19  and  C_20 
REMARK    8  A    between atoms: C_23  and  N_24 
ROOT
HETATM    1  C   UNL     1      40.938 -13.405   3.505  1.00  0.00     0.337 C 
ENDROOT
BRANCH   1   2
HETATM    2  C   UNL     1      39.679 -13.541   2.661  1.00  0.00     0.248 C 
HETATM    3  N   UNL     1      39.626 -14.368   1.585  1.00  0.00    -0.323 N 
HETATM    4  H   UNL     1      38.826 -14.188   0.969  1.00  0.00     0.169 HD
HETATM    5  O   UNL     1      38.754 -12.764   2.923  1.00  0.00    -0.271 OA
BRANCH   3   6
HETATM    6  C   UNL     1      40.589 -15.231   1.069  1.00  0.00     0.080 C 
HETATM    7  C   UNL     1      41.006 -15.118  -0.251  1.00  0.00     0.136 C 
HETATM    8  N   UNL     1      42.037 -16.009  -0.431  1.00  0.00    -0.349 N 
HETATM    9  H   UNL     1      42.532 -16.138  -1.308  1.00  0.00     0.166 HD
HETATM   10  C   UNL     1      42.259 -16.730   0.715  1.00  0.00     0.045 A 
HETATM   11  C   UNL     1      41.290 -16.344   1.643  1.00  0.00     0.020 A 
HETATM   12  C   UNL     1      43.204 -17.734   0.962  1.00  0.00     0.030 A 
HETATM   13  C   UNL     1      41.188 -17.113   2.827  1.00  0.00     0.016 A 
HETATM   14  C   UNL     1      42.119 -18.127   3.090  1.00  0.00     0.001 A 
HETATM   15  C   UNL     1      43.128 -18.413   2.178  1.00  0.00     0.002 A 
BRANCH   7  16
HETATM   16  C   UNL     1      40.520 -14.229  -1.280  1.00  0.00     0.312 C 
HETATM   17  O   UNL     1      39.924 -13.186  -1.050  1.00  0.00    -0.258 OA
BRANCH  16  18
HETATM   18  O   UNL     1      40.839 -14.719  -2.506  1.00  0.00    -0.321 OA
HETATM   19  C   UNL     1      41.505 -13.781  -3.356  1.00  0.00     0.213 C 
ENDBRANCH  16  18
ENDBRANCH   7  16
ENDBRANCH   3   6
ENDBRANCH   1   2
BRANCH   1  20
HETATM   20  N   UNL     1      40.575 -13.345   5.014  1.00  0.00    -0.060 N 
HETATM   21  H   UNL     1      39.637 -12.888   4.988  1.00  0.00     0.280 HD
HETATM   22  C   UNL     1      41.458 -12.411   5.825  1.00  0.00     0.263 C 
HETATM   23  C   UNL     1      42.857 -13.026   6.086  1.00  0.00     0.263 C 
HETATM   24  N   UNL     1      42.782 -14.455   6.639  1.00  0.00    -0.064 N 
HETATM   25  H   UNL     1      42.474 -14.392   7.622  1.00  0.00     0.280 HD
HETATM   26  C   UNL     1      41.805 -15.365   5.888  1.00  0.00     0.263 C 
HETATM   27  C   UNL     1      40.426 -14.697   5.670  1.00  0.00     0.263 C 
BRANCH  24  28
HETATM   28  C   UNL     1      44.161 -15.120   6.705  1.00  0.00     0.273 C 
BRANCH  28  29
HETATM   29  C   UNL     1      44.108 -16.623   6.718  1.00  0.00    -0.032 A 
HETATM   30  C   UNL     1      44.577 -17.360   5.617  1.00  0.00     0.011 A 
HETATM   31  C   UNL     1      44.534 -18.759   5.628  1.00  0.00     0.037 A 
HETATM   32  C   UNL     1      44.012 -19.430   6.741  1.00  0.00     0.102 A 
HETATM   33  C   UNL     1      43.538 -18.708   7.842  1.00  0.00     0.037 A 
HETATM   34  C   UNL     1      43.592 -17.311   7.830  1.00  0.00     0.011 A 
BRANCH  32  35
HETATM   35  N   UNL     1      43.958 -20.898   6.752  1.00  0.00    -0.116 N 
HETATM   36  O   UNL     1      43.428 -21.442   7.729  1.00  0.00    -0.532 OA
HETATM   37  O   UNL     1      44.467 -21.491   5.792  1.00  0.00    -0.532 OA
ENDBRANCH  32  35
ENDBRANCH  28  29
ENDBRANCH  24  28
ENDBRANCH   1  20
TORSDOF 8
ENDMDL
MODEL 3
REMARK VINA RESULT:      -8.3      2.097      3.351
REMARK  8 active torsions:
REMARK  status: ('A' for Active; 'I' for Inactive)
REMARK    1  A    between atoms: O_2  and  C_3 
REMARK    2  A    between atoms: C_3  and  C_4 
REMARK    3  A    between atoms: C_9  and  N_10 
REMARK       I    between atoms: N_10  and  C_11 
REMARK    4  A    between atoms: C_11  and  C_12 
REMARK    5  A    between atoms: C_12  and  N_13 
REMARK    6  A    between atoms: N_17  and  C_19 
REMARK    7  A    between atoms: C_19  and  C_20 
REMARK    8  A    between atoms: C_23  and  N_24 
ROOT
HETATM    1  C   UNL     1      39.497 -13.804   1.847  1.00  0.00     0.337 C 
ENDROOT
BRANCH   1   2
HETATM    2  C   UNL     1      39.454 -12.326   1.484  1.00  0.00     0.248 C 
HETATM    3  N   UNL     1      39.788 -11.885   0.243  1.00  0.00    -0.323 N 
HETATM    4  H   UNL     1      39.953 -10.874   0.198  1.00  0.00     0.169 HD
HETATM    5  O   UNL     1      39.231 -11.538   2.410  1.00  0.00    -0.271 OA
BRANCH   3   6
HETATM    6  C   UNL     1      40.169 -12.599  -0.890  1.00  0.00     0.080 C 
HETATM    7  C   UNL     1      41.472 -12.528  -1.366  1.00  0.00     0.136 C 
HETATM    8  N   UNL     1      41.577 -13.423  -2.404  1.00  0.00    -0.349 N 
HETATM    9  H   UNL     1      42.425 -13.577  -2.939  1.00  0.00     0.166 HD
HETATM   10  C   UNL     1      40.368 -14.027  -2.646  1.00  0.00     0.045 A 
HETATM   11  C   UNL     1      39.434 -13.448  -1.784  1.00  0.00     0.020 A 
HETATM   12  C   UNL     1      40.036 -14.990  -3.606  1.00  0.00     0.030 A 
HETATM   13  C   UNL     1      38.073 -13.762  -2.005  1.00  0.00     0.016 A 
HETATM   14  C   UNL     1      37.717 -14.718  -2.966  1.00  0.00     0.001 A 
HETATM   15  C   UNL     1      38.692 -15.340  -3.737  1.00  0.00     0.002 A 
BRANCH   7  16
HETATM   16  C   UNL     1      42.567 -11.719  -0.886  1.00  0.00     0.312 C 
HETATM   17  O   UNL     1      42.835 -11.573   0.299  1.00  0.00    -0.258 OA
BRANCH  16  18
HETATM   18  O   UNL     1      43.239 -11.176  -1.934  1.00  0.00    -0.321 OA
HETATM   19  C   UNL     1      42.649  -9.981  -2.453  1.00  0.00     0.213 C 
ENDBRANCH  16  18
ENDBRANCH   7  16
ENDBRANCH   3   6
ENDBRANCH   1   2
BRANCH   1  20
HETATM   20  N   UNL     1      40.374 -14.026   3.109  1.00  0.00    -0.060 N 
HETATM   21  H   UNL     1      39.956 -13.346   3.780  1.00  0.00     0.280 HD
HETATM   22  C   UNL     1      41.821 -13.592   2.940  1.00  0.00     0.263 C 
HETATM   23  C   UNL     1      42.627 -14.601   2.083  1.00  0.00     0.263 C 
HETATM   24  N   UNL     1      42.459 -16.050   2.559  1.00  0.00    -0.064 N 
HETATM   25  H   UNL     1      42.996 -16.154   3.434  1.00  0.00     0.280 HD
HETATM   26  C   UNL     1      41.007 -16.451   2.835  1.00  0.00     0.263 C 
HETATM   27  C   UNL     1      40.263 -15.409   3.705  1.00  0.00     0.263 C 
BRANCH  24  28
HETATM   28  C   UNL     1      43.096 -17.051   1.589  1.00  0.00     0.273 C 
BRANCH  28  29
HETATM   29  C   UNL     1      43.524 -18.337   2.242  1.00  0.00    -0.032 A 
HETATM   30  C   UNL     1      43.488 -19.544   1.526  1.00  0.00     0.011 A 
HETATM   31  C   UNL     1      43.891 -20.741   2.128  1.00  0.00     0.037 A 
HETATM   32  C   UNL     1      44.326 -20.737   3.460  1.00  0.00     0.102 A 
HETATM   33  C   UNL     1      44.363 -19.542   4.187  1.00  0.00     0.037 A 
HETATM   34  C   UNL     1      43.968 -18.347   3.576  1.00  0.00     0.011 A 
BRANCH  32  35
HETATM   35  N   UNL     1      44.742 -21.993   4.099  1.00  0.00    -0.116 N 
HETATM   36  O   UNL     1      44.723 -23.018   3.406  1.00  0.00    -0.532 OA
HETATM   37  O   UNL     1      45.062 -21.943   5.293  1.00  0.00    -0.532 OA
ENDBRANCH  32  35
ENDBRANCH  28  29
ENDBRANCH  24  28
ENDBRANCH   1  20
TORSDOF 8
ENDMDL
MODEL 4
REMARK VINA RESULT:      -8.0      2.925      8.972
REMARK  8 active torsions:
REMARK  status: ('A' for Active; 'I' for Inactive)
REMARK    1  A    between atoms: O_2  and  C_3 
REMARK    2  A    between atoms: C_3  and  C_4 
REMARK    3  A    between atoms: C_9  and  N_10 
REMARK       I    between atoms: N_10  and  C_11 
REMARK    4  A    between atoms: C_11  and  C_12 
REMARK    5  A    between atoms: C_12  and  N_13 
REMARK    6  A    between atoms: N_17  and  C_19 
REMARK    7  A    between atoms: C_19  and  C_20 
REMARK    8  A    between atoms: C_23  and  N_24 
ROOT
HETATM    1  C   UNL     1      41.194 -15.098   1.612  1.00  0.00     0.337 C 
ENDROOT
BRANCH   1   2
HETATM    2  C   UNL     1      40.106 -15.954   2.244  1.00  0.00     0.248 C 
HETATM    3  N   UNL     1      40.395 -16.912   3.163  1.00  0.00    -0.323 N 
HETATM    4  H   UNL     1      39.625 -17.570   3.325  1.00  0.00     0.169 HD
HETATM    5  O   UNL     1      38.967 -15.825   1.783  1.00  0.00    -0.271 OA
BRANCH   3   6
HETATM    6  C   UNL     1      41.615 -17.279   3.722  1.00  0.00     0.080 C 
HETATM    7  C   UNL     1      42.130 -16.590   4.813  1.00  0.00     0.136 C 
HETATM    8  N   UNL     1      43.266 -17.251   5.215  1.00  0.00    -0.349 N 
HETATM    9  H   UNL     1      43.847 -16.962   5.995  1.00  0.00     0.166 HD
HETATM   10  C   UNL     1      43.529 -18.311   4.383  1.00  0.00     0.045 A 
HETATM   11  C   UNL     1      42.572 -18.289   3.367  1.00  0.00     0.020 A 
HETATM   12  C   UNL     1      44.579 -19.236   4.431  1.00  0.00     0.030 A 
HETATM   13  C   UNL     1      42.775 -19.161   2.272  1.00  0.00     0.016 A 
HETATM   14  C   UNL     1      43.824 -20.089   2.296  1.00  0.00     0.001 A 
HETATM   15  C   UNL     1      44.698 -20.140   3.376  1.00  0.00     0.002 A 
BRANCH   7  16
HETATM   16  C   UNL     1      41.603 -15.419   5.474  1.00  0.00     0.312 C 
HETATM   17  O   UNL     1      40.551 -15.407   6.098  1.00  0.00    -0.258 OA
BRANCH  16  18
HETATM   18  O   UNL     1      42.449 -14.370   5.305  1.00  0.00    -0.321 OA
HETATM   19  C   UNL     1      41.951 -13.128   5.812  1.00  0.00     0.213 C 
ENDBRANCH  16  18
ENDBRANCH   7  16
ENDBRANCH   3   6
ENDBRANCH   1   2
BRANCH   1  20
HETATM   20  N   UNL     1      41.298 -13.730   2.339  1.00  0.00    -0.060 N 
HETATM   21  H   UNL     1      41.532 -14.025   3.313  1.00  0.00     0.280 HD
HETATM   22  C   UNL     1      39.977 -12.986   2.448  1.00  0.00     0.263 C 
HETATM   23  C   UNL     1      39.565 -12.346   1.098  1.00  0.00     0.263 C 
HETATM   24  N   UNL     1      40.696 -11.527   0.462  1.00  0.00    -0.064 N 
HETATM   25  H   UNL     1      40.790 -10.654   1.003  1.00  0.00     0.280 HD
HETATM   26  C   UNL     1      42.053 -12.236   0.454  1.00  0.00     0.263 C 
HETATM   27  C   UNL     1      42.409 -12.841   1.833  1.00  0.00     0.263 C 
BRANCH  24  28
HETATM   28  C   UNL     1      40.345 -11.068  -0.958  1.00  0.00     0.273 C 
BRANCH  28  29
HETATM   29  C   UNL     1      39.670 -12.127  -1.786  1.00  0.00    -0.032 A 
HETATM   30  C   UNL     1      40.422 -13.158  -2.373  1.00  0.00     0.011 A 
HETATM   31  C   UNL     1      39.797 -14.148  -3.139  1.00  0.00     0.037 A 
HETATM   32  C   UNL     1      38.410 -14.106  -3.330  1.00  0.00     0.102 A 
HETATM   33  C   UNL     1      37.648 -13.083  -2.754  1.00  0.00     0.037 A 
HETATM   34  C   UNL     1      38.278 -12.102  -1.982  1.00  0.00     0.011 A 
BRANCH  32  35
HETATM   35  N   UNL     1      37.750 -15.139  -4.140  1.00  0.00    -0.116 N 
HETATM   36  O   UNL     1      36.571 -14.947  -4.460  1.00  0.00    -0.532 OA
HETATM   37  O   UNL     1      38.416 -16.142  -4.430  1.00  0.00    -0.532 OA
ENDBRANCH  32  35
ENDBRANCH  28  29
ENDBRANCH  24  28
ENDBRANCH   1  20
TORSDOF 8
ENDMDL
MODEL 5
REMARK VINA RESULT:      -7.9      2.940      4.639
REMARK  8 active torsions:
REMARK  status: ('A' for Active; 'I' for Inactive)
REMARK    1  A    between atoms: O_2  and  C_3 
REMARK    2  A    between atoms: C_3  and  C_4 
REMARK    3  A    between atoms: C_9  and  N_10 
REMARK       I    between atoms: N_10  and  C_11 
REMARK    4  A    between atoms: C_11  and  C_12 
REMARK    5  A    between atoms: C_12  and  N_13 
REMARK    6  A    between atoms: N_17  and  C_19 
REMARK    7  A    between atoms: C_19  and  C_20 
REMARK    8  A    between atoms: C_23  and  N_24 
ROOT
HETATM    1  C   UNL     1      42.449 -12.884   3.879  1.00  0.00     0.337 C 
ENDROOT
BRANCH   1   2
HETATM    2  C   UNL     1      41.460 -11.954   3.191  1.00  0.00     0.248 C 
HETATM    3  N   UNL     1      40.972 -12.221   1.951  1.00  0.00    -0.323 N 
HETATM    4  H   UNL     1      40.519 -11.415   1.507  1.00  0.00     0.169 HD
HETATM    5  O   UNL     1      41.227 -10.880   3.757  1.00  0.00    -0.271 OA
BRANCH   3   6
HETATM    6  C   UNL     1      41.198 -13.310   1.114  1.00  0.00     0.080 C 
HETATM    7  C   UNL     1      41.822 -13.140  -0.116  1.00  0.00     0.136 C 
HETATM    8  N   UNL     1      42.017 -14.390  -0.651  1.00  0.00    -0.349 N 
HETATM    9  H   UNL     1      42.455 -14.563  -1.550  1.00  0.00     0.166 HD
HETATM   10  C   UNL     1      41.488 -15.356   0.169  1.00  0.00     0.045 A 
HETATM   11  C   UNL     1      40.865 -14.701   1.233  1.00  0.00     0.020 A 
HETATM   12  C   UNL     1      41.466 -16.746   0.002  1.00  0.00     0.030 A 
HETATM   13  C   UNL     1      40.063 -15.488   2.093  1.00  0.00     0.016 A 
HETATM   14  C   UNL     1      40.021 -16.879   1.939  1.00  0.00     0.001 A 
HETATM   15  C   UNL     1      40.735 -17.499   0.920  1.00  0.00     0.002 A 
BRANCH   7  16
HETATM   16  C   UNL     1      42.248 -11.915  -0.752  1.00  0.00     0.312 C 
HETATM   17  O   UNL     1      42.965 -11.083  -0.213  1.00  0.00    -0.258 OA
BRANCH  16  18
HETATM   18  O   UNL     1      41.749 -11.849  -2.014  1.00  0.00    -0.321 OA
HETATM   19  C   UNL     1      42.516 -11.034  -2.905  1.00  0.00     0.213 C 
ENDBRANCH  16  18
ENDBRANCH   7  16
ENDBRANCH   3   6
ENDBRANCH   1   2
BRANCH   1  20
HETATM   20  N   UNL     1      42.294 -12.793   5.421  1.00  0.00    -0.060 N 
HETATM   21  H   UNL     1      42.609 -11.816   5.608  1.00  0.00     0.280 HD
HETATM   22  C   UNL     1      43.256 -13.683   6.192  1.00  0.00     0.263 C 
HETATM   23  C   UNL     1      42.828 -15.172   6.139  1.00  0.00     0.263 C 
HETATM   24  N   UNL     1      41.352 -15.377   6.506  1.00  0.00    -0.064 N 
HETATM   25  H   UNL     1      41.264 -15.245   7.526  1.00  0.00     0.280 HD
HETATM   26  C   UNL     1      40.395 -14.404   5.812  1.00  0.00     0.263 C 
HETATM   27  C   UNL     1      40.873 -12.935   5.912  1.00  0.00     0.263 C 
BRANCH  24  28
HETATM   28  C   UNL     1      40.893 -16.818   6.259  1.00  0.00     0.273 C 
BRANCH  28  29
HETATM   29  C   UNL     1      41.950 -17.691   5.640  1.00  0.00    -0.032 A 
HETATM   30  C   UNL     1      42.819 -18.439   6.451  1.00  0.00     0.011 A 
HETATM   31  C   UNL     1      43.799 -19.257   5.877  1.00  0.00     0.037 A 
HETATM   32  C   UNL     1      43.920 -19.324   4.483  1.00  0.00     0.102 A 
HETATM   33  C   UNL     1      43.063 -18.582   3.664  1.00  0.00     0.037 A 
HETATM   34  C   UNL     1      42.080 -17.773   4.242  1.00  0.00     0.011 A 
BRANCH  32  35
HETATM   35  N   UNL     1      44.954 -20.176   3.878  1.00  0.00    -0.116 N 
HETATM   36  O   UNL     1      44.922 -20.325   2.651  1.00  0.00    -0.532 OA
HETATM   37  O   UNL     1      45.772 -20.703   4.643  1.00  0.00    -0.532 OA
ENDBRANCH  32  35
ENDBRANCH  28  29
ENDBRANCH  24  28
ENDBRANCH   1  20
TORSDOF 8
ENDMDL
MODEL 6
REMARK VINA RESULT:      -7.9      2.295      3.830
REMARK  8 active torsions:
REMARK  status: ('A' for Active; 'I' for Inactive)
REMARK    1  A    between atoms: O_2  and  C_3 
REMARK    2  A    between atoms: C_3  and  C_4 
REMARK    3  A    between atoms: C_9  and  N_10 
REMARK       I    between atoms: N_10  and  C_11 
REMARK    4  A    between atoms: C_11  and  C_12 
REMARK    5  A    between atoms: C_12  and  N_13 
REMARK    6  A    between atoms: N_17  and  C_19 
REMARK    7  A    between atoms: C_19  and  C_20 
REMARK    8  A    between atoms: C_23  and  N_24 
ROOT
HETATM    1  C   UNL     1      39.058 -12.288   0.286  1.00  0.00     0.337 C 
ENDROOT
BRANCH   1   2
HETATM    2  C   UNL     1      39.227 -11.108  -0.659  1.00  0.00     0.248 C 
HETATM    3  N   UNL     1      39.671 -11.270  -1.933  1.00  0.00    -0.323 N 
HETATM    4  H   UNL     1      39.971 -10.396  -2.377  1.00  0.00     0.169 HD
HETATM    5  O   UNL     1      39.068  -9.984  -0.171  1.00  0.00    -0.271 OA
BRANCH   3   6
HETATM    6  C   UNL     1      40.005 -12.431  -2.625  1.00  0.00     0.080 C 
HETATM    7  C   UNL     1      41.298 -12.629  -3.093  1.00  0.00     0.136 C 
HETATM    8  N   UNL     1      41.354 -13.898  -3.616  1.00  0.00    -0.349 N 
HETATM    9  H   UNL     1      42.184 -14.308  -4.030  1.00  0.00     0.166 HD
HETATM   10  C   UNL     1      40.124 -14.503  -3.549  1.00  0.00     0.045 A 
HETATM   11  C   UNL     1      39.227 -13.565  -3.033  1.00  0.00     0.020 A 
HETATM   12  C   UNL     1      39.742 -15.784  -3.968  1.00  0.00     0.030 A 
HETATM   13  C   UNL     1      37.852 -13.897  -3.077  1.00  0.00     0.016 A 
HETATM   14  C   UNL     1      37.447 -15.170  -3.500  1.00  0.00     0.001 A 
HETATM   15  C   UNL     1      38.386 -16.107  -3.916  1.00  0.00     0.002 A 
BRANCH   7  16
HETATM   16  C   UNL     1      42.427 -11.729  -3.039  1.00  0.00     0.312 C 
HETATM   17  O   UNL     1      42.995 -11.414  -2.002  1.00  0.00    -0.258 OA
BRANCH  16  18
HETATM   18  O   UNL     1      42.753 -11.316  -4.291  1.00  0.00    -0.321 OA
HETATM   19  C   UNL     1      42.363  -9.971  -4.584  1.00  0.00     0.213 C 
ENDBRANCH  16  18
ENDBRANCH   7  16
ENDBRANCH   3   6
ENDBRANCH   1   2
BRANCH   1  20
HETATM   20  N   UNL     1      40.202 -12.311   1.335  1.00  0.00    -0.060 N 
HETATM   21  H   UNL     1      40.374 -11.292   1.483  1.00  0.00     0.280 HD
HETATM   22  C   UNL     1      41.514 -12.870   0.806  1.00  0.00     0.263 C 
HETATM   23  C   UNL     1      41.469 -14.414   0.678  1.00  0.00     0.263 C 
HETATM   24  N   UNL     1      40.965 -15.100   1.954  1.00  0.00    -0.064 N 
HETATM   25  H   UNL     1      41.718 -15.042   2.657  1.00  0.00     0.280 HD
HETATM   26  C   UNL     1      39.704 -14.464   2.548  1.00  0.00     0.263 C 
HETATM   27  C   UNL     1      39.818 -12.924   2.660  1.00  0.00     0.263 C 
BRANCH  24  28
HETATM   28  C   UNL     1      40.738 -16.601   1.748  1.00  0.00     0.273 C 
BRANCH  28  29
HETATM   29  C   UNL     1      41.726 -17.468   2.480  1.00  0.00    -0.032 A 
HETATM   30  C   UNL     1      42.675 -18.222   1.769  1.00  0.00     0.011 A 
HETATM   31  C   UNL     1      43.598 -19.024   2.448  1.00  0.00     0.037 A 
HETATM   32  C   UNL     1      43.572 -19.083   3.847  1.00  0.00     0.102 A 
HETATM   33  C   UNL     1      42.630 -18.341   4.568  1.00  0.00     0.037 A 
HETATM   34  C   UNL     1      41.715 -17.534   3.885  1.00  0.00     0.011 A 
BRANCH  32  35
HETATM   35  N   UNL     1      44.536 -19.932   4.563  1.00  0.00    -0.116 N 
HETATM   36  O   UNL     1      44.727 -19.691   5.761  1.00  0.00    -0.532 OA
HETATM   37  O   UNL     1      45.106 -20.815   3.910  1.00  0.00    -0.532 OA
ENDBRANCH  32  35
ENDBRANCH  28  29
ENDBRANCH  24  28
ENDBRANCH   1  20
TORSDOF 8
ENDMDL
MODEL 7
REMARK VINA RESULT:      -7.8      2.180      3.185
REMARK  8 active torsions:
REMARK  status: ('A' for Active; 'I' for Inactive)
REMARK    1  A    between atoms: O_2  and  C_3 
REMARK    2  A    between atoms: C_3  and  C_4 
REMARK    3  A    between atoms: C_9  and  N_10 
REMARK       I    between atoms: N_10  and  C_11 
REMARK    4  A    between atoms: C_11  and  C_12 
REMARK    5  A    between atoms: C_12  and  N_13 
REMARK    6  A    between atoms: N_17  and  C_19 
REMARK    7  A    between atoms: C_19  and  C_20 
REMARK    8  A    between atoms: C_23  and  N_24 
ROOT
HETATM    1  C   UNL     1      42.264 -15.547   1.501  1.00  0.00     0.337 C 
ENDROOT
BRANCH   1   2
HETATM    2  C   UNL     1      41.183 -16.197   0.649  1.00  0.00     0.248 C 
HETATM    3  N   UNL     1      40.387 -15.466  -0.175  1.00  0.00    -0.323 N 
HETATM    4  H   UNL     1      39.556 -15.974  -0.498  1.00  0.00     0.169 HD
HETATM    5  O   UNL     1      40.976 -17.399   0.845  1.00  0.00    -0.271 OA
BRANCH   3   6
HETATM    6  C   UNL     1      40.390 -14.101  -0.446  1.00  0.00     0.080 C 
HETATM    7  C   UNL     1      39.527 -13.244   0.226  1.00  0.00     0.136 C 
HETATM    8  N   UNL     1      39.844 -11.963  -0.157  1.00  0.00    -0.349 N 
HETATM    9  H   UNL     1      39.368 -11.133   0.182  1.00  0.00     0.166 HD
HETATM   10  C   UNL     1      40.846 -11.972  -1.095  1.00  0.00     0.045 A 
HETATM   11  C   UNL     1      41.135 -13.307  -1.382  1.00  0.00     0.020 A 
HETATM   12  C   UNL     1      41.461 -10.895  -1.745  1.00  0.00     0.030 A 
HETATM   13  C   UNL     1      41.987 -13.560  -2.483  1.00  0.00     0.016 A 
HETATM   14  C   UNL     1      42.607 -12.497  -3.152  1.00  0.00     0.001 A 
HETATM   15  C   UNL     1      42.364 -11.183  -2.768  1.00  0.00     0.002 A 
BRANCH   7  16
HETATM   16  C   UNL     1      38.497 -13.567   1.185  1.00  0.00     0.312 C 
HETATM   17  O   UNL     1      37.346 -13.844   0.878  1.00  0.00    -0.258 OA
BRANCH  16  18
HETATM   18  O   UNL     1      39.006 -13.529   2.444  1.00  0.00    -0.321 OA
HETATM   19  C   UNL     1      38.913 -12.249   3.074  1.00  0.00     0.213 C 
ENDBRANCH  16  18
ENDBRANCH   7  16
ENDBRANCH   3   6
ENDBRANCH   1   2
BRANCH   1  20
HETATM   20  N   UNL     1      41.655 -14.982   2.812  1.00  0.00    -0.060 N 
HETATM   21  H   UNL     1      40.962 -14.294   2.444  1.00  0.00     0.280 HD
HETATM   22  C   UNL     1      42.630 -14.168   3.646  1.00  0.00     0.263 C 
HETATM   23  C   UNL     1      43.643 -15.074   4.392  1.00  0.00     0.263 C 
HETATM   24  N   UNL     1      42.963 -16.215   5.160  1.00  0.00    -0.064 N 
HETATM   25  H   UNL     1      42.508 -15.805   5.990  1.00  0.00     0.280 HD
HETATM   26  C   UNL     1      41.899 -16.964   4.351  1.00  0.00     0.263 C 
HETATM   27  C   UNL     1      40.914 -16.003   3.642  1.00  0.00     0.263 C 
BRANCH  24  28
HETATM   28  C   UNL     1      43.979 -17.213   5.725  1.00  0.00     0.273 C 
BRANCH  28  29
HETATM   29  C   UNL     1      44.117 -18.466   4.905  1.00  0.00    -0.032 A 
HETATM   30  C   UNL     1      43.934 -18.428   3.512  1.00  0.00     0.011 A 
HETATM   31  C   UNL     1      44.067 -19.591   2.745  1.00  0.00     0.037 A 
HETATM   32  C   UNL     1      44.377 -20.805   3.372  1.00  0.00     0.102 A 
HETATM   33  C   UNL     1      44.559 -20.858   4.758  1.00  0.00     0.037 A 
HETATM   34  C   UNL     1      44.433 -19.691   5.518  1.00  0.00     0.011 A 
BRANCH  32  35
HETATM   35  N   UNL     1      44.510 -22.030   2.570  1.00  0.00    -0.116 N 
HETATM   36  O   UNL     1      44.783 -23.076   3.170  1.00  0.00    -0.532 OA
HETATM   37  O   UNL     1      44.360 -21.924   1.346  1.00  0.00    -0.532 OA
ENDBRANCH  32  35
ENDBRANCH  28  29
ENDBRANCH  24  28
ENDBRANCH   1  20
TORSDOF 8
ENDMDL
MODEL 8
REMARK VINA RESULT:      -7.8      2.231      3.594
REMARK  8 active torsions:
REMARK  status: ('A' for Active; 'I' for Inactive)
REMARK    1  A    between atoms: O_2  and  C_3 
REMARK    2  A    between atoms: C_3  and  C_4 
REMARK    3  A    between atoms: C_9  and  N_10 
REMARK       I    between atoms: N_10  and  C_11 
REMARK    4  A    between atoms: C_11  and  C_12 
REMARK    5  A    between atoms: C_12  and  N_13 
REMARK    6  A    between atoms: N_17  and  C_19 
REMARK    7  A    between atoms: C_19  and  C_20 
REMARK    8  A    between atoms: C_23  and  N_24 
ROOT
HETATM    1  C   UNL     1      40.785 -13.287   1.251  1.00  0.00     0.337 C 
ENDROOT
BRANCH   1   2
HETATM    2  C   UNL     1      41.495 -12.461   0.188  1.00  0.00     0.248 C 
HETATM    3  N   UNL     1      40.977 -12.303  -1.058  1.00  0.00    -0.323 N 
HETATM    4  H   UNL     1      41.653 -11.941  -1.740  1.00  0.00     0.169 HD
HETATM    5  O   UNL     1      42.627 -12.054   0.471  1.00  0.00    -0.271 OA
BRANCH   3   6
HETATM    6  C   UNL     1      39.783 -12.771  -1.598  1.00  0.00     0.080 C 
HETATM    7  C   UNL     1      38.585 -12.113  -1.344  1.00  0.00     0.136 C 
HETATM    8  N   UNL     1      37.615 -12.723  -2.102  1.00  0.00    -0.349 N 
HETATM    9  H   UNL     1      36.639 -12.444  -2.110  1.00  0.00     0.166 HD
HETATM   10  C   UNL     1      38.138 -13.787  -2.793  1.00  0.00     0.045 A 
HETATM   11  C   UNL     1      39.476 -13.913  -2.411  1.00  0.00     0.020 A 
HETATM   12  C   UNL     1      37.502 -14.673  -3.671  1.00  0.00     0.030 A 
HETATM   13  C   UNL     1      40.159 -15.078  -2.833  1.00  0.00     0.016 A 
HETATM   14  C   UNL     1      39.538 -15.981  -3.706  1.00  0.00     0.001 A 
HETATM   15  C   UNL     1      38.235 -15.764  -4.137  1.00  0.00     0.002 A 
BRANCH   7  16
HETATM   16  C   UNL     1      38.343 -10.975  -0.488  1.00  0.00     0.312 C 
HETATM   17  O   UNL     1      38.312 -11.038   0.733  1.00  0.00    -0.258 OA
BRANCH  16  18
HETATM   18  O   UNL     1      38.176  -9.856  -1.239  1.00  0.00    -0.321 OA
HETATM   19  C   UNL     1      39.275  -8.942  -1.180  1.00  0.00     0.213 C 
ENDBRANCH  16  18
ENDBRANCH   7  16
ENDBRANCH   3   6
ENDBRANCH   1   2
BRANCH   1  20
HETATM   20  N   UNL     1      40.594 -14.748   0.763  1.00  0.00    -0.060 N 
HETATM   21  H   UNL     1      39.948 -14.619  -0.046  1.00  0.00     0.280 HD
HETATM   22  C   UNL     1      39.841 -15.634   1.743  1.00  0.00     0.263 C 
HETATM   23  C   UNL     1      40.731 -16.047   2.943  1.00  0.00     0.263 C 
HETATM   24  N   UNL     1      42.089 -16.611   2.506  1.00  0.00    -0.064 N 
HETATM   25  H   UNL     1      41.926 -17.555   2.124  1.00  0.00     0.280 HD
HETATM   26  C   UNL     1      42.796 -15.775   1.435  1.00  0.00     0.263 C 
HETATM   27  C   UNL     1      41.857 -15.406   0.261  1.00  0.00     0.263 C 
BRANCH  24  28
HETATM   28  C   UNL     1      43.030 -16.829   3.696  1.00  0.00     0.273 C 
BRANCH  28  29
HETATM   29  C   UNL     1      43.522 -18.245   3.826  1.00  0.00    -0.032 A 
HETATM   30  C   UNL     1      43.554 -19.092   2.705  1.00  0.00     0.011 A 
HETATM   31  C   UNL     1      44.016 -20.408   2.822  1.00  0.00     0.037 A 
HETATM   32  C   UNL     1      44.443 -20.887   4.067  1.00  0.00     0.102 A 
HETATM   33  C   UNL     1      44.412 -20.055   5.192  1.00  0.00     0.037 A 
HETATM   34  C   UNL     1      43.958 -18.739   5.068  1.00  0.00     0.011 A 
BRANCH  32  35
HETATM   35  N   UNL     1      44.921 -22.271   4.195  1.00  0.00    -0.116 N 
HETATM   36  O   UNL     1      45.473 -22.587   5.255  1.00  0.00    -0.532 OA
HETATM   37  O   UNL     1      44.756 -23.019   3.222  1.00  0.00    -0.532 OA
ENDBRANCH  32  35
ENDBRANCH  28  29
ENDBRANCH  24  28
ENDBRANCH   1  20
TORSDOF 8
ENDMDL
MODEL 9
REMARK VINA RESULT:      -7.6      3.922      5.644
REMARK  8 active torsions:
REMARK  status: ('A' for Active; 'I' for Inactive)
REMARK    1  A    between atoms: O_2  and  C_3 
REMARK    2  A    between atoms: C_3  and  C_4 
REMARK    3  A    between atoms: C_9  and  N_10 
REMARK       I    between atoms: N_10  and  C_11 
REMARK    4  A    between atoms: C_11  and  C_12 
REMARK    5  A    between atoms: C_12  and  N_13 
REMARK    6  A    between atoms: N_17  and  C_19 
REMARK    7  A    between atoms: C_19  and  C_20 
REMARK    8  A    between atoms: C_23  and  N_24 
ROOT
HETATM    1  C   UNL     1      42.364 -14.981   3.982  1.00  0.00     0.337 C 
ENDROOT
BRANCH   1   2
HETATM    2  C   UNL     1      43.001 -13.678   3.522  1.00  0.00     0.248 C 
HETATM    3  N   UNL     1      42.261 -12.667   2.996  1.00  0.00    -0.323 N 
HETATM    4  H   UNL     1      42.821 -11.960   2.508  1.00  0.00     0.169 HD
HETATM    5  O   UNL     1      44.236 -13.637   3.526  1.00  0.00    -0.271 OA
BRANCH   3   6
HETATM    6  C   UNL     1      40.885 -12.568   2.808  1.00  0.00     0.080 C 
HETATM    7  C   UNL     1      40.093 -11.887   3.723  1.00  0.00     0.136 C 
HETATM    8  N   UNL     1      38.818 -11.850   3.212  1.00  0.00    -0.349 N 
HETATM    9  H   UNL     1      38.030 -11.411   3.677  1.00  0.00     0.166 HD
HETATM   10  C   UNL     1      38.753 -12.534   2.023  1.00  0.00     0.045 A 
HETATM   11  C   UNL     1      40.012 -13.094   1.797  1.00  0.00     0.020 A 
HETATM   12  C   UNL     1      37.655 -12.743   1.180  1.00  0.00     0.030 A 
HETATM   13  C   UNL     1      40.122 -14.025   0.738  1.00  0.00     0.016 A 
HETATM   14  C   UNL     1      39.033 -14.254  -0.114  1.00  0.00     0.001 A 
HETATM   15  C   UNL     1      37.824 -13.600   0.093  1.00  0.00     0.002 A 
BRANCH   7  16
HETATM   16  C   UNL     1      40.478 -11.275   4.973  1.00  0.00     0.312 C 
HETATM   17  O   UNL     1      40.584 -10.067   5.134  1.00  0.00    -0.258 OA
BRANCH  16  18
HETATM   18  O   UNL     1      40.681 -12.231   5.916  1.00  0.00    -0.321 OA
HETATM   19  C   UNL     1      39.559 -12.454   6.775  1.00  0.00     0.213 C 
ENDBRANCH  16  18
ENDBRANCH   7  16
ENDBRANCH   3   6
ENDBRANCH   1   2
BRANCH   1  20
HETATM   20  N   UNL     1      41.978 -14.895   5.483  1.00  0.00    -0.060 N 
HETATM   21  H   UNL     1      41.288 -14.112   5.480  1.00  0.00     0.280 HD
HETATM   22  C   UNL     1      43.109 -14.432   6.387  1.00  0.00     0.263 C 
HETATM   23  C   UNL     1      44.153 -15.554   6.619  1.00  0.00     0.263 C 
HETATM   24  N   UNL     1      43.512 -16.881   7.047  1.00  0.00    -0.064 N 
HETATM   25  H   UNL     1      43.203 -16.775   8.027  1.00  0.00     0.280 HD
HETATM   26  C   UNL     1      42.301 -17.289   6.204  1.00  0.00     0.263 C 
HETATM   27  C   UNL     1      41.293 -16.129   6.019  1.00  0.00     0.263 C 
BRANCH  24  28
HETATM   28  C   UNL     1      44.528 -18.027   7.081  1.00  0.00     0.273 C 
BRANCH  28  29
HETATM   29  C   UNL     1      44.448 -18.941   5.889  1.00  0.00    -0.032 A 
HETATM   30  C   UNL     1      44.350 -18.411   4.592  1.00  0.00     0.011 A 
HETATM   31  C   UNL     1      44.282 -19.259   3.481  1.00  0.00     0.037 A 
HETATM   32  C   UNL     1      44.302 -20.647   3.664  1.00  0.00     0.102 A 
HETATM   33  C   UNL     1      44.396 -21.189   4.950  1.00  0.00     0.037 A 
HETATM   34  C   UNL     1      44.474 -20.337   6.056  1.00  0.00     0.011 A 
BRANCH  32  35
HETATM   35  N   UNL     1      44.222 -21.541   2.499  1.00  0.00    -0.116 N 
HETATM   36  O   UNL     1      44.604 -22.708   2.649  1.00  0.00    -0.532 OA
HETATM   37  O   UNL     1      43.798 -21.056   1.442  1.00  0.00    -0.532 OA
ENDBRANCH  32  35
ENDBRANCH  28  29
ENDBRANCH  24  28
ENDBRANCH   1  20
TORSDOF 8
ENDMDL
MODEL 10
REMARK VINA RESULT:      -7.6      2.428      3.439
REMARK  8 active torsions:
REMARK  status: ('A' for Active; 'I' for Inactive)
REMARK    1  A    between atoms: O_2  and  C_3 
REMARK    2  A    between atoms: C_3  and  C_4 
REMARK    3  A    between atoms: C_9  and  N_10 
REMARK       I    between atoms: N_10  and  C_11 
REMARK    4  A    between atoms: C_11  and  C_12 
REMARK    5  A    between atoms: C_12  and  N_13 
REMARK    6  A    between atoms: N_17  and  C_19 
REMARK    7  A    between atoms: C_19  and  C_20 
REMARK    8  A    between atoms: C_23  and  N_24 
ROOT
HETATM    1  C   UNL     1      41.133 -12.669   1.699  1.00  0.00     0.337 C 
ENDROOT
BRANCH   1   2
HETATM    2  C   UNL     1      41.545 -11.838   0.491  1.00  0.00     0.248 C 
HETATM    3  N   UNL     1      40.641 -11.432  -0.438  1.00  0.00    -0.323 N 
HETATM    4  H   UNL     1      41.070 -11.100  -1.309  1.00  0.00     0.169 HD
HETATM    5  O   UNL     1      42.758 -11.666   0.329  1.00  0.00    -0.271 OA
BRANCH   3   6
HETATM    6  C   UNL     1      39.263 -11.618  -0.490  1.00  0.00     0.080 C 
HETATM    7  C   UNL     1      38.706 -12.547  -1.360  1.00  0.00     0.136 C 
HETATM    8  N   UNL     1      37.358 -12.595  -1.098  1.00  0.00    -0.349 N 
HETATM    9  H   UNL     1      36.703 -13.193  -1.592  1.00  0.00     0.166 HD
HETATM   10  C   UNL     1      37.021 -11.687  -0.126  1.00  0.00     0.045 A 
HETATM   11  C   UNL     1      38.178 -10.977   0.198  1.00  0.00     0.020 A 
HETATM   12  C   UNL     1      35.766 -11.410   0.431  1.00  0.00     0.030 A 
HETATM   13  C   UNL     1      38.026  -9.838   1.024  1.00  0.00     0.016 A 
HETATM   14  C   UNL     1      36.778  -9.539   1.587  1.00  0.00     0.001 A 
HETATM   15  C   UNL     1      35.670 -10.332   1.311  1.00  0.00     0.002 A 
BRANCH   7  16
HETATM   16  C   UNL     1      39.365 -13.368  -2.348  1.00  0.00     0.312 C 
HETATM   17  O   UNL     1      39.052 -14.527  -2.587  1.00  0.00    -0.258 OA
BRANCH  16  18
HETATM   18  O   UNL     1      40.348 -12.659  -2.961  1.00  0.00    -0.321 OA
HETATM   19  C   UNL     1      41.415 -13.461  -3.476  1.00  0.00     0.213 C 
ENDBRANCH  16  18
ENDBRANCH   7  16
ENDBRANCH   3   6
ENDBRANCH   1   2
BRANCH   1  20
HETATM   20  N   UNL     1      40.505 -14.013   1.242  1.00  0.00    -0.060 N 
HETATM   21  H   UNL     1      39.758 -13.688   0.590  1.00  0.00     0.280 HD
HETATM   22  C   UNL     1      39.778 -14.762   2.348  1.00  0.00     0.263 C 
HETATM   23  C   UNL     1      40.769 -15.445   3.326  1.00  0.00     0.263 C 
HETATM   24  N   UNL     1      41.837 -16.276   2.603  1.00  0.00    -0.064 N 
HETATM   25  H   UNL     1      41.380 -17.131   2.251  1.00  0.00     0.280 HD
HETATM   26  C   UNL     1      42.490 -15.558   1.418  1.00  0.00     0.263 C 
HETATM   27  C   UNL     1      41.448 -14.909   0.475  1.00  0.00     0.263 C 
BRANCH  24  28
HETATM   28  C   UNL     1      42.920 -16.779   3.563  1.00  0.00     0.273 C 
BRANCH  28  29
HETATM   29  C   UNL     1      43.337 -18.202   3.311  1.00  0.00    -0.032 A 
HETATM   30  C   UNL     1      42.877 -18.887   2.174  1.00  0.00     0.011 A 
HETATM   31  C   UNL     1      43.268 -20.209   1.934  1.00  0.00     0.037 A 
HETATM   32  C   UNL     1      44.118 -20.858   2.838  1.00  0.00     0.102 A 
HETATM   33  C   UNL     1      44.581 -20.189   3.976  1.00  0.00     0.037 A 
HETATM   34  C   UNL     1      44.194 -18.865   4.207  1.00  0.00     0.011 A 
BRANCH  32  35
HETATM   35  N   UNL     1      44.524 -22.249   2.593  1.00  0.00    -0.116 N 
HETATM   36  O   UNL     1      44.713 -22.589   1.419  1.00  0.00    -0.532 OA
HETATM   37  O   UNL     1      44.627 -22.991   3.579  1.00  0.00    -0.532 OA
ENDBRANCH  32  35
ENDBRANCH  28  29
ENDBRANCH  24  28
ENDBRANCH   1  20
TORSDOF 8
ENDMDL
